VeraChem MOL file


 26 25  0  0  0  0  0  0  0  0999 V2000     
   20.2414   18.6563   18.8060 C   0  0  0  0  0  0  0  0  0  0  0  0
   19.6043   19.4969   18.5017 H   0  0  0  0  0  0  0  0  0  0  0  0
   21.0557   18.5688   18.0750 H   0  0  0  0  0  0  0  0  0  0  0  0
   19.6427   17.7375   18.7549 H   0  0  0  0  0  0  0  0  0  0  0  0
   20.8051   18.8729   20.2263 C   0  0  0  0  0  0  0  0  0  0  0  0
   21.4262   19.7796   20.2376 H   0  0  0  0  0  0  0  0  0  0  0  0
   21.4643   18.0336   20.4887 H   0  0  0  0  0  0  0  0  0  0  0  0
   19.6785   18.9994   21.2757 C   0  0  0  0  0  0  0  0  0  0  0  0
   19.0207   19.8375   21.0067 H   0  0  0  0  0  0  0  0  0  0  0  0
   19.0594   18.0917   21.2595 H   0  0  0  0  0  0  0  0  0  0  0  0
   20.2389   19.2173   22.6994 C   0  0  0  0  0  0  0  0  0  0  0  0
   20.8549   20.1273   22.7150 H   0  0  0  0  0  0  0  0  0  0  0  0
   20.9000   18.3793   22.9576 H   0  0  0  0  0  0  0  0  0  0  0  0
   19.1076   19.3423   23.7488 C   0  0  0  0  0  0  0  0  0  0  0  0
   18.4280   20.1491   23.4433 H   0  0  0  0  0  0  0  0  0  0  0  0
   18.5119   18.4199   23.7646 H   0  0  0  0  0  0  0  0  0  0  0  0
   19.6331   19.6456   25.1688 C   0  0  1  0  0  0  0  0  0  0  0  0
   20.2419   20.5539   25.1222 H   0  0  0  0  0  0  0  0  0  0  0  0
   18.4605   19.8996   26.1296 C   0  0  0  0  0  0  0  0  0  0  0  0
   17.8173   19.0147   26.2138 H   0  0  0  0  0  0  0  0  0  0  0  0
   17.8446   20.7377   25.7803 H   0  0  0  0  0  0  0  0  0  0  0  0
   18.8275   20.1521   27.1321 H   0  0  0  0  0  0  0  0  0  0  0  0
   20.5229   18.5546   25.6994 N   0  3  0  0  0  0  0  0  0  0  0  0
   20.0217   17.6651   25.7697 H   0  0  0  0  0  0  0  0  0  0  0  0
   21.3337   18.4049   25.0932 H   0  0  0  0  0  0  0  0  0  0  0  0
   20.8768   18.7814   26.6330 H   0  0  0  0  0  0  0  0  0  0  0  0
  1  2  1  0  0  0  0
  1  3  1  0  0  0  0
  1  4  1  0  0  0  0
  1  5  1  0  0  0  0
  5  6  1  0  0  0  0
  5  7  1  0  0  0  0
  5  8  1  0  0  0  0
  8  9  1  0  0  0  0
  8 10  1  0  0  0  0
  8 11  1  0  0  0  0
 11 12  1  0  0  0  0
 11 13  1  0  0  0  0
 11 14  1  0  0  0  0
 14 15  1  0  0  0  0
 14 16  1  0  0  0  0
 14 17  1  0  0  0  0
 17 18  1  0  0  0  0
 17 19  1  0  0  0  0
 19 20  1  0  0  0  0
 19 21  1  0  0  0  0
 19 22  1  0  0  0  0
 17 23  1  0  0  0  0
 23 24  1  0  0  0  0
 23 25  1  0  0  0  0
 23 26  1  0  0  0  0
M  END
> <VConfSearch Rank>
1

> <Conf_Id>
122

> <Delta U+W>
0.000

> <U+W>
-30.299

> <U>
23.517

> <W>
-53.816

> <W(PB)>
-56.162

> <W(SA)>
2.346

> <Valence>
2.737

> <Coulomb>
19.862

> <VdW>
0.919

> <VdW6>
-6.793

> <VdW12>
7.712

> <Bond>
0.171

> <Angle>
0.873

> <Pdih>
1.693

> <Idih>
0.000

> <Tether>
0.000

$$$$
VeraChem MOL file


 26 25  0  0  0  0  0  0  0  0999 V2000     
   20.2648   18.6437   18.8026 C   0  0  0  0  0  0  0  0  0  0  0  0
   20.3175   19.2783   17.9084 H   0  0  0  0  0  0  0  0  0  0  0  0
   21.1735   18.0284   18.8331 H   0  0  0  0  0  0  0  0  0  0  0  0
   19.4021   17.9742   18.6902 H   0  0  0  0  0  0  0  0  0  0  0  0
   20.1357   19.5062   20.0760 C   0  0  0  0  0  0  0  0  0  0  0  0
   19.2371   20.1345   20.0009 H   0  0  0  0  0  0  0  0  0  0  0  0
   20.9948   20.1883   20.1429 H   0  0  0  0  0  0  0  0  0  0  0  0
   20.0595   18.6366   21.3505 C   0  0  0  0  0  0  0  0  0  0  0  0
   19.2005   17.9552   21.2782 H   0  0  0  0  0  0  0  0  0  0  0  0
   20.9585   18.0084   21.4186 H   0  0  0  0  0  0  0  0  0  0  0  0
   19.9305   19.4968   22.6282 C   0  0  0  0  0  0  0  0  0  0  0  0
   19.0346   20.1260   22.5455 H   0  0  0  0  0  0  0  0  0  0  0  0
   20.7923   20.1745   22.7022 H   0  0  0  0  0  0  0  0  0  0  0  0
   19.8499   18.6222   23.9036 C   0  0  0  0  0  0  0  0  0  0  0  0
   18.9531   17.9897   23.8630 H   0  0  0  0  0  0  0  0  0  0  0  0
   20.7109   17.9408   23.9148 H   0  0  0  0  0  0  0  0  0  0  0  0
   19.8535   19.4355   25.2183 C   0  0  1  0  0  0  0  0  0  0  0  0
   20.7326   20.0873   25.2161 H   0  0  0  0  0  0  0  0  0  0  0  0
   18.5968   20.3130   25.3618 C   0  0  0  0  0  0  0  0  0  0  0  0
   17.6825   19.7092   25.3054 H   0  0  0  0  0  0  0  0  0  0  0  0
   18.5528   21.0781   24.5782 H   0  0  0  0  0  0  0  0  0  0  0  0
   18.5995   20.8367   26.3256 H   0  0  0  0  0  0  0  0  0  0  0  0
   19.9974   18.5340   26.4131 N   0  3  0  0  0  0  0  0  0  0  0  0
   19.2077   17.8877   26.4919 H   0  0  0  0  0  0  0  0  0  0  0  0
   20.8513   17.9713   26.3608 H   0  0  0  0  0  0  0  0  0  0  0  0
   20.0403   19.0710   27.2839 H   0  0  0  0  0  0  0  0  0  0  0  0
  1  2  1  0  0  0  0
  1  3  1  0  0  0  0
  1  4  1  0  0  0  0
  1  5  1  0  0  0  0
  5  6  1  0  0  0  0
  5  7  1  0  0  0  0
  5  8  1  0  0  0  0
  8  9  1  0  0  0  0
  8 10  1  0  0  0  0
  8 11  1  0  0  0  0
 11 12  1  0  0  0  0
 11 13  1  0  0  0  0
 11 14  1  0  0  0  0
 14 15  1  0  0  0  0
 14 16  1  0  0  0  0
 14 17  1  0  0  0  0
 17 18  1  0  0  0  0
 17 19  1  0  0  0  0
 19 20  1  0  0  0  0
 19 21  1  0  0  0  0
 19 22  1  0  0  0  0
 17 23  1  0  0  0  0
 23 24  1  0  0  0  0
 23 25  1  0  0  0  0
 23 26  1  0  0  0  0
M  END
> <VConfSearch Rank>
2

> <Conf_Id>
54

> <Delta U+W>
0.453

> <U+W>
-29.845

> <U>
23.817

> <W>
-53.663

> <W(PB)>
-56.021

> <W(SA)>
2.358

> <Valence>
3.277

> <Coulomb>
19.492

> <VdW>
1.049

> <VdW6>
-6.949

> <VdW12>
7.998

> <Bond>
0.183

> <Angle>
1.152

> <Pdih>
1.942

> <Idih>
0.000

> <Tether>
0.000

$$$$
VeraChem MOL file


 26 25  0  0  0  0  0  0  0  0999 V2000     
   20.0268   18.6007   19.3450 C   0  0  0  0  0  0  0  0  0  0  0  0
   19.6250   17.5851   19.4553 H   0  0  0  0  0  0  0  0  0  0  0  0
   19.1869   19.3059   19.3556 H   0  0  0  0  0  0  0  0  0  0  0  0
   20.4996   18.6682   18.3566 H   0  0  0  0  0  0  0  0  0  0  0  0
   21.0533   18.9164   20.4569 C   0  0  0  0  0  0  0  0  0  0  0  0
   21.4153   19.9482   20.3463 H   0  0  0  0  0  0  0  0  0  0  0  0
   21.9295   18.2676   20.3185 H   0  0  0  0  0  0  0  0  0  0  0  0
   20.5022   18.7034   21.8879 C   0  0  0  0  0  0  0  0  0  0  0  0
   20.1148   17.6795   21.9817 H   0  0  0  0  0  0  0  0  0  0  0  0
   21.3466   18.7925   22.5816 H   0  0  0  0  0  0  0  0  0  0  0  0
   19.4052   19.7238   22.2839 C   0  0  0  0  0  0  0  0  0  0  0  0
   18.6187   19.7265   21.5188 H   0  0  0  0  0  0  0  0  0  0  0  0
   19.8320   20.7362   22.2851 H   0  0  0  0  0  0  0  0  0  0  0  0
   18.7229   19.4501   23.6504 C   0  0  0  0  0  0  0  0  0  0  0  0
   17.9076   20.1787   23.7532 H   0  0  0  0  0  0  0  0  0  0  0  0
   18.2414   18.4633   23.6423 H   0  0  0  0  0  0  0  0  0  0  0  0
   19.6537   19.5733   24.8804 C   0  0  1  0  0  0  0  0  0  0  0  0
   20.3422   20.4068   24.7106 H   0  0  0  0  0  0  0  0  0  0  0  0
   18.8334   19.8772   26.1451 C   0  0  0  0  0  0  0  0  0  0  0  0
   19.4893   19.9807   27.0184 H   0  0  0  0  0  0  0  0  0  0  0  0
   18.1119   19.0768   26.3520 H   0  0  0  0  0  0  0  0  0  0  0  0
   18.2790   20.8175   26.0351 H   0  0  0  0  0  0  0  0  0  0  0  0
   20.4906   18.3431   25.1045 N   0  3  0  0  0  0  0  0  0  0  0  0
   21.0558   18.1187   24.2828 H   0  0  0  0  0  0  0  0  0  0  0  0
   21.1298   18.4649   25.8952 H   0  0  0  0  0  0  0  0  0  0  0  0
   19.9059   17.5281   25.3075 H   0  0  0  0  0  0  0  0  0  0  0  0
  1  2  1  0  0  0  0
  1  3  1  0  0  0  0
  1  4  1  0  0  0  0
  1  5  1  0  0  0  0
  5  6  1  0  0  0  0
  5  7  1  0  0  0  0
  5  8  1  0  0  0  0
  8  9  1  0  0  0  0
  8 10  1  0  0  0  0
  8 11  1  0  0  0  0
 11 12  1  0  0  0  0
 11 13  1  0  0  0  0
 11 14  1  0  0  0  0
 14 15  1  0  0  0  0
 14 16  1  0  0  0  0
 14 17  1  0  0  0  0
 17 18  1  0  0  0  0
 17 19  1  0  0  0  0
 19 20  1  0  0  0  0
 19 21  1  0  0  0  0
 19 22  1  0  0  0  0
 17 23  1  0  0  0  0
 23 24  1  0  0  0  0
 23 25  1  0  0  0  0
 23 26  1  0  0  0  0
M  END
> <VConfSearch Rank>
3

> <Conf_Id>
110

> <Delta U+W>
3.764

> <U+W>
-26.535

> <U>
27.400

> <W>
-53.935

> <W(PB)>
-56.238

> <W(SA)>
2.303

> <Valence>
5.205

> <Coulomb>
21.096

> <VdW>
1.098

> <VdW6>
-8.389

> <VdW12>
9.488

> <Bond>
0.270

> <Angle>
1.912

> <Pdih>
3.023

> <Idih>
0.000

> <Tether>
0.000

$$$$
VeraChem MOL file


 26 25  0  0  0  0  0  0  0  0999 V2000     
   20.6575   18.8943   19.3745 C   0  0  0  0  0  0  0  0  0  0  0  0
   20.7175   19.3627   18.3836 H   0  0  0  0  0  0  0  0  0  0  0  0
   21.6404   19.0018   19.8498 H   0  0  0  0  0  0  0  0  0  0  0  0
   20.4604   17.8243   19.2285 H   0  0  0  0  0  0  0  0  0  0  0  0
   19.5436   19.5546   20.2182 C   0  0  0  0  0  0  0  0  0  0  0  0
   18.6049   19.5293   19.6473 H   0  0  0  0  0  0  0  0  0  0  0  0
   19.7794   20.6165   20.3748 H   0  0  0  0  0  0  0  0  0  0  0  0
   19.3133   18.8635   21.5838 C   0  0  0  0  0  0  0  0  0  0  0  0
   18.4376   19.3218   22.0588 H   0  0  0  0  0  0  0  0  0  0  0  0
   19.0510   17.8093   21.4189 H   0  0  0  0  0  0  0  0  0  0  0  0
   20.5378   18.9494   22.5311 C   0  0  0  0  0  0  0  0  0  0  0  0
   20.8989   19.9848   22.6001 H   0  0  0  0  0  0  0  0  0  0  0  0
   21.3599   18.3697   22.0908 H   0  0  0  0  0  0  0  0  0  0  0  0
   20.2568   18.3874   23.9501 C   0  0  0  0  0  0  0  0  0  0  0  0
   19.4641   17.6285   23.9095 H   0  0  0  0  0  0  0  0  0  0  0  0
   21.1590   17.8590   24.2857 H   0  0  0  0  0  0  0  0  0  0  0  0
   19.9203   19.4570   25.0171 C   0  0  1  0  0  0  0  0  0  0  0  0
   20.7516   20.1674   25.0598 H   0  0  0  0  0  0  0  0  0  0  0  0
   18.6369   20.2407   24.6939 C   0  0  0  0  0  0  0  0  0  0  0  0
   17.7828   19.5660   24.5565 H   0  0  0  0  0  0  0  0  0  0  0  0
   18.7597   20.8386   23.7834 H   0  0  0  0  0  0  0  0  0  0  0  0
   18.3937   20.9366   25.5062 H   0  0  0  0  0  0  0  0  0  0  0  0
   19.8218   18.8411   26.3853 N   0  3  0  0  0  0  0  0  0  0  0  0
   20.6851   18.3544   26.6433 H   0  0  0  0  0  0  0  0  0  0  0  0
   19.6466   19.5501   27.1030 H   0  0  0  0  0  0  0  0  0  0  0  0
   19.0586   18.1611   26.4356 H   0  0  0  0  0  0  0  0  0  0  0  0
  1  2  1  0  0  0  0
  1  3  1  0  0  0  0
  1  4  1  0  0  0  0
  1  5  1  0  0  0  0
  5  6  1  0  0  0  0
  5  7  1  0  0  0  0
  5  8  1  0  0  0  0
  8  9  1  0  0  0  0
  8 10  1  0  0  0  0
  8 11  1  0  0  0  0
 11 12  1  0  0  0  0
 11 13  1  0  0  0  0
 11 14  1  0  0  0  0
 14 15  1  0  0  0  0
 14 16  1  0  0  0  0
 14 17  1  0  0  0  0
 17 18  1  0  0  0  0
 17 19  1  0  0  0  0
 19 20  1  0  0  0  0
 19 21  1  0  0  0  0
 19 22  1  0  0  0  0
 17 23  1  0  0  0  0
 23 24  1  0  0  0  0
 23 25  1  0  0  0  0
 23 26  1  0  0  0  0
M  END
> <VConfSearch Rank>
4

> <Conf_Id>
34

> <Delta U+W>
3.568

> <U+W>
-26.731

> <U>
27.221

> <W>
-53.952

> <W(PB)>
-56.213

> <W(SA)>
2.261

> <Valence>
6.368

> <Coulomb>
19.698

> <VdW>
1.155

> <VdW6>
-8.532

> <VdW12>
9.687

> <Bond>
0.272

> <Angle>
1.847

> <Pdih>
4.248

> <Idih>
0.000

> <Tether>
0.000

$$$$
VeraChem MOL file


 26 25  0  0  0  0  0  0  0  0999 V2000     
   20.3611   18.7665   18.8988 C   0  0  0  0  0  0  0  0  0  0  0  0
   19.6204   19.5098   18.5762 H   0  0  0  0  0  0  0  0  0  0  0  0
   21.3565   19.2250   18.8337 H   0  0  0  0  0  0  0  0  0  0  0  0
   20.3288   17.9290   18.1899 H   0  0  0  0  0  0  0  0  0  0  0  0
   20.0682   18.2779   20.3333 C   0  0  0  0  0  0  0  0  0  0  0  0
   20.8042   17.5118   20.6147 H   0  0  0  0  0  0  0  0  0  0  0  0
   19.0815   17.7944   20.3592 H   0  0  0  0  0  0  0  0  0  0  0  0
   20.1074   19.4385   21.3521 C   0  0  0  0  0  0  0  0  0  0  0  0
   21.0947   19.9199   21.3202 H   0  0  0  0  0  0  0  0  0  0  0  0
   19.3719   20.2027   21.0647 H   0  0  0  0  0  0  0  0  0  0  0  0
   19.8142   18.9535   22.7899 C   0  0  0  0  0  0  0  0  0  0  0  0
   20.5514   18.1892   23.0694 H   0  0  0  0  0  0  0  0  0  0  0  0
   18.8286   18.4703   22.8097 H   0  0  0  0  0  0  0  0  0  0  0  0
   19.8523   20.1238   23.8070 C   0  0  0  0  0  0  0  0  0  0  0  0
   20.8255   20.6277   23.7405 H   0  0  0  0  0  0  0  0  0  0  0  0
   19.1036   20.8754   23.5235 H   0  0  0  0  0  0  0  0  0  0  0  0
   19.6133   19.7157   25.2800 C   0  0  1  0  0  0  0  0  0  0  0  0
   19.6966   20.6232   25.8860 H   0  0  0  0  0  0  0  0  0  0  0  0
   18.2040   19.1383   25.4994 C   0  0  0  0  0  0  0  0  0  0  0  0
   18.0784   18.1718   24.9970 H   0  0  0  0  0  0  0  0  0  0  0  0
   17.4376   19.8256   25.1201 H   0  0  0  0  0  0  0  0  0  0  0  0
   18.0141   18.9865   26.5690 H   0  0  0  0  0  0  0  0  0  0  0  0
   20.6676   18.7738   25.7936 N   0  3  0  0  0  0  0  0  0  0  0  0
   20.5303   18.5641   26.7863 H   0  0  0  0  0  0  0  0  0  0  0  0
   20.6508   17.8852   25.2872 H   0  0  0  0  0  0  0  0  0  0  0  0
   21.6065   19.1695   25.6918 H   0  0  0  0  0  0  0  0  0  0  0  0
  1  2  1  0  0  0  0
  1  3  1  0  0  0  0
  1  4  1  0  0  0  0
  1  5  1  0  0  0  0
  5  6  1  0  0  0  0
  5  7  1  0  0  0  0
  5  8  1  0  0  0  0
  8  9  1  0  0  0  0
  8 10  1  0  0  0  0
  8 11  1  0  0  0  0
 11 12  1  0  0  0  0
 11 13  1  0  0  0  0
 11 14  1  0  0  0  0
 14 15  1  0  0  0  0
 14 16  1  0  0  0  0
 14 17  1  0  0  0  0
 17 18  1  0  0  0  0
 17 19  1  0  0  0  0
 19 20  1  0  0  0  0
 19 21  1  0  0  0  0
 19 22  1  0  0  0  0
 17 23  1  0  0  0  0
 23 24  1  0  0  0  0
 23 25  1  0  0  0  0
 23 26  1  0  0  0  0
M  END
> <VConfSearch Rank>
5

> <Conf_Id>
132

> <Delta U+W>
0.363

> <U+W>
-29.936

> <U>
24.060

> <W>
-53.996

> <W(PB)>
-56.327

> <W(SA)>
2.332

> <Valence>
3.249

> <Coulomb>
19.781

> <VdW>
1.030

> <VdW6>
-7.421

> <VdW12>
8.451

> <Bond>
0.207

> <Angle>
1.205

> <Pdih>
1.837

> <Idih>
0.000

> <Tether>
0.000

$$$$
VeraChem MOL file


 26 25  0  0  0  0  0  0  0  0999 V2000     
   20.5826   18.9539   19.0882 C   0  0  0  0  0  0  0  0  0  0  0  0
   21.5787   19.0701   18.6419 H   0  0  0  0  0  0  0  0  0  0  0  0
   20.1452   18.0256   18.6982 H   0  0  0  0  0  0  0  0  0  0  0  0
   19.9614   19.7933   18.7496 H   0  0  0  0  0  0  0  0  0  0  0  0
   20.6762   18.9196   20.6285 C   0  0  0  0  0  0  0  0  0  0  0  0
   21.1555   19.8443   20.9757 H   0  0  0  0  0  0  0  0  0  0  0  0
   21.3265   18.0884   20.9350 H   0  0  0  0  0  0  0  0  0  0  0  0
   19.2822   18.7608   21.2805 C   0  0  0  0  0  0  0  0  0  0  0  0
   18.6501   19.6204   21.0184 H   0  0  0  0  0  0  0  0  0  0  0  0
   18.7895   17.8757   20.8547 H   0  0  0  0  0  0  0  0  0  0  0  0
   19.3299   18.6007   22.8202 C   0  0  0  0  0  0  0  0  0  0  0  0
   19.9575   17.7361   23.0736 H   0  0  0  0  0  0  0  0  0  0  0  0
   18.3162   18.3601   23.1651 H   0  0  0  0  0  0  0  0  0  0  0  0
   19.8425   19.8690   23.5563 C   0  0  0  0  0  0  0  0  0  0  0  0
   20.8673   20.0918   23.2357 H   0  0  0  0  0  0  0  0  0  0  0  0
   19.2361   20.7338   23.2562 H   0  0  0  0  0  0  0  0  0  0  0  0
   19.8395   19.7709   25.1004 C   0  0  1  0  0  0  0  0  0  0  0  0
   20.2721   20.6999   25.4847 H   0  0  0  0  0  0  0  0  0  0  0  0
   18.4160   19.6522   25.6729 C   0  0  0  0  0  0  0  0  0  0  0  0
   17.9520   18.6932   25.4146 H   0  0  0  0  0  0  0  0  0  0  0  0
   17.7749   20.4581   25.2947 H   0  0  0  0  0  0  0  0  0  0  0  0
   18.4358   19.7295   26.7669 H   0  0  0  0  0  0  0  0  0  0  0  0
   20.7190   18.6609   25.6070 N   0  3  0  0  0  0  0  0  0  0  0  0
   21.6802   18.7589   25.2681 H   0  0  0  0  0  0  0  0  0  0  0  0
   20.7551   18.6495   26.6302 H   0  0  0  0  0  0  0  0  0  0  0  0
   20.3760   17.7468   25.3019 H   0  0  0  0  0  0  0  0  0  0  0  0
  1  2  1  0  0  0  0
  1  3  1  0  0  0  0
  1  4  1  0  0  0  0
  1  5  1  0  0  0  0
  5  6  1  0  0  0  0
  5  7  1  0  0  0  0
  5  8  1  0  0  0  0
  8  9  1  0  0  0  0
  8 10  1  0  0  0  0
  8 11  1  0  0  0  0
 11 12  1  0  0  0  0
 11 13  1  0  0  0  0
 11 14  1  0  0  0  0
 14 15  1  0  0  0  0
 14 16  1  0  0  0  0
 14 17  1  0  0  0  0
 17 18  1  0  0  0  0
 17 19  1  0  0  0  0
 19 20  1  0  0  0  0
 19 21  1  0  0  0  0
 19 22  1  0  0  0  0
 17 23  1  0  0  0  0
 23 24  1  0  0  0  0
 23 25  1  0  0  0  0
 23 26  1  0  0  0  0
M  END
> <VConfSearch Rank>
6

> <Conf_Id>
46

> <Delta U+W>
1.114

> <U+W>
-29.185

> <U>
24.990

> <W>
-54.175

> <W(PB)>
-56.455

> <W(SA)>
2.279

> <Valence>
3.862

> <Coulomb>
19.956

> <VdW>
1.172

> <VdW6>
-8.054

> <VdW12>
9.226

> <Bond>
0.258

> <Angle>
1.499

> <Pdih>
2.106

> <Idih>
0.000

> <Tether>
0.000

$$$$
VeraChem MOL file


 26 25  0  0  0  0  0  0  0  0999 V2000     
   20.1155   18.5739   19.3461 C   0  0  0  0  0  0  0  0  0  0  0  0
   19.6140   17.6489   19.6561 H   0  0  0  0  0  0  0  0  0  0  0  0
   19.3471   19.3017   19.0548 H   0  0  0  0  0  0  0  0  0  0  0  0
   20.7125   18.3416   18.4546 H   0  0  0  0  0  0  0  0  0  0  0  0
   21.0172   19.1363   20.4685 C   0  0  0  0  0  0  0  0  0  0  0  0
   21.5918   19.9832   20.0680 H   0  0  0  0  0  0  0  0  0  0  0  0
   21.7549   18.3778   20.7653 H   0  0  0  0  0  0  0  0  0  0  0  0
   20.2293   19.6161   21.7115 C   0  0  0  0  0  0  0  0  0  0  0  0
   20.9351   20.1126   22.3901 H   0  0  0  0  0  0  0  0  0  0  0  0
   19.5003   20.3808   21.4099 H   0  0  0  0  0  0  0  0  0  0  0  0
   19.5040   18.4699   22.4615 C   0  0  0  0  0  0  0  0  0  0  0  0
   20.2262   17.6906   22.7386 H   0  0  0  0  0  0  0  0  0  0  0  0
   18.7832   17.9900   21.7870 H   0  0  0  0  0  0  0  0  0  0  0  0
   18.7344   18.9527   23.7181 C   0  0  0  0  0  0  0  0  0  0  0  0
   17.9584   19.6638   23.4049 H   0  0  0  0  0  0  0  0  0  0  0  0
   18.2057   18.0989   24.1624 H   0  0  0  0  0  0  0  0  0  0  0  0
   19.6222   19.6178   24.7941 C   0  0  1  0  0  0  0  0  0  0  0  0
   20.1219   20.4808   24.3446 H   0  0  0  0  0  0  0  0  0  0  0  0
   18.7596   20.1207   25.9626 C   0  0  0  0  0  0  0  0  0  0  0  0
   19.3790   20.6295   26.7115 H   0  0  0  0  0  0  0  0  0  0  0  0
   18.2376   19.2918   26.4568 H   0  0  0  0  0  0  0  0  0  0  0  0
   18.0069   20.8373   25.6109 H   0  0  0  0  0  0  0  0  0  0  0  0
   20.7057   18.7007   25.2916 N   0  3  0  0  0  0  0  0  0  0  0  0
   21.3101   18.3904   24.5261 H   0  0  0  0  0  0  0  0  0  0  0  0
   21.3002   19.1639   25.9846 H   0  0  0  0  0  0  0  0  0  0  0  0
   20.3134   17.8651   25.7334 H   0  0  0  0  0  0  0  0  0  0  0  0
  1  2  1  0  0  0  0
  1  3  1  0  0  0  0
  1  4  1  0  0  0  0
  1  5  1  0  0  0  0
  5  6  1  0  0  0  0
  5  7  1  0  0  0  0
  5  8  1  0  0  0  0
  8  9  1  0  0  0  0
  8 10  1  0  0  0  0
  8 11  1  0  0  0  0
 11 12  1  0  0  0  0
 11 13  1  0  0  0  0
 11 14  1  0  0  0  0
 14 15  1  0  0  0  0
 14 16  1  0  0  0  0
 14 17  1  0  0  0  0
 17 18  1  0  0  0  0
 17 19  1  0  0  0  0
 19 20  1  0  0  0  0
 19 21  1  0  0  0  0
 19 22  1  0  0  0  0
 17 23  1  0  0  0  0
 23 24  1  0  0  0  0
 23 25  1  0  0  0  0
 23 26  1  0  0  0  0
M  END
> <VConfSearch Rank>
7

> <Conf_Id>
113

> <Delta U+W>
1.137

> <U+W>
-29.162

> <U>
24.833

> <W>
-53.995

> <W(PB)>
-56.288

> <W(SA)>
2.294

> <Valence>
3.589

> <Coulomb>
20.270

> <VdW>
0.974

> <VdW6>
-8.255

> <VdW12>
9.229

> <Bond>
0.244

> <Angle>
1.377

> <Pdih>
1.967

> <Idih>
0.000

> <Tether>
0.000

$$$$
VeraChem MOL file


 26 25  0  0  0  0  0  0  0  0999 V2000     
   20.2881   19.1207   19.0370 C   0  0  0  0  0  0  0  0  0  0  0  0
   19.9360   19.9124   18.3630 H   0  0  0  0  0  0  0  0  0  0  0  0
   21.3851   19.1057   18.9953 H   0  0  0  0  0  0  0  0  0  0  0  0
   19.9181   18.1616   18.6518 H   0  0  0  0  0  0  0  0  0  0  0  0
   19.7915   19.3700   20.4769 C   0  0  0  0  0  0  0  0  0  0  0  0
   18.6932   19.4089   20.4815 H   0  0  0  0  0  0  0  0  0  0  0  0
   20.1469   20.3539   20.8103 H   0  0  0  0  0  0  0  0  0  0  0  0
   20.2796   18.2681   21.4469 C   0  0  0  0  0  0  0  0  0  0  0  0
   19.9821   17.2873   21.0507 H   0  0  0  0  0  0  0  0  0  0  0  0
   21.3777   18.2653   21.4821 H   0  0  0  0  0  0  0  0  0  0  0  0
   19.7137   18.4093   22.8814 C   0  0  0  0  0  0  0  0  0  0  0  0
   20.0159   17.5241   23.4560 H   0  0  0  0  0  0  0  0  0  0  0  0
   18.6167   18.3910   22.8372 H   0  0  0  0  0  0  0  0  0  0  0  0
   20.1984   19.6922   23.6107 C   0  0  0  0  0  0  0  0  0  0  0  0
   21.2931   19.7501   23.5514 H   0  0  0  0  0  0  0  0  0  0  0  0
   19.8187   20.5797   23.0893 H   0  0  0  0  0  0  0  0  0  0  0  0
   19.7827   19.7901   25.0977 C   0  0  1  0  0  0  0  0  0  0  0  0
   20.1927   20.7265   25.4886 H   0  0  0  0  0  0  0  0  0  0  0  0
   18.2543   19.8445   25.2675 C   0  0  0  0  0  0  0  0  0  0  0  0
   17.7807   18.8980   24.9807 H   0  0  0  0  0  0  0  0  0  0  0  0
   17.8222   20.6452   24.6546 H   0  0  0  0  0  0  0  0  0  0  0  0
   17.9915   20.0473   26.3129 H   0  0  0  0  0  0  0  0  0  0  0  0
   20.3797   18.6931   25.9360 N   0  3  0  0  0  0  0  0  0  0  0  0
   21.4008   18.6772   25.8619 H   0  0  0  0  0  0  0  0  0  0  0  0
   20.1470   18.8103   26.9262 H   0  0  0  0  0  0  0  0  0  0  0  0
   20.0353   17.7744   25.6470 H   0  0  0  0  0  0  0  0  0  0  0  0
  1  2  1  0  0  0  0
  1  3  1  0  0  0  0
  1  4  1  0  0  0  0
  1  5  1  0  0  0  0
  5  6  1  0  0  0  0
  5  7  1  0  0  0  0
  5  8  1  0  0  0  0
  8  9  1  0  0  0  0
  8 10  1  0  0  0  0
  8 11  1  0  0  0  0
 11 12  1  0  0  0  0
 11 13  1  0  0  0  0
 11 14  1  0  0  0  0
 14 15  1  0  0  0  0
 14 16  1  0  0  0  0
 14 17  1  0  0  0  0
 17 18  1  0  0  0  0
 17 19  1  0  0  0  0
 19 20  1  0  0  0  0
 19 21  1  0  0  0  0
 19 22  1  0  0  0  0
 17 23  1  0  0  0  0
 23 24  1  0  0  0  0
 23 25  1  0  0  0  0
 23 26  1  0  0  0  0
M  END
> <VConfSearch Rank>
8

> <Conf_Id>
45

> <Delta U+W>
1.035

> <U+W>
-29.264

> <U>
24.725

> <W>
-53.989

> <W(PB)>
-56.298

> <W(SA)>
2.309

> <Valence>
3.780

> <Coulomb>
19.804

> <VdW>
1.141

> <VdW6>
-8.104

> <VdW12>
9.246

> <Bond>
0.254

> <Angle>
1.437

> <Pdih>
2.089

> <Idih>
0.000

> <Tether>
0.000

$$$$
VeraChem MOL file


 26 25  0  0  0  0  0  0  0  0999 V2000     
   19.8816   18.9334   18.9777 C   0  0  0  0  0  0  0  0  0  0  0  0
   19.4713   19.7087   18.3177 H   0  0  0  0  0  0  0  0  0  0  0  0
   20.8781   18.6653   18.6031 H   0  0  0  0  0  0  0  0  0  0  0  0
   19.2371   18.0481   18.8990 H   0  0  0  0  0  0  0  0  0  0  0  0
   19.9531   19.4395   20.4341 C   0  0  0  0  0  0  0  0  0  0  0  0
   18.9464   19.7359   20.7566 H   0  0  0  0  0  0  0  0  0  0  0  0
   20.5802   20.3410   20.4756 H   0  0  0  0  0  0  0  0  0  0  0  0
   20.5247   18.3607   21.3846 C   0  0  0  0  0  0  0  0  0  0  0  0
   19.8663   17.4810   21.3857 H   0  0  0  0  0  0  0  0  0  0  0  0
   21.4930   18.0195   20.9930 H   0  0  0  0  0  0  0  0  0  0  0  0
   20.7321   18.8566   22.8371 C   0  0  0  0  0  0  0  0  0  0  0  0
   21.3921   19.7351   22.8343 H   0  0  0  0  0  0  0  0  0  0  0  0
   21.2646   18.0718   23.3900 H   0  0  0  0  0  0  0  0  0  0  0  0
   19.4089   19.1992   23.5693 C   0  0  0  0  0  0  0  0  0  0  0  0
   18.8912   20.0001   23.0273 H   0  0  0  0  0  0  0  0  0  0  0  0
   18.7408   18.3278   23.5569 H   0  0  0  0  0  0  0  0  0  0  0  0
   19.6294   19.6630   25.0258 C   0  0  1  0  0  0  0  0  0  0  0  0
   20.3253   20.5076   25.0150 H   0  0  0  0  0  0  0  0  0  0  0  0
   18.3036   20.1387   25.6415 C   0  0  0  0  0  0  0  0  0  0  0  0
   17.5676   19.3256   25.6761 H   0  0  0  0  0  0  0  0  0  0  0  0
   17.8753   20.9625   25.0571 H   0  0  0  0  0  0  0  0  0  0  0  0
   18.4590   20.5028   26.6645 H   0  0  0  0  0  0  0  0  0  0  0  0
   20.2547   18.5970   25.8840 N   0  3  0  0  0  0  0  0  0  0  0  0
   21.1621   18.3024   25.5137 H   0  0  0  0  0  0  0  0  0  0  0  0
   20.4081   18.9290   26.8403 H   0  0  0  0  0  0  0  0  0  0  0  0
   19.6598   17.7662   25.9400 H   0  0  0  0  0  0  0  0  0  0  0  0
  1  2  1  0  0  0  0
  1  3  1  0  0  0  0
  1  4  1  0  0  0  0
  1  5  1  0  0  0  0
  5  6  1  0  0  0  0
  5  7  1  0  0  0  0
  5  8  1  0  0  0  0
  8  9  1  0  0  0  0
  8 10  1  0  0  0  0
  8 11  1  0  0  0  0
 11 12  1  0  0  0  0
 11 13  1  0  0  0  0
 11 14  1  0  0  0  0
 14 15  1  0  0  0  0
 14 16  1  0  0  0  0
 14 17  1  0  0  0  0
 17 18  1  0  0  0  0
 17 19  1  0  0  0  0
 19 20  1  0  0  0  0
 19 21  1  0  0  0  0
 19 22  1  0  0  0  0
 17 23  1  0  0  0  0
 23 24  1  0  0  0  0
 23 25  1  0  0  0  0
 23 26  1  0  0  0  0
M  END
> <VConfSearch Rank>
9

> <Conf_Id>
121

> <Delta U+W>
0.736

> <U+W>
-29.562

> <U>
24.282

> <W>
-53.844

> <W(PB)>
-56.205

> <W(SA)>
2.361

> <Valence>
3.311

> <Coulomb>
19.887

> <VdW>
1.083

> <VdW6>
-7.444

> <VdW12>
8.527

> <Bond>
0.219

> <Angle>
1.167

> <Pdih>
1.926

> <Idih>
0.000

> <Tether>
0.000

$$$$
VeraChem MOL file


 26 25  0  0  0  0  0  0  0  0999 V2000     
   20.0609   18.6168   19.3310 C   0  0  0  0  0  0  0  0  0  0  0  0
   20.0511   18.9963   18.3010 H   0  0  0  0  0  0  0  0  0  0  0  0
   20.8098   17.8161   19.3863 H   0  0  0  0  0  0  0  0  0  0  0  0
   19.0745   18.1803   19.5299 H   0  0  0  0  0  0  0  0  0  0  0  0
   20.3902   19.7554   20.3231 C   0  0  0  0  0  0  0  0  0  0  0  0
   19.6092   20.5270   20.2734 H   0  0  0  0  0  0  0  0  0  0  0  0
   21.3229   20.2417   20.0046 H   0  0  0  0  0  0  0  0  0  0  0  0
   20.5574   19.2726   21.7842 C   0  0  0  0  0  0  0  0  0  0  0  0
   21.3448   18.5077   21.8296 H   0  0  0  0  0  0  0  0  0  0  0  0
   20.9143   20.1207   22.3831 H   0  0  0  0  0  0  0  0  0  0  0  0
   19.2501   18.7150   22.4024 C   0  0  0  0  0  0  0  0  0  0  0  0
   18.9023   17.8576   21.8118 H   0  0  0  0  0  0  0  0  0  0  0  0
   18.4552   19.4694   22.3362 H   0  0  0  0  0  0  0  0  0  0  0  0
   19.4195   18.2458   23.8709 C   0  0  0  0  0  0  0  0  0  0  0  0
   18.4633   17.8401   24.2273 H   0  0  0  0  0  0  0  0  0  0  0  0
   20.1296   17.4085   23.8869 H   0  0  0  0  0  0  0  0  0  0  0  0
   19.9108   19.3310   24.8582 C   0  0  1  0  0  0  0  0  0  0  0  0
   20.8689   19.7175   24.4987 H   0  0  0  0  0  0  0  0  0  0  0  0
   18.9220   20.5054   24.9668 C   0  0  0  0  0  0  0  0  0  0  0  0
   17.9262   20.1590   25.2703 H   0  0  0  0  0  0  0  0  0  0  0  0
   18.8259   21.0339   24.0112 H   0  0  0  0  0  0  0  0  0  0  0  0
   19.2690   21.2357   25.7081 H   0  0  0  0  0  0  0  0  0  0  0  0
   20.1772   18.7460   26.2174 N   0  3  0  0  0  0  0  0  0  0  0  0
   20.8659   17.9894   26.1744 H   0  0  0  0  0  0  0  0  0  0  0  0
   20.5408   19.4518   26.8640 H   0  0  0  0  0  0  0  0  0  0  0  0
   19.3245   18.3620   26.6333 H   0  0  0  0  0  0  0  0  0  0  0  0
  1  2  1  0  0  0  0
  1  3  1  0  0  0  0
  1  4  1  0  0  0  0
  1  5  1  0  0  0  0
  5  6  1  0  0  0  0
  5  7  1  0  0  0  0
  5  8  1  0  0  0  0
  8  9  1  0  0  0  0
  8 10  1  0  0  0  0
  8 11  1  0  0  0  0
 11 12  1  0  0  0  0
 11 13  1  0  0  0  0
 11 14  1  0  0  0  0
 14 15  1  0  0  0  0
 14 16  1  0  0  0  0
 14 17  1  0  0  0  0
 17 18  1  0  0  0  0
 17 19  1  0  0  0  0
 19 20  1  0  0  0  0
 19 21  1  0  0  0  0
 19 22  1  0  0  0  0
 17 23  1  0  0  0  0
 23 24  1  0  0  0  0
 23 25  1  0  0  0  0
 23 26  1  0  0  0  0
M  END
> <VConfSearch Rank>
10

> <Conf_Id>
5

> <Delta U+W>
1.233

> <U+W>
-29.065

> <U>
25.023

> <W>
-54.088

> <W(PB)>
-56.383

> <W(SA)>
2.296

> <Valence>
4.083

> <Coulomb>
19.893

> <VdW>
1.047

> <VdW6>
-8.479

> <VdW12>
9.527

> <Bond>
0.256

> <Angle>
1.716

> <Pdih>
2.112

> <Idih>
0.000

> <Tether>
0.000

$$$$
VeraChem MOL file


 26 25  0  0  0  0  0  0  0  0999 V2000     
   20.0276   18.5896   19.3315 C   0  0  0  0  0  0  0  0  0  0  0  0
   20.4565   18.7625   18.3360 H   0  0  0  0  0  0  0  0  0  0  0  0
   20.3662   17.6021   19.6681 H   0  0  0  0  0  0  0  0  0  0  0  0
   18.9353   18.5617   19.2256 H   0  0  0  0  0  0  0  0  0  0  0  0
   20.4633   19.7055   20.3084 C   0  0  0  0  0  0  0  0  0  0  0  0
   20.2152   20.6792   19.8631 H   0  0  0  0  0  0  0  0  0  0  0  0
   21.5560   19.6906   20.4244 H   0  0  0  0  0  0  0  0  0  0  0  0
   19.7870   19.6102   21.6975 C   0  0  0  0  0  0  0  0  0  0  0  0
   20.0487   20.5145   22.2619 H   0  0  0  0  0  0  0  0  0  0  0  0
   18.6952   19.6203   21.5750 H   0  0  0  0  0  0  0  0  0  0  0  0
   20.2132   18.3598   22.5068 C   0  0  0  0  0  0  0  0  0  0  0  0
   21.3025   18.3714   22.6505 H   0  0  0  0  0  0  0  0  0  0  0  0
   19.9886   17.4542   21.9290 H   0  0  0  0  0  0  0  0  0  0  0  0
   19.5153   18.2313   23.8847 C   0  0  0  0  0  0  0  0  0  0  0  0
   18.4301   18.1316   23.7485 H   0  0  0  0  0  0  0  0  0  0  0  0
   19.8442   17.2841   24.3324 H   0  0  0  0  0  0  0  0  0  0  0  0
   19.8346   19.3919   24.8583 C   0  0  1  0  0  0  0  0  0  0  0  0
   20.7302   19.9054   24.4951 H   0  0  0  0  0  0  0  0  0  0  0  0
   18.6784   20.4062   24.9291 C   0  0  0  0  0  0  0  0  0  0  0  0
   17.7725   19.9440   25.3408 H   0  0  0  0  0  0  0  0  0  0  0  0
   18.4321   20.8050   23.9387 H   0  0  0  0  0  0  0  0  0  0  0  0
   18.9474   21.2545   25.5705 H   0  0  0  0  0  0  0  0  0  0  0  0
   20.1686   18.8935   26.2377 N   0  3  0  0  0  0  0  0  0  0  0  0
   20.9671   18.2523   26.2234 H   0  0  0  0  0  0  0  0  0  0  0  0
   20.4097   19.6651   26.8661 H   0  0  0  0  0  0  0  0  0  0  0  0
   19.3796   18.3938   26.6566 H   0  0  0  0  0  0  0  0  0  0  0  0
  1  2  1  0  0  0  0
  1  3  1  0  0  0  0
  1  4  1  0  0  0  0
  1  5  1  0  0  0  0
  5  6  1  0  0  0  0
  5  7  1  0  0  0  0
  5  8  1  0  0  0  0
  8  9  1  0  0  0  0
  8 10  1  0  0  0  0
  8 11  1  0  0  0  0
 11 12  1  0  0  0  0
 11 13  1  0  0  0  0
 11 14  1  0  0  0  0
 14 15  1  0  0  0  0
 14 16  1  0  0  0  0
 14 17  1  0  0  0  0
 17 18  1  0  0  0  0
 17 19  1  0  0  0  0
 19 20  1  0  0  0  0
 19 21  1  0  0  0  0
 19 22  1  0  0  0  0
 17 23  1  0  0  0  0
 23 24  1  0  0  0  0
 23 25  1  0  0  0  0
 23 26  1  0  0  0  0
M  END
> <VConfSearch Rank>
11

> <Conf_Id>
100

> <Delta U+W>
3.818

> <U+W>
-26.481

> <U>
27.496

> <W>
-53.977

> <W(PB)>
-56.267

> <W(SA)>
2.290

> <Valence>
6.472

> <Coulomb>
19.839

> <VdW>
1.185

> <VdW6>
-8.405

> <VdW12>
9.590

> <Bond>
0.248

> <Angle>
1.619

> <Pdih>
4.604

> <Idih>
0.000

> <Tether>
0.000

$$$$
VeraChem MOL file


 26 25  0  0  0  0  0  0  0  0999 V2000     
   19.5279   18.4521   19.2494 C   0  0  0  0  0  0  0  0  0  0  0  0
   19.9866   17.8424   18.4602 H   0  0  0  0  0  0  0  0  0  0  0  0
   18.5631   17.9970   19.5089 H   0  0  0  0  0  0  0  0  0  0  0  0
   19.3347   19.4501   18.8348 H   0  0  0  0  0  0  0  0  0  0  0  0
   20.4528   18.5331   20.4823 C   0  0  0  0  0  0  0  0  0  0  0  0
   21.4209   18.9597   20.1842 H   0  0  0  0  0  0  0  0  0  0  0  0
   20.6543   17.5186   20.8537 H   0  0  0  0  0  0  0  0  0  0  0  0
   19.8306   19.3869   21.6093 C   0  0  0  0  0  0  0  0  0  0  0  0
   19.6314   20.3989   21.2303 H   0  0  0  0  0  0  0  0  0  0  0  0
   18.8598   18.9610   21.8885 H   0  0  0  0  0  0  0  0  0  0  0  0
   20.7612   19.4741   22.8439 C   0  0  0  0  0  0  0  0  0  0  0  0
   21.7095   19.9269   22.5226 H   0  0  0  0  0  0  0  0  0  0  0  0
   21.0146   18.4672   23.1999 H   0  0  0  0  0  0  0  0  0  0  0  0
   20.1790   20.3342   24.0005 C   0  0  0  0  0  0  0  0  0  0  0  0
   21.0075   20.8709   24.4811 H   0  0  0  0  0  0  0  0  0  0  0  0
   19.5267   21.1174   23.5922 H   0  0  0  0  0  0  0  0  0  0  0  0
   19.4222   19.5618   25.1097 C   0  0  1  0  0  0  0  0  0  0  0  0
   19.0700   20.3034   25.8334 H   0  0  0  0  0  0  0  0  0  0  0  0
   18.1890   18.8108   24.5823 C   0  0  0  0  0  0  0  0  0  0  0  0
   18.4752   17.9668   23.9436 H   0  0  0  0  0  0  0  0  0  0  0  0
   17.5400   19.4816   24.0059 H   0  0  0  0  0  0  0  0  0  0  0  0
   17.5981   18.4123   25.4161 H   0  0  0  0  0  0  0  0  0  0  0  0
   20.3254   18.6349   25.8766 N   0  3  0  0  0  0  0  0  0  0  0  0
   21.1223   19.1354   26.2801 H   0  0  0  0  0  0  0  0  0  0  0  0
   19.8276   18.1813   26.6479 H   0  0  0  0  0  0  0  0  0  0  0  0
   20.6983   17.8960   25.2757 H   0  0  0  0  0  0  0  0  0  0  0  0
  1  2  1  0  0  0  0
  1  3  1  0  0  0  0
  1  4  1  0  0  0  0
  1  5  1  0  0  0  0
  5  6  1  0  0  0  0
  5  7  1  0  0  0  0
  5  8  1  0  0  0  0
  8  9  1  0  0  0  0
  8 10  1  0  0  0  0
  8 11  1  0  0  0  0
 11 12  1  0  0  0  0
 11 13  1  0  0  0  0
 11 14  1  0  0  0  0
 14 15  1  0  0  0  0
 14 16  1  0  0  0  0
 14 17  1  0  0  0  0
 17 18  1  0  0  0  0
 17 19  1  0  0  0  0
 19 20  1  0  0  0  0
 19 21  1  0  0  0  0
 19 22  1  0  0  0  0
 17 23  1  0  0  0  0
 23 24  1  0  0  0  0
 23 25  1  0  0  0  0
 23 26  1  0  0  0  0
M  END
> <VConfSearch Rank>
12

> <Conf_Id>
142

> <Delta U+W>
2.978

> <U+W>
-27.320

> <U>
26.848

> <W>
-54.168

> <W(PB)>
-56.427

> <W(SA)>
2.259

> <Valence>
5.823

> <Coulomb>
20.057

> <VdW>
0.968

> <VdW6>
-8.367

> <VdW12>
9.335

> <Bond>
0.267

> <Angle>
1.799

> <Pdih>
3.758

> <Idih>
0.000

> <Tether>
0.000

$$$$
VeraChem MOL file


 26 25  0  0  0  0  0  0  0  0999 V2000     
   20.4401   19.0355   19.4807 C   0  0  0  0  0  0  0  0  0  0  0  0
   21.5266   19.1528   19.5843 H   0  0  0  0  0  0  0  0  0  0  0  0
   20.2422   18.6106   18.4881 H   0  0  0  0  0  0  0  0  0  0  0  0
   19.9822   20.0318   19.5082 H   0  0  0  0  0  0  0  0  0  0  0  0
   19.8724   18.1147   20.5849 C   0  0  0  0  0  0  0  0  0  0  0  0
   20.2637   17.0995   20.4299 H   0  0  0  0  0  0  0  0  0  0  0  0
   18.7806   18.0416   20.4822 H   0  0  0  0  0  0  0  0  0  0  0  0
   20.2355   18.5704   22.0192 C   0  0  0  0  0  0  0  0  0  0  0  0
   19.9245   17.7750   22.7062 H   0  0  0  0  0  0  0  0  0  0  0  0
   21.3267   18.6624   22.1088 H   0  0  0  0  0  0  0  0  0  0  0  0
   19.5572   19.9006   22.4336 C   0  0  0  0  0  0  0  0  0  0  0  0
   18.4658   19.7832   22.4042 H   0  0  0  0  0  0  0  0  0  0  0  0
   19.7923   20.6714   21.6891 H   0  0  0  0  0  0  0  0  0  0  0  0
   19.9978   20.4505   23.8200 C   0  0  0  0  0  0  0  0  0  0  0  0
   21.0717   20.6770   23.7953 H   0  0  0  0  0  0  0  0  0  0  0  0
   19.5007   21.4185   23.9661 H   0  0  0  0  0  0  0  0  0  0  0  0
   19.6956   19.5806   25.0671 C   0  0  1  0  0  0  0  0  0  0  0  0
   19.8546   20.2193   25.9415 H   0  0  0  0  0  0  0  0  0  0  0  0
   18.2342   19.1009   25.1112 C   0  0  0  0  0  0  0  0  0  0  0  0
   18.0205   18.3788   24.3141 H   0  0  0  0  0  0  0  0  0  0  0  0
   17.5443   19.9470   25.0035 H   0  0  0  0  0  0  0  0  0  0  0  0
   18.0181   18.6152   26.0706 H   0  0  0  0  0  0  0  0  0  0  0  0
   20.6552   18.4348   25.2373 N   0  3  0  0  0  0  0  0  0  0  0  0
   21.6246   18.7618   25.2807 H   0  0  0  0  0  0  0  0  0  0  0  0
   20.4693   17.9176   26.1012 H   0  0  0  0  0  0  0  0  0  0  0  0
   20.5877   17.7733   24.4615 H   0  0  0  0  0  0  0  0  0  0  0  0
  1  2  1  0  0  0  0
  1  3  1  0  0  0  0
  1  4  1  0  0  0  0
  1  5  1  0  0  0  0
  5  6  1  0  0  0  0
  5  7  1  0  0  0  0
  5  8  1  0  0  0  0
  8  9  1  0  0  0  0
  8 10  1  0  0  0  0
  8 11  1  0  0  0  0
 11 12  1  0  0  0  0
 11 13  1  0  0  0  0
 11 14  1  0  0  0  0
 14 15  1  0  0  0  0
 14 16  1  0  0  0  0
 14 17  1  0  0  0  0
 17 18  1  0  0  0  0
 17 19  1  0  0  0  0
 19 20  1  0  0  0  0
 19 21  1  0  0  0  0
 19 22  1  0  0  0  0
 17 23  1  0  0  0  0
 23 24  1  0  0  0  0
 23 25  1  0  0  0  0
 23 26  1  0  0  0  0
M  END
> <VConfSearch Rank>
13

> <Conf_Id>
119

> <Delta U+W>
3.538

> <U+W>
-26.761

> <U>
27.482

> <W>
-54.243

> <W(PB)>
-56.494

> <W(SA)>
2.251

> <Valence>
5.284

> <Coulomb>
21.247

> <VdW>
0.951

> <VdW6>
-9.416

> <VdW12>
10.367

> <Bond>
0.323

> <Angle>
2.522

> <Pdih>
2.439

> <Idih>
0.000

> <Tether>
0.000

$$$$
VeraChem MOL file


 26 25  0  0  0  0  0  0  0  0999 V2000     
   20.7588   18.6697   19.5612 C   0  0  0  0  0  0  0  0  0  0  0  0
   20.6976   19.6905   19.1622 H   0  0  0  0  0  0  0  0  0  0  0  0
   21.6963   18.5752   20.1232 H   0  0  0  0  0  0  0  0  0  0  0  0
   20.8140   17.9793   18.7097 H   0  0  0  0  0  0  0  0  0  0  0  0
   19.5325   18.3432   20.4434 C   0  0  0  0  0  0  0  0  0  0  0  0
   19.6331   17.3293   20.8550 H   0  0  0  0  0  0  0  0  0  0  0  0
   18.6345   18.3299   19.8100 H   0  0  0  0  0  0  0  0  0  0  0  0
   19.3133   19.3553   21.5938 C   0  0  0  0  0  0  0  0  0  0  0  0
   19.1868   20.3625   21.1736 H   0  0  0  0  0  0  0  0  0  0  0  0
   18.3657   19.1122   22.0887 H   0  0  0  0  0  0  0  0  0  0  0  0
   20.4662   19.3677   22.6306 C   0  0  0  0  0  0  0  0  0  0  0  0
   21.3759   19.7283   22.1328 H   0  0  0  0  0  0  0  0  0  0  0  0
   20.6882   18.3453   22.9624 H   0  0  0  0  0  0  0  0  0  0  0  0
   20.1896   20.2921   23.8493 C   0  0  0  0  0  0  0  0  0  0  0  0
   21.1343   20.7692   24.1417 H   0  0  0  0  0  0  0  0  0  0  0  0
   19.5302   21.1176   23.5502 H   0  0  0  0  0  0  0  0  0  0  0  0
   19.6100   19.6008   25.1086 C   0  0  1  0  0  0  0  0  0  0  0  0
   19.4648   20.3791   25.8642 H   0  0  0  0  0  0  0  0  0  0  0  0
   18.2437   18.9434   24.8549 C   0  0  0  0  0  0  0  0  0  0  0  0
   18.3315   18.0789   24.1861 H   0  0  0  0  0  0  0  0  0  0  0  0
   17.5427   19.6601   24.4096 H   0  0  0  0  0  0  0  0  0  0  0  0
   17.8062   18.5932   25.7978 H   0  0  0  0  0  0  0  0  0  0  0  0
   20.5738   18.6158   25.7122 N   0  3  0  0  0  0  0  0  0  0  0  0
   21.4703   19.0567   25.9366 H   0  0  0  0  0  0  0  0  0  0  0  0
   20.2050   18.2154   26.5794 H   0  0  0  0  0  0  0  0  0  0  0  0
   20.7636   17.8405   25.0728 H   0  0  0  0  0  0  0  0  0  0  0  0
  1  2  1  0  0  0  0
  1  3  1  0  0  0  0
  1  4  1  0  0  0  0
  1  5  1  0  0  0  0
  5  6  1  0  0  0  0
  5  7  1  0  0  0  0
  5  8  1  0  0  0  0
  8  9  1  0  0  0  0
  8 10  1  0  0  0  0
  8 11  1  0  0  0  0
 11 12  1  0  0  0  0
 11 13  1  0  0  0  0
 11 14  1  0  0  0  0
 14 15  1  0  0  0  0
 14 16  1  0  0  0  0
 14 17  1  0  0  0  0
 17 18  1  0  0  0  0
 17 19  1  0  0  0  0
 19 20  1  0  0  0  0
 19 21  1  0  0  0  0
 19 22  1  0  0  0  0
 17 23  1  0  0  0  0
 23 24  1  0  0  0  0
 23 25  1  0  0  0  0
 23 26  1  0  0  0  0
M  END
> <VConfSearch Rank>
14

> <Conf_Id>
127

> <Delta U+W>
3.544

> <U+W>
-26.754

> <U>
27.509

> <W>
-54.263

> <W(PB)>
-56.496

> <W(SA)>
2.232

> <Valence>
6.375

> <Coulomb>
20.014

> <VdW>
1.120

> <VdW6>
-8.976

> <VdW12>
10.096

> <Bond>
0.304

> <Angle>
1.986

> <Pdih>
4.086

> <Idih>
0.000

> <Tether>
0.000

$$$$
VeraChem MOL file


 26 25  0  0  0  0  0  0  0  0999 V2000     
   20.6428   19.9244   19.9617 C   0  0  0  0  0  0  0  0  0  0  0  0
   21.5659   20.0488   19.3809 H   0  0  0  0  0  0  0  0  0  0  0  0
   19.8005   20.1829   19.3068 H   0  0  0  0  0  0  0  0  0  0  0  0
   20.6664   20.6501   20.7820 H   0  0  0  0  0  0  0  0  0  0  0  0
   20.5174   18.4702   20.4729 C   0  0  0  0  0  0  0  0  0  0  0  0
   21.4011   18.1957   21.0655 H   0  0  0  0  0  0  0  0  0  0  0  0
   20.5211   17.8033   19.5994 H   0  0  0  0  0  0  0  0  0  0  0  0
   19.2217   18.2133   21.2849 C   0  0  0  0  0  0  0  0  0  0  0  0
   18.4214   18.8860   20.9471 H   0  0  0  0  0  0  0  0  0  0  0  0
   18.8703   17.1980   21.0544 H   0  0  0  0  0  0  0  0  0  0  0  0
   19.3861   18.3108   22.8238 C   0  0  0  0  0  0  0  0  0  0  0  0
   20.1128   17.5568   23.1542 H   0  0  0  0  0  0  0  0  0  0  0  0
   18.4269   18.0341   23.2793 H   0  0  0  0  0  0  0  0  0  0  0  0
   19.8184   19.7135   23.3282 C   0  0  0  0  0  0  0  0  0  0  0  0
   20.8213   19.9399   22.9468 H   0  0  0  0  0  0  0  0  0  0  0  0
   19.1486   20.4756   22.9088 H   0  0  0  0  0  0  0  0  0  0  0  0
   19.8531   19.8709   24.8670 C   0  0  1  0  0  0  0  0  0  0  0  0
   20.2454   20.8700   25.0812 H   0  0  0  0  0  0  0  0  0  0  0  0
   18.4498   19.7825   25.4926 C   0  0  0  0  0  0  0  0  0  0  0  0
   17.7609   20.4841   25.0062 H   0  0  0  0  0  0  0  0  0  0  0  0
   18.4890   20.0406   26.5579 H   0  0  0  0  0  0  0  0  0  0  0  0
   18.0290   18.7737   25.4092 H   0  0  0  0  0  0  0  0  0  0  0  0
   20.7986   18.9024   25.5229 N   0  3  0  0  0  0  0  0  0  0  0  0
   21.7465   18.9888   25.1454 H   0  0  0  0  0  0  0  0  0  0  0  0
   20.8559   19.0610   26.5328 H   0  0  0  0  0  0  0  0  0  0  0  0
   20.4968   17.9354   25.3807 H   0  0  0  0  0  0  0  0  0  0  0  0
  1  2  1  0  0  0  0
  1  3  1  0  0  0  0
  1  4  1  0  0  0  0
  1  5  1  0  0  0  0
  5  6  1  0  0  0  0
  5  7  1  0  0  0  0
  5  8  1  0  0  0  0
  8  9  1  0  0  0  0
  8 10  1  0  0  0  0
  8 11  1  0  0  0  0
 11 12  1  0  0  0  0
 11 13  1  0  0  0  0
 11 14  1  0  0  0  0
 14 15  1  0  0  0  0
 14 16  1  0  0  0  0
 14 17  1  0  0  0  0
 17 18  1  0  0  0  0
 17 19  1  0  0  0  0
 19 20  1  0  0  0  0
 19 21  1  0  0  0  0
 19 22  1  0  0  0  0
 17 23  1  0  0  0  0
 23 24  1  0  0  0  0
 23 25  1  0  0  0  0
 23 26  1  0  0  0  0
M  END
> <VConfSearch Rank>
15

> <Conf_Id>
131

> <Delta U+W>
3.589

> <U+W>
-26.710

> <U>
27.573

> <W>
-54.283

> <W(PB)>
-56.537

> <W(SA)>
2.254

> <Valence>
6.363

> <Coulomb>
20.026

> <VdW>
1.184

> <VdW6>
-8.939

> <VdW12>
10.123

> <Bond>
0.298

> <Angle>
2.018

> <Pdih>
4.047

> <Idih>
0.000

> <Tether>
0.000

$$$$
VeraChem MOL file


 26 25  0  0  0  0  0  0  0  0999 V2000     
   19.3004   17.9066   20.4584 C   0  0  0  0  0  0  0  0  0  0  0  0
   20.0163   17.1393   20.7802 H   0  0  0  0  0  0  0  0  0  0  0  0
   18.5631   18.0557   21.2567 H   0  0  0  0  0  0  0  0  0  0  0  0
   18.7618   17.5182   19.5844 H   0  0  0  0  0  0  0  0  0  0  0  0
   20.0190   19.2271   20.1056 C   0  0  0  0  0  0  0  0  0  0  0  0
   19.2713   19.9937   19.8588 H   0  0  0  0  0  0  0  0  0  0  0  0
   20.6095   19.0734   19.1915 H   0  0  0  0  0  0  0  0  0  0  0  0
   20.9619   19.7588   21.2152 C   0  0  0  0  0  0  0  0  0  0  0  0
   21.7792   19.0455   21.3891 H   0  0  0  0  0  0  0  0  0  0  0  0
   21.4419   20.6696   20.8312 H   0  0  0  0  0  0  0  0  0  0  0  0
   20.2579   20.1112   22.5518 C   0  0  0  0  0  0  0  0  0  0  0  0
   19.2271   20.4290   22.3496 H   0  0  0  0  0  0  0  0  0  0  0  0
   20.7648   20.9812   22.9919 H   0  0  0  0  0  0  0  0  0  0  0  0
   20.2939   18.9582   23.5896 C   0  0  0  0  0  0  0  0  0  0  0  0
   19.7792   18.0718   23.2024 H   0  0  0  0  0  0  0  0  0  0  0  0
   21.3404   18.6629   23.7416 H   0  0  0  0  0  0  0  0  0  0  0  0
   19.6926   19.3408   24.9612 C   0  0  1  0  0  0  0  0  0  0  0  0
   20.1810   20.2571   25.3070 H   0  0  0  0  0  0  0  0  0  0  0  0
   18.1769   19.5966   24.8773 C   0  0  0  0  0  0  0  0  0  0  0  0
   17.6487   18.7233   24.4749 H   0  0  0  0  0  0  0  0  0  0  0  0
   17.9516   20.4585   24.2391 H   0  0  0  0  0  0  0  0  0  0  0  0
   17.7665   19.8139   25.8711 H   0  0  0  0  0  0  0  0  0  0  0  0
   19.9852   18.2886   25.9949 N   0  3  0  0  0  0  0  0  0  0  0  0
   19.5586   17.3918   25.7477 H   0  0  0  0  0  0  0  0  0  0  0  0
   20.9918   18.1322   26.0997 H   0  0  0  0  0  0  0  0  0  0  0  0
   19.6221   18.5564   26.9141 H   0  0  0  0  0  0  0  0  0  0  0  0
  1  2  1  0  0  0  0
  1  3  1  0  0  0  0
  1  4  1  0  0  0  0
  1  5  1  0  0  0  0
  5  6  1  0  0  0  0
  5  7  1  0  0  0  0
  5  8  1  0  0  0  0
  8  9  1  0  0  0  0
  8 10  1  0  0  0  0
  8 11  1  0  0  0  0
 11 12  1  0  0  0  0
 11 13  1  0  0  0  0
 11 14  1  0  0  0  0
 14 15  1  0  0  0  0
 14 16  1  0  0  0  0
 14 17  1  0  0  0  0
 17 18  1  0  0  0  0
 17 19  1  0  0  0  0
 19 20  1  0  0  0  0
 19 21  1  0  0  0  0
 19 22  1  0  0  0  0
 17 23  1  0  0  0  0
 23 24  1  0  0  0  0
 23 25  1  0  0  0  0
 23 26  1  0  0  0  0
M  END
> <VConfSearch Rank>
16

> <Conf_Id>
80

> <Delta U+W>
3.351

> <U+W>
-26.948

> <U>
27.261

> <W>
-54.209

> <W(PB)>
-56.471

> <W(SA)>
2.263

> <Valence>
6.230

> <Coulomb>
19.945

> <VdW>
1.087

> <VdW6>
-8.618

> <VdW12>
9.704

> <Bond>
0.277

> <Angle>
1.928

> <Pdih>
4.025

> <Idih>
0.000

> <Tether>
0.000

$$$$
VeraChem MOL file


 26 25  0  0  0  0  0  0  0  0999 V2000     
   20.7325   18.4119   19.8755 C   0  0  0  0  0  0  0  0  0  0  0  0
   20.7743   17.5060   19.2571 H   0  0  0  0  0  0  0  0  0  0  0  0
   20.8252   19.2788   19.2086 H   0  0  0  0  0  0  0  0  0  0  0  0
   21.6027   18.3954   20.5435 H   0  0  0  0  0  0  0  0  0  0  0  0
   19.4093   18.4625   20.6723 C   0  0  0  0  0  0  0  0  0  0  0  0
   19.3528   17.6010   21.3501 H   0  0  0  0  0  0  0  0  0  0  0  0
   18.5716   18.3430   19.9711 H   0  0  0  0  0  0  0  0  0  0  0  0
   19.2056   19.7845   21.4573 C   0  0  0  0  0  0  0  0  0  0  0  0
   19.1088   20.6048   20.7327 H   0  0  0  0  0  0  0  0  0  0  0  0
   18.2406   19.7376   21.9745 H   0  0  0  0  0  0  0  0  0  0  0  0
   20.3353   20.1551   22.4596 C   0  0  0  0  0  0  0  0  0  0  0  0
   20.1242   21.1409   22.8962 H   0  0  0  0  0  0  0  0  0  0  0  0
   21.2676   20.2893   21.8955 H   0  0  0  0  0  0  0  0  0  0  0  0
   20.5911   19.1316   23.6015 C   0  0  0  0  0  0  0  0  0  0  0  0
   20.3923   18.1077   23.2659 H   0  0  0  0  0  0  0  0  0  0  0  0
   21.6644   19.1595   23.8313 H   0  0  0  0  0  0  0  0  0  0  0  0
   19.8341   19.4138   24.9218 C   0  0  1  0  0  0  0  0  0  0  0  0
   20.1063   20.4173   25.2632 H   0  0  0  0  0  0  0  0  0  0  0  0
   18.3058   19.3610   24.7614 C   0  0  0  0  0  0  0  0  0  0  0  0
   17.9475   20.1994   24.1540 H   0  0  0  0  0  0  0  0  0  0  0  0
   17.8106   19.4390   25.7371 H   0  0  0  0  0  0  0  0  0  0  0  0
   17.9864   18.4231   24.2904 H   0  0  0  0  0  0  0  0  0  0  0  0
   20.2742   18.4676   26.0046 N   0  3  0  0  0  0  0  0  0  0  0  0
   21.2844   18.5195   26.1637 H   0  0  0  0  0  0  0  0  0  0  0  0
   19.8150   18.6788   26.8951 H   0  0  0  0  0  0  0  0  0  0  0  0
   20.0494   17.4976   25.7679 H   0  0  0  0  0  0  0  0  0  0  0  0
  1  2  1  0  0  0  0
  1  3  1  0  0  0  0
  1  4  1  0  0  0  0
  1  5  1  0  0  0  0
  5  6  1  0  0  0  0
  5  7  1  0  0  0  0
  5  8  1  0  0  0  0
  8  9  1  0  0  0  0
  8 10  1  0  0  0  0
  8 11  1  0  0  0  0
 11 12  1  0  0  0  0
 11 13  1  0  0  0  0
 11 14  1  0  0  0  0
 14 15  1  0  0  0  0
 14 16  1  0  0  0  0
 14 17  1  0  0  0  0
 17 18  1  0  0  0  0
 17 19  1  0  0  0  0
 19 20  1  0  0  0  0
 19 21  1  0  0  0  0
 19 22  1  0  0  0  0
 17 23  1  0  0  0  0
 23 24  1  0  0  0  0
 23 25  1  0  0  0  0
 23 26  1  0  0  0  0
M  END
> <VConfSearch Rank>
17

> <Conf_Id>
136

> <Delta U+W>
4.272

> <U+W>
-26.026

> <U>
28.262

> <W>
-54.288

> <W(PB)>
-56.488

> <W(SA)>
2.200

> <Valence>
7.096

> <Coulomb>
19.990

> <VdW>
1.175

> <VdW6>
-9.404

> <VdW12>
10.580

> <Bond>
0.360

> <Angle>
2.785

> <Pdih>
3.951

> <Idih>
0.000

> <Tether>
0.000

$$$$
VeraChem MOL file


 26 25  0  0  0  0  0  0  0  0999 V2000     
   19.4955   20.0153   20.1475 C   0  0  0  0  0  0  0  0  0  0  0  0
   19.6918   20.7139   20.9702 H   0  0  0  0  0  0  0  0  0  0  0  0
   19.5604   20.5850   19.2115 H   0  0  0  0  0  0  0  0  0  0  0  0
   18.4677   19.6417   20.2423 H   0  0  0  0  0  0  0  0  0  0  0  0
   20.5126   18.8533   20.1431 C   0  0  0  0  0  0  0  0  0  0  0  0
   21.5321   19.2618   20.1038 H   0  0  0  0  0  0  0  0  0  0  0  0
   20.3816   18.2741   19.2183 H   0  0  0  0  0  0  0  0  0  0  0  0
   20.3861   17.8884   21.3497 C   0  0  0  0  0  0  0  0  0  0  0  0
   19.4034   17.3970   21.3393 H   0  0  0  0  0  0  0  0  0  0  0  0
   21.1205   17.0835   21.2070 H   0  0  0  0  0  0  0  0  0  0  0  0
   20.6475   18.5420   22.7317 C   0  0  0  0  0  0  0  0  0  0  0  0
   21.3341   19.3927   22.6209 H   0  0  0  0  0  0  0  0  0  0  0  0
   21.1680   17.8092   23.3625 H   0  0  0  0  0  0  0  0  0  0  0  0
   19.3496   18.9860   23.4555 C   0  0  0  0  0  0  0  0  0  0  0  0
   18.7626   19.6363   22.7973 H   0  0  0  0  0  0  0  0  0  0  0  0
   18.7226   18.1075   23.6582 H   0  0  0  0  0  0  0  0  0  0  0  0
   19.6255   19.7396   24.7746 C   0  0  1  0  0  0  0  0  0  0  0  0
   20.2709   20.5948   24.5518 H   0  0  0  0  0  0  0  0  0  0  0  0
   18.3123   20.2696   25.3723 C   0  0  0  0  0  0  0  0  0  0  0  0
   17.6267   19.4482   25.6157 H   0  0  0  0  0  0  0  0  0  0  0  0
   17.8054   20.9401   24.6671 H   0  0  0  0  0  0  0  0  0  0  0  0
   18.5050   20.8376   26.2908 H   0  0  0  0  0  0  0  0  0  0  0  0
   20.3590   18.8939   25.7797 N   0  3  0  0  0  0  0  0  0  0  0  0
   19.8159   18.0661   26.0385 H   0  0  0  0  0  0  0  0  0  0  0  0
   21.2577   18.5707   25.4118 H   0  0  0  0  0  0  0  0  0  0  0  0
   20.5505   19.4160   26.6395 H   0  0  0  0  0  0  0  0  0  0  0  0
  1  2  1  0  0  0  0
  1  3  1  0  0  0  0
  1  4  1  0  0  0  0
  1  5  1  0  0  0  0
  5  6  1  0  0  0  0
  5  7  1  0  0  0  0
  5  8  1  0  0  0  0
  8  9  1  0  0  0  0
  8 10  1  0  0  0  0
  8 11  1  0  0  0  0
 11 12  1  0  0  0  0
 11 13  1  0  0  0  0
 11 14  1  0  0  0  0
 14 15  1  0  0  0  0
 14 16  1  0  0  0  0
 14 17  1  0  0  0  0
 17 18  1  0  0  0  0
 17 19  1  0  0  0  0
 19 20  1  0  0  0  0
 19 21  1  0  0  0  0
 19 22  1  0  0  0  0
 17 23  1  0  0  0  0
 23 24  1  0  0  0  0
 23 25  1  0  0  0  0
 23 26  1  0  0  0  0
M  END
> <VConfSearch Rank>
18

> <Conf_Id>
124

> <Delta U+W>
3.001

> <U+W>
-27.298

> <U>
26.787

> <W>
-54.085

> <W(PB)>
-56.347

> <W(SA)>
2.262

> <Valence>
5.742

> <Coulomb>
20.023

> <VdW>
1.022

> <VdW6>
-8.392

> <VdW12>
9.414

> <Bond>
0.261

> <Angle>
1.576

> <Pdih>
3.904

> <Idih>
0.000

> <Tether>
0.000

$$$$
VeraChem MOL file


 26 25  0  0  0  0  0  0  0  0999 V2000     
   20.6249   19.9520   19.9725 C   0  0  0  0  0  0  0  0  0  0  0  0
   21.5603   19.4962   19.6227 H   0  0  0  0  0  0  0  0  0  0  0  0
   20.2542   20.6060   19.1726 H   0  0  0  0  0  0  0  0  0  0  0  0
   20.8602   20.5846   20.8352 H   0  0  0  0  0  0  0  0  0  0  0  0
   19.5764   18.8673   20.3130 C   0  0  0  0  0  0  0  0  0  0  0  0
   19.3707   18.2970   19.3963 H   0  0  0  0  0  0  0  0  0  0  0  0
   18.6231   19.3335   20.5985 H   0  0  0  0  0  0  0  0  0  0  0  0
   20.0448   17.8799   21.4130 C   0  0  0  0  0  0  0  0  0  0  0  0
   19.6420   16.8862   21.1728 H   0  0  0  0  0  0  0  0  0  0  0  0
   21.1376   17.7697   21.3851 H   0  0  0  0  0  0  0  0  0  0  0  0
   19.5800   18.2355   22.8489 C   0  0  0  0  0  0  0  0  0  0  0  0
   19.8991   17.4253   23.5172 H   0  0  0  0  0  0  0  0  0  0  0  0
   18.4822   18.2420   22.8760 H   0  0  0  0  0  0  0  0  0  0  0  0
   20.1266   19.5885   23.3765 C   0  0  0  0  0  0  0  0  0  0  0  0
   21.2104   19.6330   23.2077 H   0  0  0  0  0  0  0  0  0  0  0  0
   19.6886   20.4085   22.7942 H   0  0  0  0  0  0  0  0  0  0  0  0
   19.8505   19.8613   24.8740 C   0  0  1  0  0  0  0  0  0  0  0  0
   20.2809   20.8393   25.1108 H   0  0  0  0  0  0  0  0  0  0  0  0
   18.3442   19.9287   25.1804 C   0  0  0  0  0  0  0  0  0  0  0  0
   17.8605   18.9531   25.0513 H   0  0  0  0  0  0  0  0  0  0  0  0
   17.8444   20.6503   24.5223 H   0  0  0  0  0  0  0  0  0  0  0  0
   18.1771   20.2514   26.2154 H   0  0  0  0  0  0  0  0  0  0  0  0
   20.5407   18.8748   25.7757 N   0  3  0  0  0  0  0  0  0  0  0  0
   20.4000   19.1082   26.7627 H   0  0  0  0  0  0  0  0  0  0  0  0
   20.1854   17.9266   25.6314 H   0  0  0  0  0  0  0  0  0  0  0  0
   21.5505   18.8548   25.6074 H   0  0  0  0  0  0  0  0  0  0  0  0
  1  2  1  0  0  0  0
  1  3  1  0  0  0  0
  1  4  1  0  0  0  0
  1  5  1  0  0  0  0
  5  6  1  0  0  0  0
  5  7  1  0  0  0  0
  5  8  1  0  0  0  0
  8  9  1  0  0  0  0
  8 10  1  0  0  0  0
  8 11  1  0  0  0  0
 11 12  1  0  0  0  0
 11 13  1  0  0  0  0
 11 14  1  0  0  0  0
 14 15  1  0  0  0  0
 14 16  1  0  0  0  0
 14 17  1  0  0  0  0
 17 18  1  0  0  0  0
 17 19  1  0  0  0  0
 19 20  1  0  0  0  0
 19 21  1  0  0  0  0
 19 22  1  0  0  0  0
 17 23  1  0  0  0  0
 23 24  1  0  0  0  0
 23 25  1  0  0  0  0
 23 26  1  0  0  0  0
M  END
> <VConfSearch Rank>
19

> <Conf_Id>
105

> <Delta U+W>
3.442

> <U+W>
-26.857

> <U>
27.313

> <W>
-54.169

> <W(PB)>
-56.414

> <W(SA)>
2.245

> <Valence>
6.229

> <Coulomb>
19.943

> <VdW>
1.140

> <VdW6>
-9.001

> <VdW12>
10.140

> <Bond>
0.294

> <Angle>
1.969

> <Pdih>
3.967

> <Idih>
0.000

> <Tether>
0.000

$$$$
VeraChem MOL file


 26 25  0  0  0  0  0  0  0  0999 V2000     
   18.9946   18.4486   20.0746 C   0  0  0  0  0  0  0  0  0  0  0  0
   18.7426   19.2986   19.4272 H   0  0  0  0  0  0  0  0  0  0  0  0
   18.7568   17.5294   19.5238 H   0  0  0  0  0  0  0  0  0  0  0  0
   18.3400   18.4873   20.9520 H   0  0  0  0  0  0  0  0  0  0  0  0
   20.4918   18.4744   20.4614 C   0  0  0  0  0  0  0  0  0  0  0  0
   21.0806   18.3976   19.5366 H   0  0  0  0  0  0  0  0  0  0  0  0
   20.7479   17.5870   21.0569 H   0  0  0  0  0  0  0  0  0  0  0  0
   20.9148   19.7656   21.2085 C   0  0  0  0  0  0  0  0  0  0  0  0
   21.9421   20.0129   20.9070 H   0  0  0  0  0  0  0  0  0  0  0  0
   20.2987   20.6140   20.8803 H   0  0  0  0  0  0  0  0  0  0  0  0
   20.8971   19.6586   22.7553 C   0  0  0  0  0  0  0  0  0  0  0  0
   21.2853   20.5997   23.1690 H   0  0  0  0  0  0  0  0  0  0  0  0
   21.5977   18.8726   23.0676 H   0  0  0  0  0  0  0  0  0  0  0  0
   19.4972   19.3850   23.3583 C   0  0  0  0  0  0  0  0  0  0  0  0
   18.7771   20.0904   22.9228 H   0  0  0  0  0  0  0  0  0  0  0  0
   19.1643   18.3759   23.0850 H   0  0  0  0  0  0  0  0  0  0  0  0
   19.4684   19.5281   24.8953 C   0  0  1  0  0  0  0  0  0  0  0  0
   19.8192   20.5323   25.1526 H   0  0  0  0  0  0  0  0  0  0  0  0
   18.0324   19.3696   25.4200 C   0  0  0  0  0  0  0  0  0  0  0  0
   17.6328   18.3741   25.1891 H   0  0  0  0  0  0  0  0  0  0  0  0
   17.3679   20.1173   24.9693 H   0  0  0  0  0  0  0  0  0  0  0  0
   17.9989   19.5076   26.5077 H   0  0  0  0  0  0  0  0  0  0  0  0
   20.3919   18.5581   25.5806 N   0  3  0  0  0  0  0  0  0  0  0  0
   21.3596   18.6814   25.2712 H   0  0  0  0  0  0  0  0  0  0  0  0
   20.3774   18.6820   26.5969 H   0  0  0  0  0  0  0  0  0  0  0  0
   20.1267   17.5891   25.3861 H   0  0  0  0  0  0  0  0  0  0  0  0
  1  2  1  0  0  0  0
  1  3  1  0  0  0  0
  1  4  1  0  0  0  0
  1  5  1  0  0  0  0
  5  6  1  0  0  0  0
  5  7  1  0  0  0  0
  5  8  1  0  0  0  0
  8  9  1  0  0  0  0
  8 10  1  0  0  0  0
  8 11  1  0  0  0  0
 11 12  1  0  0  0  0
 11 13  1  0  0  0  0
 11 14  1  0  0  0  0
 14 15  1  0  0  0  0
 14 16  1  0  0  0  0
 14 17  1  0  0  0  0
 17 18  1  0  0  0  0
 17 19  1  0  0  0  0
 19 20  1  0  0  0  0
 19 21  1  0  0  0  0
 19 22  1  0  0  0  0
 17 23  1  0  0  0  0
 23 24  1  0  0  0  0
 23 25  1  0  0  0  0
 23 26  1  0  0  0  0
M  END
> <VConfSearch Rank>
20

> <Conf_Id>
107

> <Delta U+W>
2.995

> <U+W>
-27.304

> <U>
26.796

> <W>
-54.100

> <W(PB)>
-56.404

> <W(SA)>
2.304

> <Valence>
5.706

> <Coulomb>
20.107

> <VdW>
0.982

> <VdW6>
-8.396

> <VdW12>
9.378

> <Bond>
0.254

> <Angle>
1.644

> <Pdih>
3.808

> <Idih>
0.000

> <Tether>
0.000

$$$$
VeraChem MOL file


 26 25  0  0  0  0  0  0  0  0999 V2000     
   24.0193   18.9812   22.9464 C   0  0  0  0  0  0  0  0  0  0  0  0
   24.1981   19.9917   22.5563 H   0  0  0  0  0  0  0  0  0  0  0  0
   24.8249   18.7458   23.6540 H   0  0  0  0  0  0  0  0  0  0  0  0
   24.0888   18.2743   22.1093 H   0  0  0  0  0  0  0  0  0  0  0  0
   22.6425   18.8889   23.6377 C   0  0  0  0  0  0  0  0  0  0  0  0
   22.6155   19.5820   24.4902 H   0  0  0  0  0  0  0  0  0  0  0  0
   22.5072   17.8778   24.0467 H   0  0  0  0  0  0  0  0  0  0  0  0
   21.4898   19.2160   22.6627 C   0  0  0  0  0  0  0  0  0  0  0  0
   21.6319   20.2262   22.2543 H   0  0  0  0  0  0  0  0  0  0  0  0
   21.5220   18.5218   21.8115 H   0  0  0  0  0  0  0  0  0  0  0  0
   20.1092   19.1254   23.3515 C   0  0  0  0  0  0  0  0  0  0  0  0
   20.0772   19.8227   24.2004 H   0  0  0  0  0  0  0  0  0  0  0  0
   19.9782   18.1155   23.7624 H   0  0  0  0  0  0  0  0  0  0  0  0
   18.9562   19.4524   22.3716 C   0  0  0  0  0  0  0  0  0  0  0  0
   19.1350   20.4424   21.9311 H   0  0  0  0  0  0  0  0  0  0  0  0
   18.9599   18.7344   21.5406 H   0  0  0  0  0  0  0  0  0  0  0  0
   17.5695   19.4535   23.0510 C   0  0  1  0  0  0  0  0  0  0  0  0
   17.5986   20.1574   23.8885 H   0  0  0  0  0  0  0  0  0  0  0  0
   16.4905   19.9241   22.0626 C   0  0  0  0  0  0  0  0  0  0  0  0
   16.4190   19.2483   21.2012 H   0  0  0  0  0  0  0  0  0  0  0  0
   16.7162   20.9308   21.6892 H   0  0  0  0  0  0  0  0  0  0  0  0
   15.5082   19.9626   22.5494 H   0  0  0  0  0  0  0  0  0  0  0  0
   17.2084   18.1110   23.6261 N   0  3  0  0  0  0  0  0  0  0  0  0
   17.1638   17.3928   22.8985 H   0  0  0  0  0  0  0  0  0  0  0  0
   17.8946   17.8045   24.3207 H   0  0  0  0  0  0  0  0  0  0  0  0
   16.2952   18.1355   24.0887 H   0  0  0  0  0  0  0  0  0  0  0  0
  1  2  1  0  0  0  0
  1  3  1  0  0  0  0
  1  4  1  0  0  0  0
  1  5  1  0  0  0  0
  5  6  1  0  0  0  0
  5  7  1  0  0  0  0
  5  8  1  0  0  0  0
  8  9  1  0  0  0  0
  8 10  1  0  0  0  0
  8 11  1  0  0  0  0
 11 12  1  0  0  0  0
 11 13  1  0  0  0  0
 11 14  1  0  0  0  0
 14 15  1  0  0  0  0
 14 16  1  0  0  0  0
 14 17  1  0  0  0  0
 17 18  1  0  0  0  0
 17 19  1  0  0  0  0
 19 20  1  0  0  0  0
 19 21  1  0  0  0  0
 19 22  1  0  0  0  0
 17 23  1  0  0  0  0
 23 24  1  0  0  0  0
 23 25  1  0  0  0  0
 23 26  1  0  0  0  0
M  END
> <VConfSearch Rank>
21

> <Conf_Id>
122

> <Delta U+W>
0.000

> <U+W>
-30.299

> <U>
23.517

> <W>
-53.816

> <W(PB)>
-56.162

> <W(SA)>
2.346

> <Valence>
2.737

> <Coulomb>
19.862

> <VdW>
0.919

> <VdW6>
-6.793

> <VdW12>
7.712

> <Bond>
0.171

> <Angle>
0.873

> <Pdih>
1.693

> <Idih>
0.000

> <Tether>
0.000

$$$$
VeraChem MOL file


 26 25  0  0  0  0  0  0  0  0999 V2000     
   23.4525   18.7761   25.0068 C   0  0  0  0  0  0  0  0  0  0  0  0
   24.4817   19.1456   24.9111 H   0  0  0  0  0  0  0  0  0  0  0  0
   23.0816   19.0649   25.9989 H   0  0  0  0  0  0  0  0  0  0  0  0
   23.4822   17.6797   24.9586 H   0  0  0  0  0  0  0  0  0  0  0  0
   22.5591   19.3565   23.8900 C   0  0  0  0  0  0  0  0  0  0  0  0
   22.9740   19.0797   22.9107 H   0  0  0  0  0  0  0  0  0  0  0  0
   22.5764   20.4541   23.9429 H   0  0  0  0  0  0  0  0  0  0  0  0
   21.1033   18.8517   24.0016 C   0  0  0  0  0  0  0  0  0  0  0  0
   21.0913   17.7541   23.9502 H   0  0  0  0  0  0  0  0  0  0  0  0
   20.6949   19.1282   24.9836 H   0  0  0  0  0  0  0  0  0  0  0  0
   20.2053   19.4311   22.8850 C   0  0  0  0  0  0  0  0  0  0  0  0
   20.6271   19.1563   21.9094 H   0  0  0  0  0  0  0  0  0  0  0  0
   20.2141   20.5286   22.9402 H   0  0  0  0  0  0  0  0  0  0  0  0
   18.7478   18.9198   22.9970 C   0  0  0  0  0  0  0  0  0  0  0  0
   18.7279   17.8285   22.8769 H   0  0  0  0  0  0  0  0  0  0  0  0
   18.3817   19.1279   24.0111 H   0  0  0  0  0  0  0  0  0  0  0  0
   17.7789   19.5723   21.9844 C   0  0  1  0  0  0  0  0  0  0  0  0
   17.8479   20.6589   22.0948 H   0  0  0  0  0  0  0  0  0  0  0  0
   18.1267   19.2073   20.5299 C   0  0  0  0  0  0  0  0  0  0  0  0
   18.1334   18.1200   20.3842 H   0  0  0  0  0  0  0  0  0  0  0  0
   19.1098   19.5989   20.2443 H   0  0  0  0  0  0  0  0  0  0  0  0
   17.3932   19.6385   19.8376 H   0  0  0  0  0  0  0  0  0  0  0  0
   16.3521   19.2055   22.2855 N   0  3  0  0  0  0  0  0  0  0  0  0
   16.1990   18.1970   22.2019 H   0  0  0  0  0  0  0  0  0  0  0  0
   16.0843   19.4795   23.2352 H   0  0  0  0  0  0  0  0  0  0  0  0
   15.7033   19.6671   21.6418 H   0  0  0  0  0  0  0  0  0  0  0  0
  1  2  1  0  0  0  0
  1  3  1  0  0  0  0
  1  4  1  0  0  0  0
  1  5  1  0  0  0  0
  5  6  1  0  0  0  0
  5  7  1  0  0  0  0
  5  8  1  0  0  0  0
  8  9  1  0  0  0  0
  8 10  1  0  0  0  0
  8 11  1  0  0  0  0
 11 12  1  0  0  0  0
 11 13  1  0  0  0  0
 11 14  1  0  0  0  0
 14 15  1  0  0  0  0
 14 16  1  0  0  0  0
 14 17  1  0  0  0  0
 17 18  1  0  0  0  0
 17 19  1  0  0  0  0
 19 20  1  0  0  0  0
 19 21  1  0  0  0  0
 19 22  1  0  0  0  0
 17 23  1  0  0  0  0
 23 24  1  0  0  0  0
 23 25  1  0  0  0  0
 23 26  1  0  0  0  0
M  END
> <VConfSearch Rank>
22

> <Conf_Id>
54

> <Delta U+W>
0.453

> <U+W>
-29.845

> <U>
23.817

> <W>
-53.663

> <W(PB)>
-56.021

> <W(SA)>
2.358

> <Valence>
3.277

> <Coulomb>
19.492

> <VdW>
1.049

> <VdW6>
-6.949

> <VdW12>
7.998

> <Bond>
0.183

> <Angle>
1.152

> <Pdih>
1.942

> <Idih>
0.000

> <Tether>
0.000

$$$$
VeraChem MOL file


 26 25  0  0  0  0  0  0  0  0999 V2000     
   16.3556   20.1432   23.4002 C   0  0  0  0  0  0  0  0  0  0  0  0
   16.5827   21.1324   22.9819 H   0  0  0  0  0  0  0  0  0  0  0  0
   16.2044   19.4444   22.5685 H   0  0  0  0  0  0  0  0  0  0  0  0
   15.4040   20.2192   23.9421 H   0  0  0  0  0  0  0  0  0  0  0  0
   17.4803   19.6690   24.3489 C   0  0  0  0  0  0  0  0  0  0  0  0
   17.2476   18.6638   24.7276 H   0  0  0  0  0  0  0  0  0  0  0  0
   17.4998   20.3304   25.2264 H   0  0  0  0  0  0  0  0  0  0  0  0
   18.8842   19.6728   23.6963 C   0  0  0  0  0  0  0  0  0  0  0  0
   19.0973   20.6725   23.2934 H   0  0  0  0  0  0  0  0  0  0  0  0
   19.6160   19.4835   24.4906 H   0  0  0  0  0  0  0  0  0  0  0  0
   19.0495   18.6065   22.5841 C   0  0  0  0  0  0  0  0  0  0  0  0
   18.2382   18.7152   21.8535 H   0  0  0  0  0  0  0  0  0  0  0  0
   18.9347   17.6043   23.0194 H   0  0  0  0  0  0  0  0  0  0  0  0
   20.3893   18.6798   21.8046 C   0  0  0  0  0  0  0  0  0  0  0  0
   20.3274   17.9445   20.9911 H   0  0  0  0  0  0  0  0  0  0  0  0
   20.4897   19.6577   21.3154 H   0  0  0  0  0  0  0  0  0  0  0  0
   21.6515   18.3790   22.6476 C   0  0  1  0  0  0  0  0  0  0  0  0
   21.4124   17.5784   23.3543 H   0  0  0  0  0  0  0  0  0  0  0  0
   22.7975   17.8956   21.7432 C   0  0  0  0  0  0  0  0  0  0  0  0
   23.6910   17.6662   22.3369 H   0  0  0  0  0  0  0  0  0  0  0  0
   23.0661   18.6581   21.0013 H   0  0  0  0  0  0  0  0  0  0  0  0
   22.5135   16.9815   21.2070 H   0  0  0  0  0  0  0  0  0  0  0  0
   22.1101   19.5632   23.4547 N   0  3  0  0  0  0  0  0  0  0  0  0
   21.3717   19.9039   24.0742 H   0  0  0  0  0  0  0  0  0  0  0  0
   22.9182   19.3277   24.0378 H   0  0  0  0  0  0  0  0  0  0  0  0
   22.3867   20.3405   22.8494 H   0  0  0  0  0  0  0  0  0  0  0  0
  1  2  1  0  0  0  0
  1  3  1  0  0  0  0
  1  4  1  0  0  0  0
  1  5  1  0  0  0  0
  5  6  1  0  0  0  0
  5  7  1  0  0  0  0
  5  8  1  0  0  0  0
  8  9  1  0  0  0  0
  8 10  1  0  0  0  0
  8 11  1  0  0  0  0
 11 12  1  0  0  0  0
 11 13  1  0  0  0  0
 11 14  1  0  0  0  0
 14 15  1  0  0  0  0
 14 16  1  0  0  0  0
 14 17  1  0  0  0  0
 17 18  1  0  0  0  0
 17 19  1  0  0  0  0
 19 20  1  0  0  0  0
 19 21  1  0  0  0  0
 19 22  1  0  0  0  0
 17 23  1  0  0  0  0
 23 24  1  0  0  0  0
 23 25  1  0  0  0  0
 23 26  1  0  0  0  0
M  END
> <VConfSearch Rank>
23

> <Conf_Id>
110

> <Delta U+W>
3.764

> <U+W>
-26.535

> <U>
27.400

> <W>
-53.935

> <W(PB)>
-56.238

> <W(SA)>
2.303

> <Valence>
5.205

> <Coulomb>
21.096

> <VdW>
1.098

> <VdW6>
-8.389

> <VdW12>
9.488

> <Bond>
0.270

> <Angle>
1.912

> <Pdih>
3.023

> <Idih>
0.000

> <Tether>
0.000

$$$$
VeraChem MOL file


 26 25  0  0  0  0  0  0  0  0999 V2000     
   21.3333   20.9725   20.1274 C   0  0  0  0  0  0  0  0  0  0  0  0
   22.2134   21.4479   19.6755 H   0  0  0  0  0  0  0  0  0  0  0  0
   21.2927   19.9391   19.7614 H   0  0  0  0  0  0  0  0  0  0  0  0
   20.4426   21.5018   19.7647 H   0  0  0  0  0  0  0  0  0  0  0  0
   21.4219   21.0255   21.6695 C   0  0  0  0  0  0  0  0  0  0  0  0
   21.5833   22.0675   21.9792 H   0  0  0  0  0  0  0  0  0  0  0  0
   22.3040   20.4642   22.0081 H   0  0  0  0  0  0  0  0  0  0  0  0
   20.1558   20.4870   22.3783 C   0  0  0  0  0  0  0  0  0  0  0  0
   20.2600   20.6684   23.4548 H   0  0  0  0  0  0  0  0  0  0  0  0
   19.2822   21.0703   22.0563 H   0  0  0  0  0  0  0  0  0  0  0  0
   19.8972   18.9809   22.1156 C   0  0  0  0  0  0  0  0  0  0  0  0
   20.8079   18.3957   22.3037 H   0  0  0  0  0  0  0  0  0  0  0  0
   19.6653   18.8482   21.0506 H   0  0  0  0  0  0  0  0  0  0  0  0
   18.7154   18.4077   22.9420 C   0  0  0  0  0  0  0  0  0  0  0  0
   17.9966   19.2027   23.1814 H   0  0  0  0  0  0  0  0  0  0  0  0
   18.1734   17.6977   22.3033 H   0  0  0  0  0  0  0  0  0  0  0  0
   19.1284   17.6537   24.2291 C   0  0  1  0  0  0  0  0  0  0  0  0
   19.8070   16.8435   23.9450 H   0  0  0  0  0  0  0  0  0  0  0  0
   19.8556   18.5542   25.2420 C   0  0  0  0  0  0  0  0  0  0  0  0
   19.2507   19.4325   25.4995 H   0  0  0  0  0  0  0  0  0  0  0  0
   20.8177   18.8971   24.8441 H   0  0  0  0  0  0  0  0  0  0  0  0
   20.0672   18.0036   26.1669 H   0  0  0  0  0  0  0  0  0  0  0  0
   17.9390   16.9997   24.8759 N   0  3  0  0  0  0  0  0  0  0  0  0
   17.4665   16.3564   24.2344 H   0  0  0  0  0  0  0  0  0  0  0  0
   18.2122   16.4593   25.7016 H   0  0  0  0  0  0  0  0  0  0  0  0
   17.2498   17.6928   25.1793 H   0  0  0  0  0  0  0  0  0  0  0  0
  1  2  1  0  0  0  0
  1  3  1  0  0  0  0
  1  4  1  0  0  0  0
  1  5  1  0  0  0  0
  5  6  1  0  0  0  0
  5  7  1  0  0  0  0
  5  8  1  0  0  0  0
  8  9  1  0  0  0  0
  8 10  1  0  0  0  0
  8 11  1  0  0  0  0
 11 12  1  0  0  0  0
 11 13  1  0  0  0  0
 11 14  1  0  0  0  0
 14 15  1  0  0  0  0
 14 16  1  0  0  0  0
 14 17  1  0  0  0  0
 17 18  1  0  0  0  0
 17 19  1  0  0  0  0
 19 20  1  0  0  0  0
 19 21  1  0  0  0  0
 19 22  1  0  0  0  0
 17 23  1  0  0  0  0
 23 24  1  0  0  0  0
 23 25  1  0  0  0  0
 23 26  1  0  0  0  0
M  END
> <VConfSearch Rank>
24

> <Conf_Id>
34

> <Delta U+W>
3.568

> <U+W>
-26.731

> <U>
27.221

> <W>
-53.952

> <W(PB)>
-56.213

> <W(SA)>
2.261

> <Valence>
6.368

> <Coulomb>
19.698

> <VdW>
1.155

> <VdW6>
-8.532

> <VdW12>
9.687

> <Bond>
0.272

> <Angle>
1.847

> <Pdih>
4.248

> <Idih>
0.000

> <Tether>
0.000

$$$$
VeraChem MOL file


 26 25  0  0  0  0  0  0  0  0999 V2000     
   15.7768   19.1997   23.3544 C   0  0  0  0  0  0  0  0  0  0  0  0
   15.6271   18.1735   23.7148 H   0  0  0  0  0  0  0  0  0  0  0  0
   15.7269   19.8760   24.2177 H   0  0  0  0  0  0  0  0  0  0  0  0
   14.9429   19.4464   22.6844 H   0  0  0  0  0  0  0  0  0  0  0  0
   17.1264   19.3379   22.6185 C   0  0  0  0  0  0  0  0  0  0  0  0
   17.2320   20.3646   22.2407 H   0  0  0  0  0  0  0  0  0  0  0  0
   17.1329   18.6752   21.7417 H   0  0  0  0  0  0  0  0  0  0  0  0
   18.3181   18.9959   23.5401 C   0  0  0  0  0  0  0  0  0  0  0  0
   18.3052   19.6593   24.4159 H   0  0  0  0  0  0  0  0  0  0  0  0
   18.2064   17.9698   23.9171 H   0  0  0  0  0  0  0  0  0  0  0  0
   19.6716   19.1328   22.8068 C   0  0  0  0  0  0  0  0  0  0  0  0
   19.7755   20.1594   22.4315 H   0  0  0  0  0  0  0  0  0  0  0  0
   19.6722   18.4700   21.9315 H   0  0  0  0  0  0  0  0  0  0  0  0
   20.8633   18.7851   23.7367 C   0  0  0  0  0  0  0  0  0  0  0  0
   20.8210   19.4218   24.6302 H   0  0  0  0  0  0  0  0  0  0  0  0
   20.7541   17.7533   24.0961 H   0  0  0  0  0  0  0  0  0  0  0  0
   22.2609   18.9412   23.0917 C   0  0  1  0  0  0  0  0  0  0  0  0
   23.0018   18.6959   23.8589 H   0  0  0  0  0  0  0  0  0  0  0  0
   22.4684   17.9684   21.9176 C   0  0  0  0  0  0  0  0  0  0  0  0
   21.8224   18.2153   21.0668 H   0  0  0  0  0  0  0  0  0  0  0  0
   22.2554   16.9366   22.2237 H   0  0  0  0  0  0  0  0  0  0  0  0
   23.5080   18.0039   21.5697 H   0  0  0  0  0  0  0  0  0  0  0  0
   22.5464   20.3578   22.6748 N   0  3  0  0  0  0  0  0  0  0  0  0
   23.4976   20.4556   22.3086 H   0  0  0  0  0  0  0  0  0  0  0  0
   21.9026   20.6669   21.9425 H   0  0  0  0  0  0  0  0  0  0  0  0
   22.4537   21.0068   23.4614 H   0  0  0  0  0  0  0  0  0  0  0  0
  1  2  1  0  0  0  0
  1  3  1  0  0  0  0
  1  4  1  0  0  0  0
  1  5  1  0  0  0  0
  5  6  1  0  0  0  0
  5  7  1  0  0  0  0
  5  8  1  0  0  0  0
  8  9  1  0  0  0  0
  8 10  1  0  0  0  0
  8 11  1  0  0  0  0
 11 12  1  0  0  0  0
 11 13  1  0  0  0  0
 11 14  1  0  0  0  0
 14 15  1  0  0  0  0
 14 16  1  0  0  0  0
 14 17  1  0  0  0  0
 17 18  1  0  0  0  0
 17 19  1  0  0  0  0
 19 20  1  0  0  0  0
 19 21  1  0  0  0  0
 19 22  1  0  0  0  0
 17 23  1  0  0  0  0
 23 24  1  0  0  0  0
 23 25  1  0  0  0  0
 23 26  1  0  0  0  0
M  END
> <VConfSearch Rank>
25

> <Conf_Id>
132

> <Delta U+W>
0.363

> <U+W>
-29.936

> <U>
24.060

> <W>
-53.996

> <W(PB)>
-56.327

> <W(SA)>
2.332

> <Valence>
3.249

> <Coulomb>
19.781

> <VdW>
1.030

> <VdW6>
-7.421

> <VdW12>
8.451

> <Bond>
0.207

> <Angle>
1.205

> <Pdih>
1.837

> <Idih>
0.000

> <Tether>
0.000

$$$$
VeraChem MOL file


 26 25  0  0  0  0  0  0  0  0999 V2000     
   20.0613   16.4691   20.0532 C   0  0  0  0  0  0  0  0  0  0  0  0
   19.9975   15.3833   20.2014 H   0  0  0  0  0  0  0  0  0  0  0  0
   19.3322   16.7469   19.2809 H   0  0  0  0  0  0  0  0  0  0  0  0
   21.0656   16.6991   19.6740 H   0  0  0  0  0  0  0  0  0  0  0  0
   19.7831   17.2168   21.3745 C   0  0  0  0  0  0  0  0  0  0  0  0
   20.5049   16.8817   22.1309 H   0  0  0  0  0  0  0  0  0  0  0  0
   18.7844   16.9443   21.7434 H   0  0  0  0  0  0  0  0  0  0  0  0
   19.8722   18.7504   21.1909 C   0  0  0  0  0  0  0  0  0  0  0  0
   20.8874   19.0278   20.8750 H   0  0  0  0  0  0  0  0  0  0  0  0
   19.2031   19.0498   20.3723 H   0  0  0  0  0  0  0  0  0  0  0  0
   19.4844   19.5525   22.4577 C   0  0  0  0  0  0  0  0  0  0  0  0
   18.4668   19.2749   22.7628 H   0  0  0  0  0  0  0  0  0  0  0  0
   19.4478   20.6150   22.1852 H   0  0  0  0  0  0  0  0  0  0  0  0
   20.4717   19.3525   23.6402 C   0  0  0  0  0  0  0  0  0  0  0  0
   20.4850   18.2959   23.9340 H   0  0  0  0  0  0  0  0  0  0  0  0
   21.4911   19.5874   23.3068 H   0  0  0  0  0  0  0  0  0  0  0  0
   20.1549   20.1912   24.9013 C   0  0  1  0  0  0  0  0  0  0  0  0
   20.8866   19.9143   25.6666 H   0  0  0  0  0  0  0  0  0  0  0  0
   20.3011   21.7018   24.6468 C   0  0  0  0  0  0  0  0  0  0  0  0
   19.5298   22.0761   23.9635 H   0  0  0  0  0  0  0  0  0  0  0  0
   21.2837   21.9317   24.2164 H   0  0  0  0  0  0  0  0  0  0  0  0
   20.2123   22.2588   25.5876 H   0  0  0  0  0  0  0  0  0  0  0  0
   18.8045   19.8699   25.4803 N   0  3  0  0  0  0  0  0  0  0  0  0
   18.7159   18.8730   25.6964 H   0  0  0  0  0  0  0  0  0  0  0  0
   18.6368   20.3869   26.3481 H   0  0  0  0  0  0  0  0  0  0  0  0
   18.0540   20.1122   24.8290 H   0  0  0  0  0  0  0  0  0  0  0  0
  1  2  1  0  0  0  0
  1  3  1  0  0  0  0
  1  4  1  0  0  0  0
  1  5  1  0  0  0  0
  5  6  1  0  0  0  0
  5  7  1  0  0  0  0
  5  8  1  0  0  0  0
  8  9  1  0  0  0  0
  8 10  1  0  0  0  0
  8 11  1  0  0  0  0
 11 12  1  0  0  0  0
 11 13  1  0  0  0  0
 11 14  1  0  0  0  0
 14 15  1  0  0  0  0
 14 16  1  0  0  0  0
 14 17  1  0  0  0  0
 17 18  1  0  0  0  0
 17 19  1  0  0  0  0
 19 20  1  0  0  0  0
 19 21  1  0  0  0  0
 19 22  1  0  0  0  0
 17 23  1  0  0  0  0
 23 24  1  0  0  0  0
 23 25  1  0  0  0  0
 23 26  1  0  0  0  0
M  END
> <VConfSearch Rank>
26

> <Conf_Id>
46

> <Delta U+W>
1.114

> <U+W>
-29.185

> <U>
24.990

> <W>
-54.175

> <W(PB)>
-56.455

> <W(SA)>
2.279

> <Valence>
3.862

> <Coulomb>
19.956

> <VdW>
1.172

> <VdW6>
-8.054

> <VdW12>
9.226

> <Bond>
0.258

> <Angle>
1.499

> <Pdih>
2.106

> <Idih>
0.000

> <Tether>
0.000

$$$$
VeraChem MOL file


 26 25  0  0  0  0  0  0  0  0999 V2000     
   17.6279   17.7499   20.3870 C   0  0  0  0  0  0  0  0  0  0  0  0
   17.0806   18.6616   20.6564 H   0  0  0  0  0  0  0  0  0  0  0  0
   18.2789   17.9782   19.5332 H   0  0  0  0  0  0  0  0  0  0  0  0
   16.8892   17.0082   20.0567 H   0  0  0  0  0  0  0  0  0  0  0  0
   18.4458   17.2037   21.5794 C   0  0  0  0  0  0  0  0  0  0  0  0
   18.8686   16.2286   21.2997 H   0  0  0  0  0  0  0  0  0  0  0  0
   17.7773   17.0154   22.4312 H   0  0  0  0  0  0  0  0  0  0  0  0
   19.6007   18.1374   22.0156 C   0  0  0  0  0  0  0  0  0  0  0  0
   20.1964   17.6102   22.7722 H   0  0  0  0  0  0  0  0  0  0  0  0
   20.2704   18.3141   21.1627 H   0  0  0  0  0  0  0  0  0  0  0  0
   19.1142   19.4935   22.5874 C   0  0  0  0  0  0  0  0  0  0  0  0
   18.4220   19.3190   23.4216 H   0  0  0  0  0  0  0  0  0  0  0  0
   18.5378   20.0279   21.8212 H   0  0  0  0  0  0  0  0  0  0  0  0
   20.2742   20.4161   23.0430 C   0  0  0  0  0  0  0  0  0  0  0  0
   20.9022   20.6490   22.1728 H   0  0  0  0  0  0  0  0  0  0  0  0
   19.8563   21.3727   23.3836 H   0  0  0  0  0  0  0  0  0  0  0  0
   21.1618   19.8217   24.1598 C   0  0  1  0  0  0  0  0  0  0  0  0
   21.5913   18.8833   23.7970 H   0  0  0  0  0  0  0  0  0  0  0  0
   22.3175   20.7793   24.4905 C   0  0  0  0  0  0  0  0  0  0  0  0
   22.9745   20.3457   25.2546 H   0  0  0  0  0  0  0  0  0  0  0  0
   21.9427   21.7394   24.8669 H   0  0  0  0  0  0  0  0  0  0  0  0
   22.9274   20.9761   23.6000 H   0  0  0  0  0  0  0  0  0  0  0  0
   20.3781   19.4885   25.3997 N   0  3  0  0  0  0  0  0  0  0  0  0
   19.6293   18.8207   25.1975 H   0  0  0  0  0  0  0  0  0  0  0  0
   20.9751   19.0727   26.1201 H   0  0  0  0  0  0  0  0  0  0  0  0
   19.9463   20.3238   25.8036 H   0  0  0  0  0  0  0  0  0  0  0  0
  1  2  1  0  0  0  0
  1  3  1  0  0  0  0
  1  4  1  0  0  0  0
  1  5  1  0  0  0  0
  5  6  1  0  0  0  0
  5  7  1  0  0  0  0
  5  8  1  0  0  0  0
  8  9  1  0  0  0  0
  8 10  1  0  0  0  0
  8 11  1  0  0  0  0
 11 12  1  0  0  0  0
 11 13  1  0  0  0  0
 11 14  1  0  0  0  0
 14 15  1  0  0  0  0
 14 16  1  0  0  0  0
 14 17  1  0  0  0  0
 17 18  1  0  0  0  0
 17 19  1  0  0  0  0
 19 20  1  0  0  0  0
 19 21  1  0  0  0  0
 19 22  1  0  0  0  0
 17 23  1  0  0  0  0
 23 24  1  0  0  0  0
 23 25  1  0  0  0  0
 23 26  1  0  0  0  0
M  END
> <VConfSearch Rank>
27

> <Conf_Id>
113

> <Delta U+W>
1.137

> <U+W>
-29.162

> <U>
24.833

> <W>
-53.995

> <W(PB)>
-56.288

> <W(SA)>
2.294

> <Valence>
3.589

> <Coulomb>
20.270

> <VdW>
0.974

> <VdW6>
-8.255

> <VdW12>
9.229

> <Bond>
0.244

> <Angle>
1.377

> <Pdih>
1.967

> <Idih>
0.000

> <Tether>
0.000

$$$$
VeraChem MOL file


 26 25  0  0  0  0  0  0  0  0999 V2000     
   23.5707   20.2972   22.9135 C   0  0  0  0  0  0  0  0  0  0  0  0
   24.2351   20.2800   23.7872 H   0  0  0  0  0  0  0  0  0  0  0  0
   23.9666   19.5880   22.1749 H   0  0  0  0  0  0  0  0  0  0  0  0
   23.6135   21.3040   22.4779 H   0  0  0  0  0  0  0  0  0  0  0  0
   22.1279   19.9282   23.3187 C   0  0  0  0  0  0  0  0  0  0  0  0
   21.7706   20.6370   24.0787 H   0  0  0  0  0  0  0  0  0  0  0  0
   22.1329   18.9347   23.7864 H   0  0  0  0  0  0  0  0  0  0  0  0
   21.1730   19.9415   22.1015 C   0  0  0  0  0  0  0  0  0  0  0  0
   21.2456   20.9177   21.6024 H   0  0  0  0  0  0  0  0  0  0  0  0
   21.5007   19.1946   21.3654 H   0  0  0  0  0  0  0  0  0  0  0  0
   19.6909   19.6899   22.4731 C   0  0  0  0  0  0  0  0  0  0  0  0
   19.0832   19.8379   21.5709 H   0  0  0  0  0  0  0  0  0  0  0  0
   19.3678   20.4529   23.1936 H   0  0  0  0  0  0  0  0  0  0  0  0
   19.4326   18.2695   23.0460 C   0  0  0  0  0  0  0  0  0  0  0  0
   19.8585   17.5217   22.3644 H   0  0  0  0  0  0  0  0  0  0  0  0
   19.9661   18.1520   23.9975 H   0  0  0  0  0  0  0  0  0  0  0  0
   17.9427   17.9255   23.2814 C   0  0  1  0  0  0  0  0  0  0  0  0
   17.9032   16.9042   23.6730 H   0  0  0  0  0  0  0  0  0  0  0  0
   17.2947   18.8502   24.3267 C   0  0  0  0  0  0  0  0  0  0  0  0
   17.2153   19.8812   23.9620 H   0  0  0  0  0  0  0  0  0  0  0  0
   17.8782   18.8577   25.2557 H   0  0  0  0  0  0  0  0  0  0  0  0
   16.2836   18.5027   24.5720 H   0  0  0  0  0  0  0  0  0  0  0  0
   17.1462   17.9122   22.0055 N   0  3  0  0  0  0  0  0  0  0  0  0
   17.5468   17.2665   21.3193 H   0  0  0  0  0  0  0  0  0  0  0  0
   16.1789   17.6202   22.1714 H   0  0  0  0  0  0  0  0  0  0  0  0
   17.1167   18.8398   21.5755 H   0  0  0  0  0  0  0  0  0  0  0  0
  1  2  1  0  0  0  0
  1  3  1  0  0  0  0
  1  4  1  0  0  0  0
  1  5  1  0  0  0  0
  5  6  1  0  0  0  0
  5  7  1  0  0  0  0
  5  8  1  0  0  0  0
  8  9  1  0  0  0  0
  8 10  1  0  0  0  0
  8 11  1  0  0  0  0
 11 12  1  0  0  0  0
 11 13  1  0  0  0  0
 11 14  1  0  0  0  0
 14 15  1  0  0  0  0
 14 16  1  0  0  0  0
 14 17  1  0  0  0  0
 17 18  1  0  0  0  0
 17 19  1  0  0  0  0
 19 20  1  0  0  0  0
 19 21  1  0  0  0  0
 19 22  1  0  0  0  0
 17 23  1  0  0  0  0
 23 24  1  0  0  0  0
 23 25  1  0  0  0  0
 23 26  1  0  0  0  0
M  END
> <VConfSearch Rank>
28

> <Conf_Id>
45

> <Delta U+W>
1.035

> <U+W>
-29.264

> <U>
24.725

> <W>
-53.989

> <W(PB)>
-56.298

> <W(SA)>
2.309

> <Valence>
3.780

> <Coulomb>
19.804

> <VdW>
1.141

> <VdW6>
-8.104

> <VdW12>
9.246

> <Bond>
0.254

> <Angle>
1.437

> <Pdih>
2.089

> <Idih>
0.000

> <Tether>
0.000

$$$$
VeraChem MOL file


 26 25  0  0  0  0  0  0  0  0999 V2000     
   18.3249   21.4954   25.7939 C   0  0  0  0  0  0  0  0  0  0  0  0
   17.5579   21.1782   26.5124 H   0  0  0  0  0  0  0  0  0  0  0  0
   19.1192   22.0066   26.3533 H   0  0  0  0  0  0  0  0  0  0  0  0
   17.8664   22.2216   25.1101 H   0  0  0  0  0  0  0  0  0  0  0  0
   18.8827   20.2815   25.0208 C   0  0  0  0  0  0  0  0  0  0  0  0
   18.0534   19.7744   24.5103 H   0  0  0  0  0  0  0  0  0  0  0  0
   19.3079   19.5607   25.7330 H   0  0  0  0  0  0  0  0  0  0  0  0
   19.9633   20.7053   23.9978 C   0  0  0  0  0  0  0  0  0  0  0  0
   19.5231   21.3819   23.2524 H   0  0  0  0  0  0  0  0  0  0  0  0
   20.7381   21.2843   24.5191 H   0  0  0  0  0  0  0  0  0  0  0  0
   20.6436   19.5133   23.2802 C   0  0  0  0  0  0  0  0  0  0  0  0
   21.0848   18.8386   24.0270 H   0  0  0  0  0  0  0  0  0  0  0  0
   21.4796   19.9073   22.6876 H   0  0  0  0  0  0  0  0  0  0  0  0
   19.6849   18.7168   22.3578 C   0  0  0  0  0  0  0  0  0  0  0  0
   18.8638   18.3046   22.9572 H   0  0  0  0  0  0  0  0  0  0  0  0
   19.2292   19.3932   21.6225 H   0  0  0  0  0  0  0  0  0  0  0  0
   20.3842   17.5503   21.6260 C   0  0  1  0  0  0  0  0  0  0  0  0
   20.8603   16.9113   22.3761 H   0  0  0  0  0  0  0  0  0  0  0  0
   19.3535   16.7069   20.8583 C   0  0  0  0  0  0  0  0  0  0  0  0
   18.8453   17.3033   20.0902 H   0  0  0  0  0  0  0  0  0  0  0  0
   18.5921   16.3063   21.5391 H   0  0  0  0  0  0  0  0  0  0  0  0
   19.8385   15.8557   20.3647 H   0  0  0  0  0  0  0  0  0  0  0  0
   21.4741   18.0186   20.7004 N   0  3  0  0  0  0  0  0  0  0  0  0
   22.1945   18.5421   21.2046 H   0  0  0  0  0  0  0  0  0  0  0  0
   21.9363   17.2306   20.2381 H   0  0  0  0  0  0  0  0  0  0  0  0
   21.1046   18.6298   19.9675 H   0  0  0  0  0  0  0  0  0  0  0  0
  1  2  1  0  0  0  0
  1  3  1  0  0  0  0
  1  4  1  0  0  0  0
  1  5  1  0  0  0  0
  5  6  1  0  0  0  0
  5  7  1  0  0  0  0
  5  8  1  0  0  0  0
  8  9  1  0  0  0  0
  8 10  1  0  0  0  0
  8 11  1  0  0  0  0
 11 12  1  0  0  0  0
 11 13  1  0  0  0  0
 11 14  1  0  0  0  0
 14 15  1  0  0  0  0
 14 16  1  0  0  0  0
 14 17  1  0  0  0  0
 17 18  1  0  0  0  0
 17 19  1  0  0  0  0
 19 20  1  0  0  0  0
 19 21  1  0  0  0  0
 19 22  1  0  0  0  0
 17 23  1  0  0  0  0
 23 24  1  0  0  0  0
 23 25  1  0  0  0  0
 23 26  1  0  0  0  0
M  END
> <VConfSearch Rank>
29

> <Conf_Id>
121

> <Delta U+W>
0.736

> <U+W>
-29.562

> <U>
24.282

> <W>
-53.844

> <W(PB)>
-56.205

> <W(SA)>
2.361

> <Valence>
3.311

> <Coulomb>
19.887

> <VdW>
1.083

> <VdW6>
-7.444

> <VdW12>
8.527

> <Bond>
0.219

> <Angle>
1.167

> <Pdih>
1.926

> <Idih>
0.000

> <Tether>
0.000

$$$$
VeraChem MOL file


 26 25  0  0  0  0  0  0  0  0999 V2000     
   17.2287   16.6558   22.2432 C   0  0  0  0  0  0  0  0  0  0  0  0
   16.9093   15.7034   21.8007 H   0  0  0  0  0  0  0  0  0  0  0  0
   16.6848   16.7858   23.1878 H   0  0  0  0  0  0  0  0  0  0  0  0
   16.9237   17.4556   21.5572 H   0  0  0  0  0  0  0  0  0  0  0  0
   18.7566   16.6578   22.4766 C   0  0  0  0  0  0  0  0  0  0  0  0
   19.2781   16.5609   21.5141 H   0  0  0  0  0  0  0  0  0  0  0  0
   19.0249   15.7673   23.0621 H   0  0  0  0  0  0  0  0  0  0  0  0
   19.2657   17.9138   23.2242 C   0  0  0  0  0  0  0  0  0  0  0  0
   18.7474   18.0013   24.1890 H   0  0  0  0  0  0  0  0  0  0  0  0
   20.3283   17.7635   23.4558 H   0  0  0  0  0  0  0  0  0  0  0  0
   19.0916   19.2248   22.4161 C   0  0  0  0  0  0  0  0  0  0  0  0
   18.0274   19.3822   22.1982 H   0  0  0  0  0  0  0  0  0  0  0  0
   19.5885   19.1307   21.4416 H   0  0  0  0  0  0  0  0  0  0  0  0
   19.6161   20.4784   23.1636 C   0  0  0  0  0  0  0  0  0  0  0  0
   19.4329   21.3654   22.5428 H   0  0  0  0  0  0  0  0  0  0  0  0
   19.0165   20.6150   24.0732 H   0  0  0  0  0  0  0  0  0  0  0  0
   21.1116   20.4342   23.5581 C   0  0  1  0  0  0  0  0  0  0  0  0
   21.2779   19.5539   24.1858 H   0  0  0  0  0  0  0  0  0  0  0  0
   22.0321   20.3363   22.3285 C   0  0  0  0  0  0  0  0  0  0  0  0
   21.8609   21.1708   21.6372 H   0  0  0  0  0  0  0  0  0  0  0  0
   21.8692   19.3991   21.7835 H   0  0  0  0  0  0  0  0  0  0  0  0
   23.0860   20.3562   22.6319 H   0  0  0  0  0  0  0  0  0  0  0  0
   21.4860   21.6248   24.3964 N   0  3  0  0  0  0  0  0  0  0  0  0
   20.9133   21.6854   25.2432 H   0  0  0  0  0  0  0  0  0  0  0  0
   22.4648   21.5803   24.6939 H   0  0  0  0  0  0  0  0  0  0  0  0
   21.3639   22.4998   23.8797 H   0  0  0  0  0  0  0  0  0  0  0  0
  1  2  1  0  0  0  0
  1  3  1  0  0  0  0
  1  4  1  0  0  0  0
  1  5  1  0  0  0  0
  5  6  1  0  0  0  0
  5  7  1  0  0  0  0
  5  8  1  0  0  0  0
  8  9  1  0  0  0  0
  8 10  1  0  0  0  0
  8 11  1  0  0  0  0
 11 12  1  0  0  0  0
 11 13  1  0  0  0  0
 11 14  1  0  0  0  0
 14 15  1  0  0  0  0
 14 16  1  0  0  0  0
 14 17  1  0  0  0  0
 17 18  1  0  0  0  0
 17 19  1  0  0  0  0
 19 20  1  0  0  0  0
 19 21  1  0  0  0  0
 19 22  1  0  0  0  0
 17 23  1  0  0  0  0
 23 24  1  0  0  0  0
 23 25  1  0  0  0  0
 23 26  1  0  0  0  0
M  END
> <VConfSearch Rank>
30

> <Conf_Id>
5

> <Delta U+W>
1.233

> <U+W>
-29.065

> <U>
25.023

> <W>
-54.088

> <W(PB)>
-56.383

> <W(SA)>
2.296

> <Valence>
4.083

> <Coulomb>
19.893

> <VdW>
1.047

> <VdW6>
-8.479

> <VdW12>
9.527

> <Bond>
0.256

> <Angle>
1.716

> <Pdih>
2.112

> <Idih>
0.000

> <Tether>
0.000

$$$$
VeraChem MOL file


 26 25  0  0  0  0  0  0  0  0999 V2000     
   21.3974   19.9720   26.1708 C   0  0  0  0  0  0  0  0  0  0  0  0
   21.8007   19.7129   27.1583 H   0  0  0  0  0  0  0  0  0  0  0  0
   22.2494   20.1862   25.5141 H   0  0  0  0  0  0  0  0  0  0  0  0
   20.8071   20.8909   26.2803 H   0  0  0  0  0  0  0  0  0  0  0  0
   20.5304   18.8162   25.6214 C   0  0  0  0  0  0  0  0  0  0  0  0
   19.7729   18.5565   26.3741 H   0  0  0  0  0  0  0  0  0  0  0  0
   21.1506   17.9188   25.4879 H   0  0  0  0  0  0  0  0  0  0  0  0
   19.8115   19.1592   24.2942 C   0  0  0  0  0  0  0  0  0  0  0  0
   19.1196   18.3387   24.0644 H   0  0  0  0  0  0  0  0  0  0  0  0
   19.1973   20.0597   24.4322 H   0  0  0  0  0  0  0  0  0  0  0  0
   20.7802   19.3616   23.1023 C   0  0  0  0  0  0  0  0  0  0  0  0
   21.3704   18.4472   22.9516 H   0  0  0  0  0  0  0  0  0  0  0  0
   21.4986   20.1554   23.3435 H   0  0  0  0  0  0  0  0  0  0  0  0
   20.0769   19.7428   21.7746 C   0  0  0  0  0  0  0  0  0  0  0  0
   19.5538   20.7017   21.8883 H   0  0  0  0  0  0  0  0  0  0  0  0
   20.8612   19.9219   21.0272 H   0  0  0  0  0  0  0  0  0  0  0  0
   19.1085   18.6569   21.2456 C   0  0  1  0  0  0  0  0  0  0  0  0
   19.3483   17.7132   21.7451 H   0  0  0  0  0  0  0  0  0  0  0  0
   17.6405   19.0137   21.5426 C   0  0  0  0  0  0  0  0  0  0  0  0
   17.3421   19.9283   21.0149 H   0  0  0  0  0  0  0  0  0  0  0  0
   17.4744   19.1742   22.6136 H   0  0  0  0  0  0  0  0  0  0  0  0
   16.9736   18.2042   21.2213 H   0  0  0  0  0  0  0  0  0  0  0  0
   19.2914   18.4091   19.7732 N   0  3  0  0  0  0  0  0  0  0  0  0
   20.2504   18.1232   19.5556 H   0  0  0  0  0  0  0  0  0  0  0  0
   18.6697   17.6673   19.4387 H   0  0  0  0  0  0  0  0  0  0  0  0
   19.0879   19.2485   19.2240 H   0  0  0  0  0  0  0  0  0  0  0  0
  1  2  1  0  0  0  0
  1  3  1  0  0  0  0
  1  4  1  0  0  0  0
  1  5  1  0  0  0  0
  5  6  1  0  0  0  0
  5  7  1  0  0  0  0
  5  8  1  0  0  0  0
  8  9  1  0  0  0  0
  8 10  1  0  0  0  0
  8 11  1  0  0  0  0
 11 12  1  0  0  0  0
 11 13  1  0  0  0  0
 11 14  1  0  0  0  0
 14 15  1  0  0  0  0
 14 16  1  0  0  0  0
 14 17  1  0  0  0  0
 17 18  1  0  0  0  0
 17 19  1  0  0  0  0
 19 20  1  0  0  0  0
 19 21  1  0  0  0  0
 19 22  1  0  0  0  0
 17 23  1  0  0  0  0
 23 24  1  0  0  0  0
 23 25  1  0  0  0  0
 23 26  1  0  0  0  0
M  END
> <VConfSearch Rank>
31

> <Conf_Id>
100

> <Delta U+W>
3.818

> <U+W>
-26.481

> <U>
27.496

> <W>
-53.977

> <W(PB)>
-56.267

> <W(SA)>
2.290

> <Valence>
6.472

> <Coulomb>
19.839

> <VdW>
1.185

> <VdW6>
-8.405

> <VdW12>
9.590

> <Bond>
0.248

> <Angle>
1.619

> <Pdih>
4.604

> <Idih>
0.000

> <Tether>
0.000

$$$$
VeraChem MOL file


 26 25  0  0  0  0  0  0  0  0999 V2000     
   17.8713   16.4056   21.1654 C   0  0  0  0  0  0  0  0  0  0  0  0
   17.8367   15.8836   20.2004 H   0  0  0  0  0  0  0  0  0  0  0  0
   18.3484   15.7366   21.8935 H   0  0  0  0  0  0  0  0  0  0  0  0
   16.8377   16.5829   21.4899 H   0  0  0  0  0  0  0  0  0  0  0  0
   18.6486   17.7331   21.0392 C   0  0  0  0  0  0  0  0  0  0  0  0
   18.1682   18.3658   20.2797 H   0  0  0  0  0  0  0  0  0  0  0  0
   19.6670   17.5262   20.6815 H   0  0  0  0  0  0  0  0  0  0  0  0
   18.7121   18.4891   22.3847 C   0  0  0  0  0  0  0  0  0  0  0  0
   17.6908   18.6915   22.7360 H   0  0  0  0  0  0  0  0  0  0  0  0
   19.1796   17.8439   23.1377 H   0  0  0  0  0  0  0  0  0  0  0  0
   19.4859   19.8244   22.2570 C   0  0  0  0  0  0  0  0  0  0  0  0
   18.9698   20.4456   21.5120 H   0  0  0  0  0  0  0  0  0  0  0  0
   20.4905   19.6435   21.8533 H   0  0  0  0  0  0  0  0  0  0  0  0
   19.5655   20.6252   23.5869 C   0  0  0  0  0  0  0  0  0  0  0  0
   19.5037   21.6952   23.3486 H   0  0  0  0  0  0  0  0  0  0  0  0
   18.6811   20.4157   24.2030 H   0  0  0  0  0  0  0  0  0  0  0  0
   20.8444   20.4128   24.4348 C   0  0  1  0  0  0  0  0  0  0  0  0
   20.7406   21.0310   25.3319 H   0  0  0  0  0  0  0  0  0  0  0  0
   21.0228   18.9574   24.8962 C   0  0  0  0  0  0  0  0  0  0  0  0
   21.2571   18.2949   24.0545 H   0  0  0  0  0  0  0  0  0  0  0  0
   20.1141   18.5896   25.3886 H   0  0  0  0  0  0  0  0  0  0  0  0
   21.8453   18.8828   25.6180 H   0  0  0  0  0  0  0  0  0  0  0  0
   22.0810   20.9074   23.7351 N   0  3  0  0  0  0  0  0  0  0  0  0
   21.9951   21.8933   23.4722 H   0  0  0  0  0  0  0  0  0  0  0  0
   22.9081   20.8218   24.3325 H   0  0  0  0  0  0  0  0  0  0  0  0
   22.2636   20.3759   22.8805 H   0  0  0  0  0  0  0  0  0  0  0  0
  1  2  1  0  0  0  0
  1  3  1  0  0  0  0
  1  4  1  0  0  0  0
  1  5  1  0  0  0  0
  5  6  1  0  0  0  0
  5  7  1  0  0  0  0
  5  8  1  0  0  0  0
  8  9  1  0  0  0  0
  8 10  1  0  0  0  0
  8 11  1  0  0  0  0
 11 12  1  0  0  0  0
 11 13  1  0  0  0  0
 11 14  1  0  0  0  0
 14 15  1  0  0  0  0
 14 16  1  0  0  0  0
 14 17  1  0  0  0  0
 17 18  1  0  0  0  0
 17 19  1  0  0  0  0
 19 20  1  0  0  0  0
 19 21  1  0  0  0  0
 19 22  1  0  0  0  0
 17 23  1  0  0  0  0
 23 24  1  0  0  0  0
 23 25  1  0  0  0  0
 23 26  1  0  0  0  0
M  END
> <VConfSearch Rank>
32

> <Conf_Id>
142

> <Delta U+W>
2.978

> <U+W>
-27.320

> <U>
26.848

> <W>
-54.168

> <W(PB)>
-56.427

> <W(SA)>
2.259

> <Valence>
5.823

> <Coulomb>
20.057

> <VdW>
0.968

> <VdW6>
-8.367

> <VdW12>
9.335

> <Bond>
0.267

> <Angle>
1.799

> <Pdih>
3.758

> <Idih>
0.000

> <Tether>
0.000

$$$$
VeraChem MOL file


 26 25  0  0  0  0  0  0  0  0999 V2000     
   16.7229   17.5039   22.9865 C   0  0  0  0  0  0  0  0  0  0  0  0
   16.5136   17.6875   21.9246 H   0  0  0  0  0  0  0  0  0  0  0  0
   16.0877   16.6706   23.3138 H   0  0  0  0  0  0  0  0  0  0  0  0
   16.4192   18.3909   23.5555 H   0  0  0  0  0  0  0  0  0  0  0  0
   18.2146   17.1651   23.2088 C   0  0  0  0  0  0  0  0  0  0  0  0
   18.4306   16.2015   22.7264 H   0  0  0  0  0  0  0  0  0  0  0  0
   18.4067   17.0210   24.2812 H   0  0  0  0  0  0  0  0  0  0  0  0
   19.1835   18.2302   22.6402 C   0  0  0  0  0  0  0  0  0  0  0  0
   20.1986   17.8223   22.7086 H   0  0  0  0  0  0  0  0  0  0  0  0
   18.9719   18.3851   21.5733 H   0  0  0  0  0  0  0  0  0  0  0  0
   19.1225   19.5833   23.3929 C   0  0  0  0  0  0  0  0  0  0  0  0
   19.3975   19.4330   24.4453 H   0  0  0  0  0  0  0  0  0  0  0  0
   18.0854   19.9411   23.4062 H   0  0  0  0  0  0  0  0  0  0  0  0
   19.9910   20.7132   22.7704 C   0  0  0  0  0  0  0  0  0  0  0  0
   19.6254   20.9358   21.7594 H   0  0  0  0  0  0  0  0  0  0  0  0
   19.8119   21.6275   23.3513 H   0  0  0  0  0  0  0  0  0  0  0  0
   21.5244   20.4922   22.7136 C   0  0  1  0  0  0  0  0  0  0  0  0
   21.9726   21.4615   22.4743 H   0  0  0  0  0  0  0  0  0  0  0  0
   22.1054   20.0411   24.0650 C   0  0  0  0  0  0  0  0  0  0  0  0
   21.7732   19.0308   24.3320 H   0  0  0  0  0  0  0  0  0  0  0  0
   21.8022   20.7263   24.8663 H   0  0  0  0  0  0  0  0  0  0  0  0
   23.2016   20.0352   24.0291 H   0  0  0  0  0  0  0  0  0  0  0  0
   21.9504   19.5761   21.5992 N   0  3  0  0  0  0  0  0  0  0  0  0
   21.6245   19.9160   20.6900 H   0  0  0  0  0  0  0  0  0  0  0  0
   22.9702   19.4998   21.5481 H   0  0  0  0  0  0  0  0  0  0  0  0
   21.5770   18.6337   21.7276 H   0  0  0  0  0  0  0  0  0  0  0  0
  1  2  1  0  0  0  0
  1  3  1  0  0  0  0
  1  4  1  0  0  0  0
  1  5  1  0  0  0  0
  5  6  1  0  0  0  0
  5  7  1  0  0  0  0
  5  8  1  0  0  0  0
  8  9  1  0  0  0  0
  8 10  1  0  0  0  0
  8 11  1  0  0  0  0
 11 12  1  0  0  0  0
 11 13  1  0  0  0  0
 11 14  1  0  0  0  0
 14 15  1  0  0  0  0
 14 16  1  0  0  0  0
 14 17  1  0  0  0  0
 17 18  1  0  0  0  0
 17 19  1  0  0  0  0
 19 20  1  0  0  0  0
 19 21  1  0  0  0  0
 19 22  1  0  0  0  0
 17 23  1  0  0  0  0
 23 24  1  0  0  0  0
 23 25  1  0  0  0  0
 23 26  1  0  0  0  0
M  END
> <VConfSearch Rank>
33

> <Conf_Id>
119

> <Delta U+W>
3.538

> <U+W>
-26.761

> <U>
27.482

> <W>
-54.243

> <W(PB)>
-56.494

> <W(SA)>
2.251

> <Valence>
5.284

> <Coulomb>
21.247

> <VdW>
0.951

> <VdW6>
-9.416

> <VdW12>
10.367

> <Bond>
0.323

> <Angle>
2.522

> <Pdih>
2.439

> <Idih>
0.000

> <Tether>
0.000

$$$$
VeraChem MOL file


 26 25  0  0  0  0  0  0  0  0999 V2000     
   21.8762   17.3431   25.2198 C   0  0  0  0  0  0  0  0  0  0  0  0
   21.9403   16.3420   24.7741 H   0  0  0  0  0  0  0  0  0  0  0  0
   22.5628   18.0058   24.6786 H   0  0  0  0  0  0  0  0  0  0  0  0
   22.2337   17.2730   26.2553 H   0  0  0  0  0  0  0  0  0  0  0  0
   20.4259   17.8760   25.1835 C   0  0  0  0  0  0  0  0  0  0  0  0
   20.3942   18.8899   25.6060 H   0  0  0  0  0  0  0  0  0  0  0  0
   19.8027   17.2508   25.8382 H   0  0  0  0  0  0  0  0  0  0  0  0
   19.8060   17.8809   23.7652 C   0  0  0  0  0  0  0  0  0  0  0  0
   19.8164   16.8598   23.3597 H   0  0  0  0  0  0  0  0  0  0  0  0
   18.7498   18.1611   23.8534 H   0  0  0  0  0  0  0  0  0  0  0  0
   20.5287   18.8365   22.7810 C   0  0  0  0  0  0  0  0  0  0  0  0
   21.5485   18.4625   22.6210 H   0  0  0  0  0  0  0  0  0  0  0  0
   20.6387   19.8314   23.2311 H   0  0  0  0  0  0  0  0  0  0  0  0
   19.8328   18.9354   21.3946 C   0  0  0  0  0  0  0  0  0  0  0  0
   20.6102   19.0163   20.6235 H   0  0  0  0  0  0  0  0  0  0  0  0
   19.3044   17.9985   21.1740 H   0  0  0  0  0  0  0  0  0  0  0  0
   18.8646   20.1295   21.2041 C   0  0  1  0  0  0  0  0  0  0  0  0
   18.4545   20.0524   20.1924 H   0  0  0  0  0  0  0  0  0  0  0  0
   17.6812   20.1027   22.1850 C   0  0  0  0  0  0  0  0  0  0  0  0
   18.0088   20.2852   23.2154 H   0  0  0  0  0  0  0  0  0  0  0  0
   17.1660   19.1349   22.1482 H   0  0  0  0  0  0  0  0  0  0  0  0
   16.9503   20.8780   21.9247 H   0  0  0  0  0  0  0  0  0  0  0  0
   19.5759   21.4541   21.2601 N   0  3  0  0  0  0  0  0  0  0  0  0
   20.3321   21.5037   20.5716 H   0  0  0  0  0  0  0  0  0  0  0  0
   18.9364   22.2302   21.0675 H   0  0  0  0  0  0  0  0  0  0  0  0
   19.9877   21.6173   22.1819 H   0  0  0  0  0  0  0  0  0  0  0  0
  1  2  1  0  0  0  0
  1  3  1  0  0  0  0
  1  4  1  0  0  0  0
  1  5  1  0  0  0  0
  5  6  1  0  0  0  0
  5  7  1  0  0  0  0
  5  8  1  0  0  0  0
  8  9  1  0  0  0  0
  8 10  1  0  0  0  0
  8 11  1  0  0  0  0
 11 12  1  0  0  0  0
 11 13  1  0  0  0  0
 11 14  1  0  0  0  0
 14 15  1  0  0  0  0
 14 16  1  0  0  0  0
 14 17  1  0  0  0  0
 17 18  1  0  0  0  0
 17 19  1  0  0  0  0
 19 20  1  0  0  0  0
 19 21  1  0  0  0  0
 19 22  1  0  0  0  0
 17 23  1  0  0  0  0
 23 24  1  0  0  0  0
 23 25  1  0  0  0  0
 23 26  1  0  0  0  0
M  END
> <VConfSearch Rank>
34

> <Conf_Id>
127

> <Delta U+W>
3.544

> <U+W>
-26.754

> <U>
27.509

> <W>
-54.263

> <W(PB)>
-56.496

> <W(SA)>
2.232

> <Valence>
6.375

> <Coulomb>
20.014

> <VdW>
1.120

> <VdW6>
-8.976

> <VdW12>
10.096

> <Bond>
0.304

> <Angle>
1.986

> <Pdih>
4.086

> <Idih>
0.000

> <Tether>
0.000

$$$$
VeraChem MOL file


 26 25  0  0  0  0  0  0  0  0999 V2000     
   20.4735   20.6133   25.7634 C   0  0  0  0  0  0  0  0  0  0  0  0
   19.9525   21.2919   26.4512 H   0  0  0  0  0  0  0  0  0  0  0  0
   21.4865   20.4553   26.1558 H   0  0  0  0  0  0  0  0  0  0  0  0
   20.5622   21.1232   24.7979 H   0  0  0  0  0  0  0  0  0  0  0  0
   19.7121   19.2722   25.6468 C   0  0  0  0  0  0  0  0  0  0  0  0
   18.6760   19.4474   25.3253 H   0  0  0  0  0  0  0  0  0  0  0  0
   19.6456   18.8327   26.6520 H   0  0  0  0  0  0  0  0  0  0  0  0
   20.4040   18.2518   24.7065 C   0  0  0  0  0  0  0  0  0  0  0  0
   21.4898   18.4198   24.6960 H   0  0  0  0  0  0  0  0  0  0  0  0
   20.2651   17.2479   25.1311 H   0  0  0  0  0  0  0  0  0  0  0  0
   19.8547   18.2242   23.2566 C   0  0  0  0  0  0  0  0  0  0  0  0
   18.7918   17.9498   23.2822 H   0  0  0  0  0  0  0  0  0  0  0  0
   20.3685   17.4157   22.7213 H   0  0  0  0  0  0  0  0  0  0  0  0
   20.0344   19.5584   22.4843 C   0  0  0  0  0  0  0  0  0  0  0  0
   19.4381   20.3393   22.9712 H   0  0  0  0  0  0  0  0  0  0  0  0
   21.0815   19.8818   22.5514 H   0  0  0  0  0  0  0  0  0  0  0  0
   19.6206   19.5102   20.9942 C   0  0  1  0  0  0  0  0  0  0  0  0
   19.7231   20.5248   20.5970 H   0  0  0  0  0  0  0  0  0  0  0  0
   20.5390   18.5953   20.1649 C   0  0  0  0  0  0  0  0  0  0  0  0
   21.5923   18.8667   20.3078 H   0  0  0  0  0  0  0  0  0  0  0  0
   20.3131   18.6939   19.0961 H   0  0  0  0  0  0  0  0  0  0  0  0
   20.4159   17.5402   20.4357 H   0  0  0  0  0  0  0  0  0  0  0  0
   18.1759   19.1345   20.8106 N   0  3  0  0  0  0  0  0  0  0  0  0
   17.5550   19.7688   21.3211 H   0  0  0  0  0  0  0  0  0  0  0  0
   17.9031   19.1674   19.8242 H   0  0  0  0  0  0  0  0  0  0  0  0
   17.9934   18.1863   21.1480 H   0  0  0  0  0  0  0  0  0  0  0  0
  1  2  1  0  0  0  0
  1  3  1  0  0  0  0
  1  4  1  0  0  0  0
  1  5  1  0  0  0  0
  5  6  1  0  0  0  0
  5  7  1  0  0  0  0
  5  8  1  0  0  0  0
  8  9  1  0  0  0  0
  8 10  1  0  0  0  0
  8 11  1  0  0  0  0
 11 12  1  0  0  0  0
 11 13  1  0  0  0  0
 11 14  1  0  0  0  0
 14 15  1  0  0  0  0
 14 16  1  0  0  0  0
 14 17  1  0  0  0  0
 17 18  1  0  0  0  0
 17 19  1  0  0  0  0
 19 20  1  0  0  0  0
 19 21  1  0  0  0  0
 19 22  1  0  0  0  0
 17 23  1  0  0  0  0
 23 24  1  0  0  0  0
 23 25  1  0  0  0  0
 23 26  1  0  0  0  0
M  END
> <VConfSearch Rank>
35

> <Conf_Id>
131

> <Delta U+W>
3.589

> <U+W>
-26.710

> <U>
27.573

> <W>
-54.283

> <W(PB)>
-56.537

> <W(SA)>
2.254

> <Valence>
6.363

> <Coulomb>
20.026

> <VdW>
1.184

> <VdW6>
-8.939

> <VdW12>
10.123

> <Bond>
0.298

> <Angle>
2.018

> <Pdih>
4.047

> <Idih>
0.000

> <Tether>
0.000

$$$$
VeraChem MOL file


 26 25  0  0  0  0  0  0  0  0999 V2000     
   20.8402   20.1311   20.5896 C   0  0  0  0  0  0  0  0  0  0  0  0
   20.7728   19.1028   20.2115 H   0  0  0  0  0  0  0  0  0  0  0  0
   19.8810   20.3997   21.0489 H   0  0  0  0  0  0  0  0  0  0  0  0
   20.9881   20.7964   19.7291 H   0  0  0  0  0  0  0  0  0  0  0  0
   22.0039   20.2813   21.5934 C   0  0  0  0  0  0  0  0  0  0  0  0
   21.9986   21.2994   22.0071 H   0  0  0  0  0  0  0  0  0  0  0  0
   22.9534   20.1793   21.0496 H   0  0  0  0  0  0  0  0  0  0  0  0
   21.9879   19.2500   22.7506 C   0  0  0  0  0  0  0  0  0  0  0  0
   22.1063   18.2334   22.3512 H   0  0  0  0  0  0  0  0  0  0  0  0
   22.8803   19.4311   23.3657 H   0  0  0  0  0  0  0  0  0  0  0  0
   20.7427   19.3274   23.6725 C   0  0  0  0  0  0  0  0  0  0  0  0
   20.3713   20.3598   23.6997 H   0  0  0  0  0  0  0  0  0  0  0  0
   21.0553   19.0884   24.6984 H   0  0  0  0  0  0  0  0  0  0  0  0
   19.6163   18.3387   23.2705 C   0  0  0  0  0  0  0  0  0  0  0  0
   19.2557   18.5526   22.2582 H   0  0  0  0  0  0  0  0  0  0  0  0
   20.0408   17.3267   23.2372 H   0  0  0  0  0  0  0  0  0  0  0  0
   18.4200   18.3321   24.2492 C   0  0  1  0  0  0  0  0  0  0  0  0
   18.8045   18.1705   25.2609 H   0  0  0  0  0  0  0  0  0  0  0  0
   17.6470   19.6633   24.2270 C   0  0  0  0  0  0  0  0  0  0  0  0
   17.2936   19.9002   23.2157 H   0  0  0  0  0  0  0  0  0  0  0  0
   18.2710   20.4938   24.5762 H   0  0  0  0  0  0  0  0  0  0  0  0
   16.7739   19.6139   24.8892 H   0  0  0  0  0  0  0  0  0  0  0  0
   17.4894   17.1865   23.9615 N   0  3  0  0  0  0  0  0  0  0  0  0
   17.0800   17.2621   23.0266 H   0  0  0  0  0  0  0  0  0  0  0  0
   17.9729   16.2854   24.0138 H   0  0  0  0  0  0  0  0  0  0  0  0
   16.7160   17.1556   24.6318 H   0  0  0  0  0  0  0  0  0  0  0  0
  1  2  1  0  0  0  0
  1  3  1  0  0  0  0
  1  4  1  0  0  0  0
  1  5  1  0  0  0  0
  5  6  1  0  0  0  0
  5  7  1  0  0  0  0
  5  8  1  0  0  0  0
  8  9  1  0  0  0  0
  8 10  1  0  0  0  0
  8 11  1  0  0  0  0
 11 12  1  0  0  0  0
 11 13  1  0  0  0  0
 11 14  1  0  0  0  0
 14 15  1  0  0  0  0
 14 16  1  0  0  0  0
 14 17  1  0  0  0  0
 17 18  1  0  0  0  0
 17 19  1  0  0  0  0
 19 20  1  0  0  0  0
 19 21  1  0  0  0  0
 19 22  1  0  0  0  0
 17 23  1  0  0  0  0
 23 24  1  0  0  0  0
 23 25  1  0  0  0  0
 23 26  1  0  0  0  0
M  END
> <VConfSearch Rank>
36

> <Conf_Id>
80

> <Delta U+W>
3.351

> <U+W>
-26.948

> <U>
27.261

> <W>
-54.209

> <W(PB)>
-56.471

> <W(SA)>
2.263

> <Valence>
6.230

> <Coulomb>
19.945

> <VdW>
1.087

> <VdW6>
-8.618

> <VdW12>
9.704

> <Bond>
0.277

> <Angle>
1.928

> <Pdih>
4.025

> <Idih>
0.000

> <Tether>
0.000

$$$$
VeraChem MOL file


 26 25  0  0  0  0  0  0  0  0999 V2000     
   18.9903   16.3247   24.5090 C   0  0  0  0  0  0  0  0  0  0  0  0
   19.5027   15.3898   24.7703 H   0  0  0  0  0  0  0  0  0  0  0  0
   18.0641   16.3759   25.0959 H   0  0  0  0  0  0  0  0  0  0  0  0
   18.7231   16.2681   23.4463 H   0  0  0  0  0  0  0  0  0  0  0  0
   19.9000   17.5398   24.7989 C   0  0  0  0  0  0  0  0  0  0  0  0
   20.8054   17.4795   24.1813 H   0  0  0  0  0  0  0  0  0  0  0  0
   20.2471   17.4790   25.8399 H   0  0  0  0  0  0  0  0  0  0  0  0
   19.1957   18.9068   24.5971 C   0  0  0  0  0  0  0  0  0  0  0  0
   18.3928   18.9948   25.3418 H   0  0  0  0  0  0  0  0  0  0  0  0
   19.9069   19.7044   24.8402 H   0  0  0  0  0  0  0  0  0  0  0  0
   18.5791   19.1470   23.1898 C   0  0  0  0  0  0  0  0  0  0  0  0
   18.0432   20.1060   23.1872 H   0  0  0  0  0  0  0  0  0  0  0  0
   17.8034   18.3891   23.0185 H   0  0  0  0  0  0  0  0  0  0  0  0
   19.5764   19.1124   21.9977 C   0  0  0  0  0  0  0  0  0  0  0  0
   20.3943   18.4086   22.1875 H   0  0  0  0  0  0  0  0  0  0  0  0
   19.0372   18.7058   21.1320 H   0  0  0  0  0  0  0  0  0  0  0  0
   20.1470   20.4879   21.5753 C   0  0  1  0  0  0  0  0  0  0  0  0
   19.3069   21.1447   21.3296 H   0  0  0  0  0  0  0  0  0  0  0  0
   20.9732   21.1617   22.6833 C   0  0  0  0  0  0  0  0  0  0  0  0
   20.3320   21.4698   23.5164 H   0  0  0  0  0  0  0  0  0  0  0  0
   21.4628   22.0676   22.3053 H   0  0  0  0  0  0  0  0  0  0  0  0
   21.7499   20.4885   23.0669 H   0  0  0  0  0  0  0  0  0  0  0  0
   20.9661   20.3656   20.3201 N   0  3  0  0  0  0  0  0  0  0  0  0
   20.4218   19.9629   19.5519 H   0  0  0  0  0  0  0  0  0  0  0  0
   21.3066   21.2785   20.0054 H   0  0  0  0  0  0  0  0  0  0  0  0
   21.7843   19.7679   20.4641 H   0  0  0  0  0  0  0  0  0  0  0  0
  1  2  1  0  0  0  0
  1  3  1  0  0  0  0
  1  4  1  0  0  0  0
  1  5  1  0  0  0  0
  5  6  1  0  0  0  0
  5  7  1  0  0  0  0
  5  8  1  0  0  0  0
  8  9  1  0  0  0  0
  8 10  1  0  0  0  0
  8 11  1  0  0  0  0
 11 12  1  0  0  0  0
 11 13  1  0  0  0  0
 11 14  1  0  0  0  0
 14 15  1  0  0  0  0
 14 16  1  0  0  0  0
 14 17  1  0  0  0  0
 17 18  1  0  0  0  0
 17 19  1  0  0  0  0
 19 20  1  0  0  0  0
 19 21  1  0  0  0  0
 19 22  1  0  0  0  0
 17 23  1  0  0  0  0
 23 24  1  0  0  0  0
 23 25  1  0  0  0  0
 23 26  1  0  0  0  0
M  END
> <VConfSearch Rank>
37

> <Conf_Id>
136

> <Delta U+W>
4.272

> <U+W>
-26.026

> <U>
28.262

> <W>
-54.288

> <W(PB)>
-56.488

> <W(SA)>
2.200

> <Valence>
7.096

> <Coulomb>
19.990

> <VdW>
1.175

> <VdW6>
-9.404

> <VdW12>
10.580

> <Bond>
0.360

> <Angle>
2.785

> <Pdih>
3.951

> <Idih>
0.000

> <Tether>
0.000

$$$$
VeraChem MOL file


 26 25  0  0  0  0  0  0  0  0999 V2000     
   20.7804   16.5703   21.9880 C   0  0  0  0  0  0  0  0  0  0  0  0
   20.0535   17.1950   21.4545 H   0  0  0  0  0  0  0  0  0  0  0  0
   21.0441   15.7360   21.3251 H   0  0  0  0  0  0  0  0  0  0  0  0
   20.2954   16.1507   22.8788 H   0  0  0  0  0  0  0  0  0  0  0  0
   22.0416   17.3765   22.3678 C   0  0  0  0  0  0  0  0  0  0  0  0
   22.4709   17.8288   21.4628 H   0  0  0  0  0  0  0  0  0  0  0  0
   22.8021   16.6813   22.7500 H   0  0  0  0  0  0  0  0  0  0  0  0
   21.8005   18.4761   23.4335 C   0  0  0  0  0  0  0  0  0  0  0  0
   21.4672   18.0217   24.3767 H   0  0  0  0  0  0  0  0  0  0  0  0
   22.7720   18.9391   23.6555 H   0  0  0  0  0  0  0  0  0  0  0  0
   20.8195   19.5958   22.9982 C   0  0  0  0  0  0  0  0  0  0  0  0
   20.8441   19.7127   21.9059 H   0  0  0  0  0  0  0  0  0  0  0  0
   21.1794   20.5457   23.4154 H   0  0  0  0  0  0  0  0  0  0  0  0
   19.3655   19.3603   23.4838 C   0  0  0  0  0  0  0  0  0  0  0  0
   19.0250   18.3685   23.1658 H   0  0  0  0  0  0  0  0  0  0  0  0
   19.3406   19.3563   24.5816 H   0  0  0  0  0  0  0  0  0  0  0  0
   18.3750   20.4167   22.9482 C   0  0  1  0  0  0  0  0  0  0  0  0
   18.4355   20.4197   21.8555 H   0  0  0  0  0  0  0  0  0  0  0  0
   16.9366   20.0534   23.3503 C   0  0  0  0  0  0  0  0  0  0  0  0
   16.8213   20.0375   24.4414 H   0  0  0  0  0  0  0  0  0  0  0  0
   16.6614   19.0644   22.9632 H   0  0  0  0  0  0  0  0  0  0  0  0
   16.2238   20.7803   22.9418 H   0  0  0  0  0  0  0  0  0  0  0  0
   18.7145   21.8096   23.4043 N   0  3  0  0  0  0  0  0  0  0  0  0
   18.6817   21.8869   24.4243 H   0  0  0  0  0  0  0  0  0  0  0  0
   19.6539   22.0830   23.1042 H   0  0  0  0  0  0  0  0  0  0  0  0
   18.0593   22.4982   23.0236 H   0  0  0  0  0  0  0  0  0  0  0  0
  1  2  1  0  0  0  0
  1  3  1  0  0  0  0
  1  4  1  0  0  0  0
  1  5  1  0  0  0  0
  5  6  1  0  0  0  0
  5  7  1  0  0  0  0
  5  8  1  0  0  0  0
  8  9  1  0  0  0  0
  8 10  1  0  0  0  0
  8 11  1  0  0  0  0
 11 12  1  0  0  0  0
 11 13  1  0  0  0  0
 11 14  1  0  0  0  0
 14 15  1  0  0  0  0
 14 16  1  0  0  0  0
 14 17  1  0  0  0  0
 17 18  1  0  0  0  0
 17 19  1  0  0  0  0
 19 20  1  0  0  0  0
 19 21  1  0  0  0  0
 19 22  1  0  0  0  0
 17 23  1  0  0  0  0
 23 24  1  0  0  0  0
 23 25  1  0  0  0  0
 23 26  1  0  0  0  0
M  END
> <VConfSearch Rank>
38

> <Conf_Id>
124

> <Delta U+W>
3.001

> <U+W>
-27.298

> <U>
26.787

> <W>
-54.085

> <W(PB)>
-56.347

> <W(SA)>
2.262

> <Valence>
5.742

> <Coulomb>
20.023

> <VdW>
1.022

> <VdW6>
-8.392

> <VdW12>
9.414

> <Bond>
0.261

> <Angle>
1.576

> <Pdih>
3.904

> <Idih>
0.000

> <Tether>
0.000

$$$$
VeraChem MOL file


 26 25  0  0  0  0  0  0  0  0999 V2000     
   20.9805   16.2256   22.4887 C   0  0  0  0  0  0  0  0  0  0  0  0
   20.2339   15.5092   22.1222 H   0  0  0  0  0  0  0  0  0  0  0  0
   21.9217   15.6797   22.6341 H   0  0  0  0  0  0  0  0  0  0  0  0
   20.6506   16.5841   23.4697 H   0  0  0  0  0  0  0  0  0  0  0  0
   21.1769   17.3819   21.4806 C   0  0  0  0  0  0  0  0  0  0  0  0
   21.5356   16.9492   20.5362 H   0  0  0  0  0  0  0  0  0  0  0  0
   21.9724   18.0576   21.8243 H   0  0  0  0  0  0  0  0  0  0  0  0
   19.8779   18.1791   21.1953 C   0  0  0  0  0  0  0  0  0  0  0  0
   19.8898   18.4833   20.1395 H   0  0  0  0  0  0  0  0  0  0  0  0
   18.9999   17.5277   21.3047 H   0  0  0  0  0  0  0  0  0  0  0  0
   19.7005   19.4626   22.0471 C   0  0  0  0  0  0  0  0  0  0  0  0
   18.7969   19.9779   21.6967 H   0  0  0  0  0  0  0  0  0  0  0  0
   20.5395   20.1419   21.8458 H   0  0  0  0  0  0  0  0  0  0  0  0
   19.5900   19.2019   23.5728 C   0  0  0  0  0  0  0  0  0  0  0  0
   18.8507   18.4108   23.7535 H   0  0  0  0  0  0  0  0  0  0  0  0
   20.5486   18.8211   23.9461 H   0  0  0  0  0  0  0  0  0  0  0  0
   19.2027   20.4391   24.4170 C   0  0  1  0  0  0  0  0  0  0  0  0
   19.1646   20.1195   25.4631 H   0  0  0  0  0  0  0  0  0  0  0  0
   20.2498   21.5614   24.3106 C   0  0  0  0  0  0  0  0  0  0  0  0
   20.2788   21.9942   23.3035 H   0  0  0  0  0  0  0  0  0  0  0  0
   21.2514   21.1843   24.5520 H   0  0  0  0  0  0  0  0  0  0  0  0
   20.0198   22.3692   25.0162 H   0  0  0  0  0  0  0  0  0  0  0  0
   17.8271   20.9520   24.0893 N   0  3  0  0  0  0  0  0  0  0  0  0
   17.5623   21.7294   24.7008 H   0  0  0  0  0  0  0  0  0  0  0  0
   17.7755   21.2892   23.1251 H   0  0  0  0  0  0  0  0  0  0  0  0
   17.1179   20.2216   24.1990 H   0  0  0  0  0  0  0  0  0  0  0  0
  1  2  1  0  0  0  0
  1  3  1  0  0  0  0
  1  4  1  0  0  0  0
  1  5  1  0  0  0  0
  5  6  1  0  0  0  0
  5  7  1  0  0  0  0
  5  8  1  0  0  0  0
  8  9  1  0  0  0  0
  8 10  1  0  0  0  0
  8 11  1  0  0  0  0
 11 12  1  0  0  0  0
 11 13  1  0  0  0  0
 11 14  1  0  0  0  0
 14 15  1  0  0  0  0
 14 16  1  0  0  0  0
 14 17  1  0  0  0  0
 17 18  1  0  0  0  0
 17 19  1  0  0  0  0
 19 20  1  0  0  0  0
 19 21  1  0  0  0  0
 19 22  1  0  0  0  0
 17 23  1  0  0  0  0
 23 24  1  0  0  0  0
 23 25  1  0  0  0  0
 23 26  1  0  0  0  0
M  END
> <VConfSearch Rank>
39

> <Conf_Id>
105

> <Delta U+W>
3.442

> <U+W>
-26.857

> <U>
27.313

> <W>
-54.169

> <W(PB)>
-56.414

> <W(SA)>
2.245

> <Valence>
6.229

> <Coulomb>
19.943

> <VdW>
1.140

> <VdW6>
-9.001

> <VdW12>
10.140

> <Bond>
0.294

> <Angle>
1.969

> <Pdih>
3.967

> <Idih>
0.000

> <Tether>
0.000

$$$$
VeraChem MOL file


 26 25  0  0  0  0  0  0  0  0999 V2000     
   18.2701   16.5227   23.7180 C   0  0  0  0  0  0  0  0  0  0  0  0
   18.0835   16.3483   24.7856 H   0  0  0  0  0  0  0  0  0  0  0  0
   17.9750   15.6147   23.1763 H   0  0  0  0  0  0  0  0  0  0  0  0
   19.3489   16.6537   23.5811 H   0  0  0  0  0  0  0  0  0  0  0  0
   17.4648   17.7410   23.2088 C   0  0  0  0  0  0  0  0  0  0  0  0
   16.3969   17.5212   23.3470 H   0  0  0  0  0  0  0  0  0  0  0  0
   17.6091   17.8693   22.1270 H   0  0  0  0  0  0  0  0  0  0  0  0
   17.7971   19.0578   23.9571 C   0  0  0  0  0  0  0  0  0  0  0  0
   16.8748   19.6506   24.0299 H   0  0  0  0  0  0  0  0  0  0  0  0
   18.0920   18.8424   24.9933 H   0  0  0  0  0  0  0  0  0  0  0  0
   18.8672   19.9451   23.2700 C   0  0  0  0  0  0  0  0  0  0  0  0
   18.9617   20.8765   23.8455 H   0  0  0  0  0  0  0  0  0  0  0  0
   18.5064   20.2338   22.2737 H   0  0  0  0  0  0  0  0  0  0  0  0
   20.2625   19.2837   23.1527 C   0  0  0  0  0  0  0  0  0  0  0  0
   20.5446   18.8704   24.1301 H   0  0  0  0  0  0  0  0  0  0  0  0
   20.2187   18.4433   22.4488 H   0  0  0  0  0  0  0  0  0  0  0  0
   21.3570   20.2712   22.6940 C   0  0  1  0  0  0  0  0  0  0  0  0
   21.3765   21.1112   23.3952 H   0  0  0  0  0  0  0  0  0  0  0  0
   22.7350   19.5906   22.7182 C   0  0  0  0  0  0  0  0  0  0  0  0
   22.7697   18.7392   22.0270 H   0  0  0  0  0  0  0  0  0  0  0  0
   22.9707   19.2233   23.7248 H   0  0  0  0  0  0  0  0  0  0  0  0
   23.5224   20.2977   22.4295 H   0  0  0  0  0  0  0  0  0  0  0  0
   21.0766   20.8493   21.3337 N   0  3  0  0  0  0  0  0  0  0  0  0
   20.1800   21.3425   21.3150 H   0  0  0  0  0  0  0  0  0  0  0  0
   21.7998   21.5185   21.0552 H   0  0  0  0  0  0  0  0  0  0  0  0
   21.0423   20.1192   20.6175 H   0  0  0  0  0  0  0  0  0  0  0  0
  1  2  1  0  0  0  0
  1  3  1  0  0  0  0
  1  4  1  0  0  0  0
  1  5  1  0  0  0  0
  5  6  1  0  0  0  0
  5  7  1  0  0  0  0
  5  8  1  0  0  0  0
  8  9  1  0  0  0  0
  8 10  1  0  0  0  0
  8 11  1  0  0  0  0
 11 12  1  0  0  0  0
 11 13  1  0  0  0  0
 11 14  1  0  0  0  0
 14 15  1  0  0  0  0
 14 16  1  0  0  0  0
 14 17  1  0  0  0  0
 17 18  1  0  0  0  0
 17 19  1  0  0  0  0
 19 20  1  0  0  0  0
 19 21  1  0  0  0  0
 19 22  1  0  0  0  0
 17 23  1  0  0  0  0
 23 24  1  0  0  0  0
 23 25  1  0  0  0  0
 23 26  1  0  0  0  0
M  END
> <VConfSearch Rank>
40

> <Conf_Id>
107

> <Delta U+W>
2.995

> <U+W>
-27.304

> <U>
26.796

> <W>
-54.100

> <W(PB)>
-56.404

> <W(SA)>
2.304

> <Valence>
5.706

> <Coulomb>
20.107

> <VdW>
0.982

> <VdW6>
-8.396

> <VdW12>
9.378

> <Bond>
0.254

> <Angle>
1.644

> <Pdih>
3.808

> <Idih>
0.000

> <Tether>
0.000

$$$$
VeraChem MOL file


 26 25  0  0  0  0  0  0  0  0999 V2000     
   19.2936   15.5534   25.0826 C   0  0  0  0  0  0  0  0  0  0  0  0
   18.4899   15.1336   24.4637 H   0  0  0  0  0  0  0  0  0  0  0  0
   19.9121   14.7208   25.4420 H   0  0  0  0  0  0  0  0  0  0  0  0
   18.8360   16.0351   25.9566 H   0  0  0  0  0  0  0  0  0  0  0  0
   20.1460   16.5579   24.2785 C   0  0  0  0  0  0  0  0  0  0  0  0
   20.6173   16.0399   23.4314 H   0  0  0  0  0  0  0  0  0  0  0  0
   20.9607   16.9343   24.9129 H   0  0  0  0  0  0  0  0  0  0  0  0
   19.2987   17.7411   23.7604 C   0  0  0  0  0  0  0  0  0  0  0  0
   18.4840   17.3589   23.1297 H   0  0  0  0  0  0  0  0  0  0  0  0
   18.8284   18.2546   24.6104 H   0  0  0  0  0  0  0  0  0  0  0  0
   20.1487   18.7489   22.9538 C   0  0  0  0  0  0  0  0  0  0  0  0
   20.6156   18.2348   22.1021 H   0  0  0  0  0  0  0  0  0  0  0  0
   20.9639   19.1206   23.5888 H   0  0  0  0  0  0  0  0  0  0  0  0
   19.2971   19.9341   22.4372 C   0  0  0  0  0  0  0  0  0  0  0  0
   18.4571   19.5383   21.8509 H   0  0  0  0  0  0  0  0  0  0  0  0
   18.8590   20.4749   23.2867 H   0  0  0  0  0  0  0  0  0  0  0  0
   20.1006   20.9148   21.5557 C   0  0  1  0  0  0  0  0  0  0  0  0
   20.5458   20.3489   20.7315 H   0  0  0  0  0  0  0  0  0  0  0  0
   19.1698   21.9831   20.9598 C   0  0  0  0  0  0  0  0  0  0  0  0
   18.6972   22.5824   21.7481 H   0  0  0  0  0  0  0  0  0  0  0  0
   18.3760   21.5188   20.3614 H   0  0  0  0  0  0  0  0  0  0  0  0
   19.7278   22.6615   20.3027 H   0  0  0  0  0  0  0  0  0  0  0  0
   21.2366   21.5613   22.3006 N   0  3  0  0  0  0  0  0  0  0  0  0
   20.8978   22.1108   23.0946 H   0  0  0  0  0  0  0  0  0  0  0  0
   21.8906   20.8634   22.6648 H   0  0  0  0  0  0  0  0  0  0  0  0
   21.7692   22.1929   21.6958 H   0  0  0  0  0  0  0  0  0  0  0  0
  1  2  1  0  0  0  0
  1  3  1  0  0  0  0
  1  4  1  0  0  0  0
  1  5  1  0  0  0  0
  5  6  1  0  0  0  0
  5  7  1  0  0  0  0
  5  8  1  0  0  0  0
  8  9  1  0  0  0  0
  8 10  1  0  0  0  0
  8 11  1  0  0  0  0
 11 12  1  0  0  0  0
 11 13  1  0  0  0  0
 11 14  1  0  0  0  0
 14 15  1  0  0  0  0
 14 16  1  0  0  0  0
 14 17  1  0  0  0  0
 17 18  1  0  0  0  0
 17 19  1  0  0  0  0
 19 20  1  0  0  0  0
 19 21  1  0  0  0  0
 19 22  1  0  0  0  0
 17 23  1  0  0  0  0
 23 24  1  0  0  0  0
 23 25  1  0  0  0  0
 23 26  1  0  0  0  0
M  END
> <VConfSearch Rank>
41

> <Conf_Id>
122

> <Delta U+W>
0.000

> <U+W>
-30.299

> <U>
23.517

> <W>
-53.816

> <W(PB)>
-56.162

> <W(SA)>
2.346

> <Valence>
2.737

> <Coulomb>
19.862

> <VdW>
0.919

> <VdW6>
-6.793

> <VdW12>
7.712

> <Bond>
0.171

> <Angle>
0.873

> <Pdih>
1.693

> <Idih>
0.000

> <Tether>
0.000

$$$$
VeraChem MOL file


 26 25  0  0  0  0  0  0  0  0999 V2000     
   20.9383   23.1558   23.4222 C   0  0  0  0  0  0  0  0  0  0  0  0
   20.7366   23.9802   24.1185 H   0  0  0  0  0  0  0  0  0  0  0  0
   22.0248   23.0021   23.3877 H   0  0  0  0  0  0  0  0  0  0  0  0
   20.6054   23.4688   22.4240 H   0  0  0  0  0  0  0  0  0  0  0  0
   20.2103   21.8716   23.8726 C   0  0  0  0  0  0  0  0  0  0  0  0
   19.1302   22.0662   23.9303 H   0  0  0  0  0  0  0  0  0  0  0  0
   20.5387   21.6030   24.8865 H   0  0  0  0  0  0  0  0  0  0  0  0
   20.4778   20.6944   22.9087 C   0  0  0  0  0  0  0  0  0  0  0  0
   20.1497   20.9683   21.8963 H   0  0  0  0  0  0  0  0  0  0  0  0
   21.5590   20.5066   22.8524 H   0  0  0  0  0  0  0  0  0  0  0  0
   19.7506   19.4062   23.3566 C   0  0  0  0  0  0  0  0  0  0  0  0
   18.6731   19.6077   23.4177 H   0  0  0  0  0  0  0  0  0  0  0  0
   20.0828   19.1304   24.3671 H   0  0  0  0  0  0  0  0  0  0  0  0
   20.0171   18.2293   22.3860 C   0  0  0  0  0  0  0  0  0  0  0  0
   19.6273   18.4756   21.3893 H   0  0  0  0  0  0  0  0  0  0  0  0
   21.1027   18.1078   22.2741 H   0  0  0  0  0  0  0  0  0  0  0  0
   19.4212   16.8837   22.8595 C   0  0  1  0  0  0  0  0  0  0  0  0
   19.7907   16.6814   23.8695 H   0  0  0  0  0  0  0  0  0  0  0  0
   17.8826   16.9123   22.9003 C   0  0  0  0  0  0  0  0  0  0  0  0
   17.4644   17.1753   21.9207 H   0  0  0  0  0  0  0  0  0  0  0  0
   17.5163   17.6368   23.6366 H   0  0  0  0  0  0  0  0  0  0  0  0
   17.4856   15.9307   23.1870 H   0  0  0  0  0  0  0  0  0  0  0  0
   19.8975   15.7468   21.9983 N   0  3  0  0  0  0  0  0  0  0  0  0
   19.5901   15.8574   21.0284 H   0  0  0  0  0  0  0  0  0  0  0  0
   20.9193   15.6809   21.9915 H   0  0  0  0  0  0  0  0  0  0  0  0
   19.5373   14.8483   22.3320 H   0  0  0  0  0  0  0  0  0  0  0  0
  1  2  1  0  0  0  0
  1  3  1  0  0  0  0
  1  4  1  0  0  0  0
  1  5  1  0  0  0  0
  5  6  1  0  0  0  0
  5  7  1  0  0  0  0
  5  8  1  0  0  0  0
  8  9  1  0  0  0  0
  8 10  1  0  0  0  0
  8 11  1  0  0  0  0
 11 12  1  0  0  0  0
 11 13  1  0  0  0  0
 11 14  1  0  0  0  0
 14 15  1  0  0  0  0
 14 16  1  0  0  0  0
 14 17  1  0  0  0  0
 17 18  1  0  0  0  0
 17 19  1  0  0  0  0
 19 20  1  0  0  0  0
 19 21  1  0  0  0  0
 19 22  1  0  0  0  0
 17 23  1  0  0  0  0
 23 24  1  0  0  0  0
 23 25  1  0  0  0  0
 23 26  1  0  0  0  0
M  END
> <VConfSearch Rank>
42

> <Conf_Id>
54

> <Delta U+W>
0.453

> <U+W>
-29.845

> <U>
23.817

> <W>
-53.663

> <W(PB)>
-56.021

> <W(SA)>
2.358

> <Valence>
3.277

> <Coulomb>
19.492

> <VdW>
1.049

> <VdW6>
-6.949

> <VdW12>
7.998

> <Bond>
0.183

> <Angle>
1.152

> <Pdih>
1.942

> <Idih>
0.000

> <Tether>
0.000

$$$$
VeraChem MOL file


 26 25  0  0  0  0  0  0  0  0999 V2000     
   21.4691   15.9637   22.0774 C   0  0  0  0  0  0  0  0  0  0  0  0
   22.4552   16.4400   22.1528 H   0  0  0  0  0  0  0  0  0  0  0  0
   21.1416   15.6887   23.0873 H   0  0  0  0  0  0  0  0  0  0  0  0
   21.5892   15.0337   21.5068 H   0  0  0  0  0  0  0  0  0  0  0  0
   20.4526   16.8969   21.3803 C   0  0  0  0  0  0  0  0  0  0  0  0
   19.4663   16.4133   21.3472 H   0  0  0  0  0  0  0  0  0  0  0  0
   20.7626   17.0330   20.3347 H   0  0  0  0  0  0  0  0  0  0  0  0
   20.3329   18.2898   22.0453 C   0  0  0  0  0  0  0  0  0  0  0  0
   21.3270   18.7543   22.1022 H   0  0  0  0  0  0  0  0  0  0  0  0
   19.7222   18.9173   21.3853 H   0  0  0  0  0  0  0  0  0  0  0  0
   19.6862   18.2471   23.4528 C   0  0  0  0  0  0  0  0  0  0  0  0
   20.2216   17.5203   24.0765 H   0  0  0  0  0  0  0  0  0  0  0  0
   18.6555   17.8758   23.3697 H   0  0  0  0  0  0  0  0  0  0  0  0
   19.6872   19.6004   24.2122 C   0  0  0  0  0  0  0  0  0  0  0  0
   19.2988   19.4025   25.2202 H   0  0  0  0  0  0  0  0  0  0  0  0
   20.7169   19.9544   24.3536 H   0  0  0  0  0  0  0  0  0  0  0  0
   18.8308   20.7134   23.5624 C   0  0  1  0  0  0  0  0  0  0  0  0
   17.9246   20.2570   23.1521 H   0  0  0  0  0  0  0  0  0  0  0  0
   18.4114   21.7515   24.6166 C   0  0  0  0  0  0  0  0  0  0  0  0
   17.7911   22.5355   24.1650 H   0  0  0  0  0  0  0  0  0  0  0  0
   19.2873   22.2289   25.0737 H   0  0  0  0  0  0  0  0  0  0  0  0
   17.8220   21.2825   25.4144 H   0  0  0  0  0  0  0  0  0  0  0  0
   19.5354   21.4036   22.4261 N   0  3  0  0  0  0  0  0  0  0  0  0
   19.8202   20.7400   21.7025 H   0  0  0  0  0  0  0  0  0  0  0  0
   18.9336   22.1039   21.9834 H   0  0  0  0  0  0  0  0  0  0  0  0
   20.3779   21.8860   22.7498 H   0  0  0  0  0  0  0  0  0  0  0  0
  1  2  1  0  0  0  0
  1  3  1  0  0  0  0
  1  4  1  0  0  0  0
  1  5  1  0  0  0  0
  5  6  1  0  0  0  0
  5  7  1  0  0  0  0
  5  8  1  0  0  0  0
  8  9  1  0  0  0  0
  8 10  1  0  0  0  0
  8 11  1  0  0  0  0
 11 12  1  0  0  0  0
 11 13  1  0  0  0  0
 11 14  1  0  0  0  0
 14 15  1  0  0  0  0
 14 16  1  0  0  0  0
 14 17  1  0  0  0  0
 17 18  1  0  0  0  0
 17 19  1  0  0  0  0
 19 20  1  0  0  0  0
 19 21  1  0  0  0  0
 19 22  1  0  0  0  0
 17 23  1  0  0  0  0
 23 24  1  0  0  0  0
 23 25  1  0  0  0  0
 23 26  1  0  0  0  0
M  END
> <VConfSearch Rank>
43

> <Conf_Id>
110

> <Delta U+W>
3.764

> <U+W>
-26.535

> <U>
27.400

> <W>
-53.935

> <W(PB)>
-56.238

> <W(SA)>
2.303

> <Valence>
5.205

> <Coulomb>
21.096

> <VdW>
1.098

> <VdW6>
-8.389

> <VdW12>
9.488

> <Bond>
0.270

> <Angle>
1.912

> <Pdih>
3.023

> <Idih>
0.000

> <Tether>
0.000

$$$$
VeraChem MOL file


 26 25  0  0  0  0  0  0  0  0999 V2000     
   22.3853   21.3043   21.4132 C   0  0  0  0  0  0  0  0  0  0  0  0
   22.6625   22.2651   20.9605 H   0  0  0  0  0  0  0  0  0  0  0  0
   22.6239   21.3628   22.4824 H   0  0  0  0  0  0  0  0  0  0  0  0
   23.0147   20.5265   20.9616 H   0  0  0  0  0  0  0  0  0  0  0  0
   20.8858   21.0099   21.1815 C   0  0  0  0  0  0  0  0  0  0  0  0
   20.6729   21.0823   20.1057 H   0  0  0  0  0  0  0  0  0  0  0  0
   20.2778   21.7854   21.6678 H   0  0  0  0  0  0  0  0  0  0  0  0
   20.4479   19.6122   21.6815 C   0  0  0  0  0  0  0  0  0  0  0  0
   19.4081   19.4466   21.3750 H   0  0  0  0  0  0  0  0  0  0  0  0
   21.0405   18.8405   21.1711 H   0  0  0  0  0  0  0  0  0  0  0  0
   20.5838   19.4375   23.2162 C   0  0  0  0  0  0  0  0  0  0  0  0
   20.1109   20.2781   23.7425 H   0  0  0  0  0  0  0  0  0  0  0  0
   21.6495   19.4761   23.4779 H   0  0  0  0  0  0  0  0  0  0  0  0
   20.0080   18.0927   23.7343 C   0  0  0  0  0  0  0  0  0  0  0  0
   20.0478   17.3312   22.9441 H   0  0  0  0  0  0  0  0  0  0  0  0
   20.6700   17.7301   24.5318 H   0  0  0  0  0  0  0  0  0  0  0  0
   18.5785   18.1815   24.3211 C   0  0  1  0  0  0  0  0  0  0  0  0
   18.5897   18.9151   25.1330 H   0  0  0  0  0  0  0  0  0  0  0  0
   17.5339   18.6300   23.2850 C   0  0  0  0  0  0  0  0  0  0  0  0
   17.5386   17.9738   22.4058 H   0  0  0  0  0  0  0  0  0  0  0  0
   17.7233   19.6579   22.9547 H   0  0  0  0  0  0  0  0  0  0  0  0
   16.5264   18.6112   23.7184 H   0  0  0  0  0  0  0  0  0  0  0  0
   18.1677   16.8742   24.9401 N   0  3  0  0  0  0  0  0  0  0  0  0
   18.8235   16.5791   25.6692 H   0  0  0  0  0  0  0  0  0  0  0  0
   17.2418   16.9396   25.3725 H   0  0  0  0  0  0  0  0  0  0  0  0
   18.1265   16.1264   24.2426 H   0  0  0  0  0  0  0  0  0  0  0  0
  1  2  1  0  0  0  0
  1  3  1  0  0  0  0
  1  4  1  0  0  0  0
  1  5  1  0  0  0  0
  5  6  1  0  0  0  0
  5  7  1  0  0  0  0
  5  8  1  0  0  0  0
  8  9  1  0  0  0  0
  8 10  1  0  0  0  0
  8 11  1  0  0  0  0
 11 12  1  0  0  0  0
 11 13  1  0  0  0  0
 11 14  1  0  0  0  0
 14 15  1  0  0  0  0
 14 16  1  0  0  0  0
 14 17  1  0  0  0  0
 17 18  1  0  0  0  0
 17 19  1  0  0  0  0
 19 20  1  0  0  0  0
 19 21  1  0  0  0  0
 19 22  1  0  0  0  0
 17 23  1  0  0  0  0
 23 24  1  0  0  0  0
 23 25  1  0  0  0  0
 23 26  1  0  0  0  0
M  END
> <VConfSearch Rank>
44

> <Conf_Id>
34

> <Delta U+W>
3.568

> <U+W>
-26.731

> <U>
27.221

> <W>
-53.952

> <W(PB)>
-56.213

> <W(SA)>
2.261

> <Valence>
6.368

> <Coulomb>
19.698

> <VdW>
1.155

> <VdW6>
-8.532

> <VdW12>
9.687

> <Bond>
0.272

> <Angle>
1.847

> <Pdih>
4.248

> <Idih>
0.000

> <Tether>
0.000

$$$$
VeraChem MOL file


 26 25  0  0  0  0  0  0  0  0999 V2000     
   21.6523   22.7517   23.0782 C   0  0  0  0  0  0  0  0  0  0  0  0
   21.0175   23.2181   23.8429 H   0  0  0  0  0  0  0  0  0  0  0  0
   22.5897   22.4388   23.5562 H   0  0  0  0  0  0  0  0  0  0  0  0
   21.8949   23.5168   22.3293 H   0  0  0  0  0  0  0  0  0  0  0  0
   20.9378   21.5523   22.4201 C   0  0  0  0  0  0  0  0  0  0  0  0
   21.5826   21.1286   21.6375 H   0  0  0  0  0  0  0  0  0  0  0  0
   20.0226   21.9019   21.9220 H   0  0  0  0  0  0  0  0  0  0  0  0
   20.5846   20.4597   23.4535 C   0  0  0  0  0  0  0  0  0  0  0  0
   21.5024   20.1157   23.9502 H   0  0  0  0  0  0  0  0  0  0  0  0
   19.9422   20.8890   24.2349 H   0  0  0  0  0  0  0  0  0  0  0  0
   19.8686   19.2568   22.7986 C   0  0  0  0  0  0  0  0  0  0  0  0
   20.5151   18.8344   22.0181 H   0  0  0  0  0  0  0  0  0  0  0  0
   18.9562   19.6117   22.3015 H   0  0  0  0  0  0  0  0  0  0  0  0
   19.5143   18.1651   23.8419 C   0  0  0  0  0  0  0  0  0  0  0  0
   20.4289   17.8558   24.3647 H   0  0  0  0  0  0  0  0  0  0  0  0
   18.8589   18.5965   24.6101 H   0  0  0  0  0  0  0  0  0  0  0  0
   18.8341   16.9033   23.2600 C   0  0  1  0  0  0  0  0  0  0  0  0
   18.6692   16.2107   24.0912 H   0  0  0  0  0  0  0  0  0  0  0  0
   17.4619   17.2194   22.6395 C   0  0  0  0  0  0  0  0  0  0  0  0
   17.5565   17.8347   21.7369 H   0  0  0  0  0  0  0  0  0  0  0  0
   16.8241   17.7533   23.3549 H   0  0  0  0  0  0  0  0  0  0  0  0
   16.9450   16.2931   22.3603 H   0  0  0  0  0  0  0  0  0  0  0  0
   19.7139   16.1762   22.2805 N   0  3  0  0  0  0  0  0  0  0  0  0
   19.2746   15.3111   21.9535 H   0  0  0  0  0  0  0  0  0  0  0  0
   19.9085   16.7514   21.4573 H   0  0  0  0  0  0  0  0  0  0  0  0
   20.6132   15.9228   22.6995 H   0  0  0  0  0  0  0  0  0  0  0  0
  1  2  1  0  0  0  0
  1  3  1  0  0  0  0
  1  4  1  0  0  0  0
  1  5  1  0  0  0  0
  5  6  1  0  0  0  0
  5  7  1  0  0  0  0
  5  8  1  0  0  0  0
  8  9  1  0  0  0  0
  8 10  1  0  0  0  0
  8 11  1  0  0  0  0
 11 12  1  0  0  0  0
 11 13  1  0  0  0  0
 11 14  1  0  0  0  0
 14 15  1  0  0  0  0
 14 16  1  0  0  0  0
 14 17  1  0  0  0  0
 17 18  1  0  0  0  0
 17 19  1  0  0  0  0
 19 20  1  0  0  0  0
 19 21  1  0  0  0  0
 19 22  1  0  0  0  0
 17 23  1  0  0  0  0
 23 24  1  0  0  0  0
 23 25  1  0  0  0  0
 23 26  1  0  0  0  0
M  END
> <VConfSearch Rank>
45

> <Conf_Id>
132

> <Delta U+W>
0.363

> <U+W>
-29.936

> <U>
24.060

> <W>
-53.996

> <W(PB)>
-56.327

> <W(SA)>
2.332

> <Valence>
3.249

> <Coulomb>
19.781

> <VdW>
1.030

> <VdW6>
-7.421

> <VdW12>
8.451

> <Bond>
0.207

> <Angle>
1.205

> <Pdih>
1.837

> <Idih>
0.000

> <Tether>
0.000

$$$$
VeraChem MOL file


 26 25  0  0  0  0  0  0  0  0999 V2000     
   19.1276   21.9246   20.2847 C   0  0  0  0  0  0  0  0  0  0  0  0
   19.0578   22.9955   20.5156 H   0  0  0  0  0  0  0  0  0  0  0  0
   19.8441   21.8036   19.4618 H   0  0  0  0  0  0  0  0  0  0  0  0
   18.1427   21.5908   19.9326 H   0  0  0  0  0  0  0  0  0  0  0  0
   19.5710   21.1265   21.5293 C   0  0  0  0  0  0  0  0  0  0  0  0
   18.8534   21.3064   22.3405 H   0  0  0  0  0  0  0  0  0  0  0  0
   20.5442   21.5023   21.8747 H   0  0  0  0  0  0  0  0  0  0  0  0
   19.6719   19.6122   21.2288 C   0  0  0  0  0  0  0  0  0  0  0  0
   18.6858   19.2256   20.9365 H   0  0  0  0  0  0  0  0  0  0  0  0
   20.3293   19.4653   20.3607 H   0  0  0  0  0  0  0  0  0  0  0  0
   20.2279   18.7791   22.4099 C   0  0  0  0  0  0  0  0  0  0  0  0
   21.2158   19.1671   22.6914 H   0  0  0  0  0  0  0  0  0  0  0  0
   20.3874   17.7536   22.0528 H   0  0  0  0  0  0  0  0  0  0  0  0
   19.2879   18.7589   23.6465 C   0  0  0  0  0  0  0  0  0  0  0  0
   19.1534   19.7800   24.0234 H   0  0  0  0  0  0  0  0  0  0  0  0
   18.2912   18.4149   23.3402 H   0  0  0  0  0  0  0  0  0  0  0  0
   19.7781   17.8804   24.8221 C   0  0  1  0  0  0  0  0  0  0  0  0
   19.0587   18.0007   25.6381 H   0  0  0  0  0  0  0  0  0  0  0  0
   19.8157   16.3864   24.4554 C   0  0  0  0  0  0  0  0  0  0  0  0
   20.5912   16.1691   23.7116 H   0  0  0  0  0  0  0  0  0  0  0  0
   18.8496   16.0593   24.0513 H   0  0  0  0  0  0  0  0  0  0  0  0
   20.0264   15.7793   25.3443 H   0  0  0  0  0  0  0  0  0  0  0  0
   21.1045   18.3361   25.3654 N   0  3  0  0  0  0  0  0  0  0  0  0
   21.0744   19.3175   25.6557 H   0  0  0  0  0  0  0  0  0  0  0  0
   21.3841   17.7843   26.1813 H   0  0  0  0  0  0  0  0  0  0  0  0
   21.8440   18.2442   24.6648 H   0  0  0  0  0  0  0  0  0  0  0  0
  1  2  1  0  0  0  0
  1  3  1  0  0  0  0
  1  4  1  0  0  0  0
  1  5  1  0  0  0  0
  5  6  1  0  0  0  0
  5  7  1  0  0  0  0
  5  8  1  0  0  0  0
  8  9  1  0  0  0  0
  8 10  1  0  0  0  0
  8 11  1  0  0  0  0
 11 12  1  0  0  0  0
 11 13  1  0  0  0  0
 11 14  1  0  0  0  0
 14 15  1  0  0  0  0
 14 16  1  0  0  0  0
 14 17  1  0  0  0  0
 17 18  1  0  0  0  0
 17 19  1  0  0  0  0
 19 20  1  0  0  0  0
 19 21  1  0  0  0  0
 19 22  1  0  0  0  0
 17 23  1  0  0  0  0
 23 24  1  0  0  0  0
 23 25  1  0  0  0  0
 23 26  1  0  0  0  0
M  END
> <VConfSearch Rank>
46

> <Conf_Id>
46

> <Delta U+W>
1.114

> <U+W>
-29.185

> <U>
24.990

> <W>
-54.175

> <W(PB)>
-56.455

> <W(SA)>
2.279

> <Valence>
3.862

> <Coulomb>
19.956

> <VdW>
1.172

> <VdW6>
-8.054

> <VdW12>
9.226

> <Bond>
0.258

> <Angle>
1.499

> <Pdih>
2.106

> <Idih>
0.000

> <Tether>
0.000

$$$$
VeraChem MOL file


 26 25  0  0  0  0  0  0  0  0999 V2000     
   17.6382   21.0986   20.7894 C   0  0  0  0  0  0  0  0  0  0  0  0
   17.0302   21.0469   21.7010 H   0  0  0  0  0  0  0  0  0  0  0  0
   18.2302   22.0224   20.8218 H   0  0  0  0  0  0  0  0  0  0  0  0
   16.9491   21.1715   19.9381 H   0  0  0  0  0  0  0  0  0  0  0  0
   18.5496   19.8590   20.6420 C   0  0  0  0  0  0  0  0  0  0  0  0
   19.0384   19.8958   19.6584 H   0  0  0  0  0  0  0  0  0  0  0  0
   17.9369   18.9467   20.6463 H   0  0  0  0  0  0  0  0  0  0  0  0
   19.6420   19.7621   21.7345 C   0  0  0  0  0  0  0  0  0  0  0  0
   20.3115   18.9325   21.4726 H   0  0  0  0  0  0  0  0  0  0  0  0
   20.2569   20.6725   21.7188 H   0  0  0  0  0  0  0  0  0  0  0  0
   19.0713   19.5416   23.1586 C   0  0  0  0  0  0  0  0  0  0  0  0
   18.4330   18.6483   23.1698 H   0  0  0  0  0  0  0  0  0  0  0  0
   18.4199   20.3837   23.4261 H   0  0  0  0  0  0  0  0  0  0  0  0
   20.1704   19.4235   24.2459 C   0  0  0  0  0  0  0  0  0  0  0  0
   20.7384   20.3628   24.2769 H   0  0  0  0  0  0  0  0  0  0  0  0
   19.6907   19.3235   25.2286 H   0  0  0  0  0  0  0  0  0  0  0  0
   21.1519   18.2482   24.0365 C   0  0  1  0  0  0  0  0  0  0  0  0
   21.6407   18.3751   23.0662 H   0  0  0  0  0  0  0  0  0  0  0  0
   22.2385   18.2592   25.1235 C   0  0  0  0  0  0  0  0  0  0  0  0
   22.9617   17.4512   24.9577 H   0  0  0  0  0  0  0  0  0  0  0  0
   21.8030   18.1285   26.1220 H   0  0  0  0  0  0  0  0  0  0  0  0
   22.7905   19.2072   25.1129 H   0  0  0  0  0  0  0  0  0  0  0  0
   20.4534   16.9167   23.9987 N   0  3  0  0  0  0  0  0  0  0  0  0
   19.7538   16.8853   23.2522 H   0  0  0  0  0  0  0  0  0  0  0  0
   21.1135   16.1515   23.8341 H   0  0  0  0  0  0  0  0  0  0  0  0
   19.9725   16.7226   24.8810 H   0  0  0  0  0  0  0  0  0  0  0  0
  1  2  1  0  0  0  0
  1  3  1  0  0  0  0
  1  4  1  0  0  0  0
  1  5  1  0  0  0  0
  5  6  1  0  0  0  0
  5  7  1  0  0  0  0
  5  8  1  0  0  0  0
  8  9  1  0  0  0  0
  8 10  1  0  0  0  0
  8 11  1  0  0  0  0
 11 12  1  0  0  0  0
 11 13  1  0  0  0  0
 11 14  1  0  0  0  0
 14 15  1  0  0  0  0
 14 16  1  0  0  0  0
 14 17  1  0  0  0  0
 17 18  1  0  0  0  0
 17 19  1  0  0  0  0
 19 20  1  0  0  0  0
 19 21  1  0  0  0  0
 19 22  1  0  0  0  0
 17 23  1  0  0  0  0
 23 24  1  0  0  0  0
 23 25  1  0  0  0  0
 23 26  1  0  0  0  0
M  END
> <VConfSearch Rank>
47

> <Conf_Id>
113

> <Delta U+W>
1.137

> <U+W>
-29.162

> <U>
24.833

> <W>
-53.995

> <W(PB)>
-56.288

> <W(SA)>
2.294

> <Valence>
3.589

> <Coulomb>
20.270

> <VdW>
0.974

> <VdW6>
-8.255

> <VdW12>
9.229

> <Bond>
0.244

> <Angle>
1.377

> <Pdih>
1.967

> <Idih>
0.000

> <Tether>
0.000

$$$$
VeraChem MOL file


 26 25  0  0  0  0  0  0  0  0999 V2000     
   18.1583   22.3906   21.4921 C   0  0  0  0  0  0  0  0  0  0  0  0
   18.4163   23.4122   21.8004 H   0  0  0  0  0  0  0  0  0  0  0  0
   18.4412   22.2752   20.4377 H   0  0  0  0  0  0  0  0  0  0  0  0
   17.0686   22.2812   21.5678 H   0  0  0  0  0  0  0  0  0  0  0  0
   18.8835   21.3548   22.3773 C   0  0  0  0  0  0  0  0  0  0  0  0
   18.6035   21.5142   23.4279 H   0  0  0  0  0  0  0  0  0  0  0  0
   19.9663   21.5228   22.3068 H   0  0  0  0  0  0  0  0  0  0  0  0
   18.5385   19.9061   21.9583 C   0  0  0  0  0  0  0  0  0  0  0  0
   17.4463   19.7856   21.9583 H   0  0  0  0  0  0  0  0  0  0  0  0
   18.8672   19.7311   20.9246 H   0  0  0  0  0  0  0  0  0  0  0  0
   19.1504   18.8292   22.8878 C   0  0  0  0  0  0  0  0  0  0  0  0
   18.7541   17.8515   22.5842 H   0  0  0  0  0  0  0  0  0  0  0  0
   18.8002   19.0011   23.9142 H   0  0  0  0  0  0  0  0  0  0  0  0
   20.7028   18.7944   22.8509 C   0  0  0  0  0  0  0  0  0  0  0  0
   21.0384   18.7312   21.8075 H   0  0  0  0  0  0  0  0  0  0  0  0
   21.1031   19.7380   23.2421 H   0  0  0  0  0  0  0  0  0  0  0  0
   21.3451   17.6312   23.6433 C   0  0  1  0  0  0  0  0  0  0  0  0
   22.4298   17.7190   23.5269 H   0  0  0  0  0  0  0  0  0  0  0  0
   21.0302   17.7138   25.1472 C   0  0  0  0  0  0  0  0  0  0  0  0
   19.9664   17.5406   25.3487 H   0  0  0  0  0  0  0  0  0  0  0  0
   21.3007   18.6983   25.5486 H   0  0  0  0  0  0  0  0  0  0  0  0
   21.6032   16.9601   25.7011 H   0  0  0  0  0  0  0  0  0  0  0  0
   20.9755   16.2830   23.0883 N   0  3  0  0  0  0  0  0  0  0  0  0
   21.2211   16.2045   22.0973 H   0  0  0  0  0  0  0  0  0  0  0  0
   21.4597   15.5289   23.5836 H   0  0  0  0  0  0  0  0  0  0  0  0
   19.9711   16.1088   23.1716 H   0  0  0  0  0  0  0  0  0  0  0  0
  1  2  1  0  0  0  0
  1  3  1  0  0  0  0
  1  4  1  0  0  0  0
  1  5  1  0  0  0  0
  5  6  1  0  0  0  0
  5  7  1  0  0  0  0
  5  8  1  0  0  0  0
  8  9  1  0  0  0  0
  8 10  1  0  0  0  0
  8 11  1  0  0  0  0
 11 12  1  0  0  0  0
 11 13  1  0  0  0  0
 11 14  1  0  0  0  0
 14 15  1  0  0  0  0
 14 16  1  0  0  0  0
 14 17  1  0  0  0  0
 17 18  1  0  0  0  0
 17 19  1  0  0  0  0
 19 20  1  0  0  0  0
 19 21  1  0  0  0  0
 19 22  1  0  0  0  0
 17 23  1  0  0  0  0
 23 24  1  0  0  0  0
 23 25  1  0  0  0  0
 23 26  1  0  0  0  0
M  END
> <VConfSearch Rank>
48

> <Conf_Id>
45

> <Delta U+W>
1.035

> <U+W>
-29.264

> <U>
24.725

> <W>
-53.989

> <W(PB)>
-56.298

> <W(SA)>
2.309

> <Valence>
3.780

> <Coulomb>
19.804

> <VdW>
1.141

> <VdW6>
-8.104

> <VdW12>
9.246

> <Bond>
0.254

> <Angle>
1.437

> <Pdih>
2.089

> <Idih>
0.000

> <Tether>
0.000

$$$$
VeraChem MOL file


 26 25  0  0  0  0  0  0  0  0999 V2000     
   20.5542   15.3828   24.0246 C   0  0  0  0  0  0  0  0  0  0  0  0
   21.1190   15.1060   24.9243 H   0  0  0  0  0  0  0  0  0  0  0  0
   19.6501   14.7611   23.9902 H   0  0  0  0  0  0  0  0  0  0  0  0
   21.1714   15.1376   23.1505 H   0  0  0  0  0  0  0  0  0  0  0  0
   20.1957   16.8839   24.0467 C   0  0  0  0  0  0  0  0  0  0  0  0
   21.1217   17.4688   24.1234 H   0  0  0  0  0  0  0  0  0  0  0  0
   19.6038   17.1035   24.9462 H   0  0  0  0  0  0  0  0  0  0  0  0
   19.4024   17.2987   22.7848 C   0  0  0  0  0  0  0  0  0  0  0  0
   20.0166   17.1317   21.8891 H   0  0  0  0  0  0  0  0  0  0  0  0
   18.5270   16.6423   22.6839 H   0  0  0  0  0  0  0  0  0  0  0  0
   18.9116   18.7674   22.8120 C   0  0  0  0  0  0  0  0  0  0  0  0
   18.2961   18.9322   23.7072 H   0  0  0  0  0  0  0  0  0  0  0  0
   18.2495   18.9192   21.9496 H   0  0  0  0  0  0  0  0  0  0  0  0
   20.0625   19.8057   22.7705 C   0  0  0  0  0  0  0  0  0  0  0  0
   20.7083   19.6667   23.6462 H   0  0  0  0  0  0  0  0  0  0  0  0
   20.6893   19.6309   21.8861 H   0  0  0  0  0  0  0  0  0  0  0  0
   19.5569   21.2651   22.7676 C   0  0  1  0  0  0  0  0  0  0  0  0
   18.9069   21.4045   23.6370 H   0  0  0  0  0  0  0  0  0  0  0  0
   20.7391   22.2402   22.8884 C   0  0  0  0  0  0  0  0  0  0  0  0
   21.4244   22.1408   22.0372 H   0  0  0  0  0  0  0  0  0  0  0  0
   21.3073   22.0527   23.8081 H   0  0  0  0  0  0  0  0  0  0  0  0
   20.3848   23.2778   22.9226 H   0  0  0  0  0  0  0  0  0  0  0  0
   18.7310   21.5887   21.5524 N   0  3  0  0  0  0  0  0  0  0  0  0
   17.9121   20.9788   21.4826 H   0  0  0  0  0  0  0  0  0  0  0  0
   18.3914   22.5544   21.5772 H   0  0  0  0  0  0  0  0  0  0  0  0
   19.2732   21.4768   20.6917 H   0  0  0  0  0  0  0  0  0  0  0  0
  1  2  1  0  0  0  0
  1  3  1  0  0  0  0
  1  4  1  0  0  0  0
  1  5  1  0  0  0  0
  5  6  1  0  0  0  0
  5  7  1  0  0  0  0
  5  8  1  0  0  0  0
  8  9  1  0  0  0  0
  8 10  1  0  0  0  0
  8 11  1  0  0  0  0
 11 12  1  0  0  0  0
 11 13  1  0  0  0  0
 11 14  1  0  0  0  0
 14 15  1  0  0  0  0
 14 16  1  0  0  0  0
 14 17  1  0  0  0  0
 17 18  1  0  0  0  0
 17 19  1  0  0  0  0
 19 20  1  0  0  0  0
 19 21  1  0  0  0  0
 19 22  1  0  0  0  0
 17 23  1  0  0  0  0
 23 24  1  0  0  0  0
 23 25  1  0  0  0  0
 23 26  1  0  0  0  0
M  END
> <VConfSearch Rank>
49

> <Conf_Id>
121

> <Delta U+W>
0.736

> <U+W>
-29.562

> <U>
24.282

> <W>
-53.844

> <W(PB)>
-56.205

> <W(SA)>
2.361

> <Valence>
3.311

> <Coulomb>
19.887

> <VdW>
1.083

> <VdW6>
-7.444

> <VdW12>
8.527

> <Bond>
0.219

> <Angle>
1.167

> <Pdih>
1.926

> <Idih>
0.000

> <Tether>
0.000

$$$$
VeraChem MOL file


 26 25  0  0  0  0  0  0  0  0999 V2000     
   16.8570   20.6815   24.5004 C   0  0  0  0  0  0  0  0  0  0  0  0
   16.2130   20.8611   25.3710 H   0  0  0  0  0  0  0  0  0  0  0  0
   16.8837   21.6045   23.9069 H   0  0  0  0  0  0  0  0  0  0  0  0
   16.3831   19.8976   23.8971 H   0  0  0  0  0  0  0  0  0  0  0  0
   18.2764   20.2709   24.9540 C   0  0  0  0  0  0  0  0  0  0  0  0
   18.2270   19.3278   25.5160 H   0  0  0  0  0  0  0  0  0  0  0  0
   18.6547   21.0271   25.6561 H   0  0  0  0  0  0  0  0  0  0  0  0
   19.2825   20.1326   23.7859 C   0  0  0  0  0  0  0  0  0  0  0  0
   19.3342   21.0805   23.2326 H   0  0  0  0  0  0  0  0  0  0  0  0
   20.2799   19.9691   24.2145 H   0  0  0  0  0  0  0  0  0  0  0  0
   18.9408   18.9764   22.8119 C   0  0  0  0  0  0  0  0  0  0  0  0
   17.9499   19.1486   22.3723 H   0  0  0  0  0  0  0  0  0  0  0  0
   18.8649   18.0320   23.3666 H   0  0  0  0  0  0  0  0  0  0  0  0
   19.9595   18.8331   21.6513 C   0  0  0  0  0  0  0  0  0  0  0  0
   19.6357   18.0164   20.9925 H   0  0  0  0  0  0  0  0  0  0  0  0
   19.9223   19.7467   21.0434 H   0  0  0  0  0  0  0  0  0  0  0  0
   21.4240   18.5860   22.0850 C   0  0  1  0  0  0  0  0  0  0  0  0
   21.7379   19.4120   22.7298 H   0  0  0  0  0  0  0  0  0  0  0  0
   21.5818   17.2702   22.8678 C   0  0  0  0  0  0  0  0  0  0  0  0
   21.2249   16.4144   22.2815 H   0  0  0  0  0  0  0  0  0  0  0  0
   21.0227   17.2987   23.8103 H   0  0  0  0  0  0  0  0  0  0  0  0
   22.6347   17.0945   23.1204 H   0  0  0  0  0  0  0  0  0  0  0  0
   22.3498   18.6025   20.9005 N   0  3  0  0  0  0  0  0  0  0  0  0
   22.2922   19.4875   20.3887 H   0  0  0  0  0  0  0  0  0  0  0  0
   23.3254   18.4794   21.1861 H   0  0  0  0  0  0  0  0  0  0  0  0
   22.1280   17.8515   20.2415 H   0  0  0  0  0  0  0  0  0  0  0  0
  1  2  1  0  0  0  0
  1  3  1  0  0  0  0
  1  4  1  0  0  0  0
  1  5  1  0  0  0  0
  5  6  1  0  0  0  0
  5  7  1  0  0  0  0
  5  8  1  0  0  0  0
  8  9  1  0  0  0  0
  8 10  1  0  0  0  0
  8 11  1  0  0  0  0
 11 12  1  0  0  0  0
 11 13  1  0  0  0  0
 11 14  1  0  0  0  0
 14 15  1  0  0  0  0
 14 16  1  0  0  0  0
 14 17  1  0  0  0  0
 17 18  1  0  0  0  0
 17 19  1  0  0  0  0
 19 20  1  0  0  0  0
 19 21  1  0  0  0  0
 19 22  1  0  0  0  0
 17 23  1  0  0  0  0
 23 24  1  0  0  0  0
 23 25  1  0  0  0  0
 23 26  1  0  0  0  0
M  END
> <VConfSearch Rank>
50

> <Conf_Id>
5

> <Delta U+W>
1.233

> <U+W>
-29.065

> <U>
25.023

> <W>
-54.088

> <W(PB)>
-56.383

> <W(SA)>
2.296

> <Valence>
4.083

> <Coulomb>
19.893

> <VdW>
1.047

> <VdW6>
-8.479

> <VdW12>
9.527

> <Bond>
0.256

> <Angle>
1.716

> <Pdih>
2.112

> <Idih>
0.000

> <Tether>
0.000

$$$$
VeraChem MOL file


 26 25  0  0  0  0  0  0  0  0999 V2000     
   22.4271   21.7395   22.8672 C   0  0  0  0  0  0  0  0  0  0  0  0
   23.4298   22.1272   23.0887 H   0  0  0  0  0  0  0  0  0  0  0  0
   22.3934   21.5092   21.7953 H   0  0  0  0  0  0  0  0  0  0  0  0
   21.7053   22.5412   23.0703 H   0  0  0  0  0  0  0  0  0  0  0  0
   22.1285   20.4911   23.7284 C   0  0  0  0  0  0  0  0  0  0  0  0
   22.3018   20.7426   24.7841 H   0  0  0  0  0  0  0  0  0  0  0  0
   22.8416   19.6919   23.4823 H   0  0  0  0  0  0  0  0  0  0  0  0
   20.6800   19.9668   23.5762 C   0  0  0  0  0  0  0  0  0  0  0  0
   20.5275   19.1776   24.3238 H   0  0  0  0  0  0  0  0  0  0  0  0
   19.9718   20.7711   23.8185 H   0  0  0  0  0  0  0  0  0  0  0  0
   20.3728   19.4032   22.1663 C   0  0  0  0  0  0  0  0  0  0  0  0
   21.0656   18.5803   21.9427 H   0  0  0  0  0  0  0  0  0  0  0  0
   20.5612   20.1779   21.4121 H   0  0  0  0  0  0  0  0  0  0  0  0
   18.9146   18.9090   21.9877 C   0  0  0  0  0  0  0  0  0  0  0  0
   18.2152   19.7447   22.1239 H   0  0  0  0  0  0  0  0  0  0  0  0
   18.7996   18.5963   20.9414 H   0  0  0  0  0  0  0  0  0  0  0  0
   18.5360   17.7291   22.9158 C   0  0  1  0  0  0  0  0  0  0  0  0
   19.4606   17.2773   23.2879 H   0  0  0  0  0  0  0  0  0  0  0  0
   17.6980   18.2006   24.1183 C   0  0  0  0  0  0  0  0  0  0  0  0
   16.7350   18.6124   23.7912 H   0  0  0  0  0  0  0  0  0  0  0  0
   18.2181   18.9762   24.6915 H   0  0  0  0  0  0  0  0  0  0  0  0
   17.4953   17.3649   24.7993 H   0  0  0  0  0  0  0  0  0  0  0  0
   17.8078   16.6415   22.1745 N   0  3  0  0  0  0  0  0  0  0  0  0
   18.3657   16.2772   21.3967 H   0  0  0  0  0  0  0  0  0  0  0  0
   17.5899   15.8515   22.7884 H   0  0  0  0  0  0  0  0  0  0  0  0
   16.9230   16.9799   21.7870 H   0  0  0  0  0  0  0  0  0  0  0  0
  1  2  1  0  0  0  0
  1  3  1  0  0  0  0
  1  4  1  0  0  0  0
  1  5  1  0  0  0  0
  5  6  1  0  0  0  0
  5  7  1  0  0  0  0
  5  8  1  0  0  0  0
  8  9  1  0  0  0  0
  8 10  1  0  0  0  0
  8 11  1  0  0  0  0
 11 12  1  0  0  0  0
 11 13  1  0  0  0  0
 11 14  1  0  0  0  0
 14 15  1  0  0  0  0
 14 16  1  0  0  0  0
 14 17  1  0  0  0  0
 17 18  1  0  0  0  0
 17 19  1  0  0  0  0
 19 20  1  0  0  0  0
 19 21  1  0  0  0  0
 19 22  1  0  0  0  0
 17 23  1  0  0  0  0
 23 24  1  0  0  0  0
 23 25  1  0  0  0  0
 23 26  1  0  0  0  0
M  END
> <VConfSearch Rank>
51

> <Conf_Id>
100

> <Delta U+W>
3.818

> <U+W>
-26.481

> <U>
27.496

> <W>
-53.977

> <W(PB)>
-56.267

> <W(SA)>
2.290

> <Valence>
6.472

> <Coulomb>
19.839

> <VdW>
1.185

> <VdW6>
-8.405

> <VdW12>
9.590

> <Bond>
0.248

> <Angle>
1.619

> <Pdih>
4.604

> <Idih>
0.000

> <Tether>
0.000

$$$$
VeraChem MOL file


 26 25  0  0  0  0  0  0  0  0999 V2000     
   21.8539   21.5940   24.7602 C   0  0  0  0  0  0  0  0  0  0  0  0
   21.8308   22.6505   25.0574 H   0  0  0  0  0  0  0  0  0  0  0  0
   21.6045   20.9902   25.6425 H   0  0  0  0  0  0  0  0  0  0  0  0
   22.8812   21.3511   24.4587 H   0  0  0  0  0  0  0  0  0  0  0  0
   20.8608   21.3302   23.6085 C   0  0  0  0  0  0  0  0  0  0  0  0
   21.1147   21.9730   22.7539 H   0  0  0  0  0  0  0  0  0  0  0  0
   19.8483   21.6136   23.9286 H   0  0  0  0  0  0  0  0  0  0  0  0
   20.8735   19.8491   23.1700 C   0  0  0  0  0  0  0  0  0  0  0  0
   21.8886   19.5732   22.8524 H   0  0  0  0  0  0  0  0  0  0  0  0
   20.6333   19.2168   24.0327 H   0  0  0  0  0  0  0  0  0  0  0  0
   19.8822   19.5852   22.0099 C   0  0  0  0  0  0  0  0  0  0  0  0
   20.1750   20.2205   21.1625 H   0  0  0  0  0  0  0  0  0  0  0  0
   18.8723   19.9088   22.2929 H   0  0  0  0  0  0  0  0  0  0  0  0
   19.8697   18.1074   21.5282 C   0  0  0  0  0  0  0  0  0  0  0  0
   19.7207   18.1011   20.4404 H   0  0  0  0  0  0  0  0  0  0  0  0
   20.8573   17.6543   21.6863 H   0  0  0  0  0  0  0  0  0  0  0  0
   18.7813   17.1972   22.1500 C   0  0  1  0  0  0  0  0  0  0  0  0
   18.9138   16.1995   21.7201 H   0  0  0  0  0  0  0  0  0  0  0  0
   18.9122   17.0628   23.6757 C   0  0  0  0  0  0  0  0  0  0  0  0
   18.6678   18.0028   24.1844 H   0  0  0  0  0  0  0  0  0  0  0  0
   19.9311   16.7679   23.9558 H   0  0  0  0  0  0  0  0  0  0  0  0
   18.2281   16.2925   24.0520 H   0  0  0  0  0  0  0  0  0  0  0  0
   17.3914   17.6285   21.7684 N   0  3  0  0  0  0  0  0  0  0  0  0
   17.2759   17.6677   20.7518 H   0  0  0  0  0  0  0  0  0  0  0  0
   16.6862   16.9805   22.1309 H   0  0  0  0  0  0  0  0  0  0  0  0
   17.1741   18.5567   22.1388 H   0  0  0  0  0  0  0  0  0  0  0  0
  1  2  1  0  0  0  0
  1  3  1  0  0  0  0
  1  4  1  0  0  0  0
  1  5  1  0  0  0  0
  5  6  1  0  0  0  0
  5  7  1  0  0  0  0
  5  8  1  0  0  0  0
  8  9  1  0  0  0  0
  8 10  1  0  0  0  0
  8 11  1  0  0  0  0
 11 12  1  0  0  0  0
 11 13  1  0  0  0  0
 11 14  1  0  0  0  0
 14 15  1  0  0  0  0
 14 16  1  0  0  0  0
 14 17  1  0  0  0  0
 17 18  1  0  0  0  0
 17 19  1  0  0  0  0
 19 20  1  0  0  0  0
 19 21  1  0  0  0  0
 19 22  1  0  0  0  0
 17 23  1  0  0  0  0
 23 24  1  0  0  0  0
 23 25  1  0  0  0  0
 23 26  1  0  0  0  0
M  END
> <VConfSearch Rank>
52

> <Conf_Id>
142

> <Delta U+W>
2.978

> <U+W>
-27.320

> <U>
26.848

> <W>
-54.168

> <W(PB)>
-56.427

> <W(SA)>
2.259

> <Valence>
5.823

> <Coulomb>
20.057

> <VdW>
0.968

> <VdW6>
-8.367

> <VdW12>
9.335

> <Bond>
0.267

> <Angle>
1.799

> <Pdih>
3.758

> <Idih>
0.000

> <Tether>
0.000

$$$$
VeraChem MOL file


 26 25  0  0  0  0  0  0  0  0999 V2000     
   23.0320   18.4003   24.1604 C   0  0  0  0  0  0  0  0  0  0  0  0
   22.8973   17.3114   24.1257 H   0  0  0  0  0  0  0  0  0  0  0  0
   24.1105   18.6040   24.1800 H   0  0  0  0  0  0  0  0  0  0  0  0
   22.6113   18.7693   25.1037 H   0  0  0  0  0  0  0  0  0  0  0  0
   22.3765   19.0810   22.9371 C   0  0  0  0  0  0  0  0  0  0  0  0
   22.9214   18.7760   22.0327 H   0  0  0  0  0  0  0  0  0  0  0  0
   22.4930   20.1712   23.0123 H   0  0  0  0  0  0  0  0  0  0  0  0
   20.8810   18.7239   22.7567 C   0  0  0  0  0  0  0  0  0  0  0  0
   20.5610   19.1250   21.7880 H   0  0  0  0  0  0  0  0  0  0  0  0
   20.7691   17.6322   22.7039 H   0  0  0  0  0  0  0  0  0  0  0  0
   19.9717   19.2950   23.8740 C   0  0  0  0  0  0  0  0  0  0  0  0
   20.0383   20.3910   23.8799 H   0  0  0  0  0  0  0  0  0  0  0  0
   20.3537   18.9699   24.8498 H   0  0  0  0  0  0  0  0  0  0  0  0
   18.4836   18.8510   23.7914 C   0  0  0  0  0  0  0  0  0  0  0  0
   18.4237   17.7610   23.9082 H   0  0  0  0  0  0  0  0  0  0  0  0
   17.9648   19.2652   24.6659 H   0  0  0  0  0  0  0  0  0  0  0  0
   17.6783   19.2673   22.5338 C   0  0  1  0  0  0  0  0  0  0  0  0
   16.6240   19.0799   22.7598 H   0  0  0  0  0  0  0  0  0  0  0  0
   17.8178   20.7658   22.2138 C   0  0  0  0  0  0  0  0  0  0  0  0
   18.8336   21.0174   21.8863 H   0  0  0  0  0  0  0  0  0  0  0  0
   17.5791   21.3749   23.0945 H   0  0  0  0  0  0  0  0  0  0  0  0
   17.1261   21.0536   21.4127 H   0  0  0  0  0  0  0  0  0  0  0  0
   17.9793   18.4180   21.3293 N   0  3  0  0  0  0  0  0  0  0  0  0
   17.8165   17.4255   21.5210 H   0  0  0  0  0  0  0  0  0  0  0  0
   17.3880   18.6756   20.5339 H   0  0  0  0  0  0  0  0  0  0  0  0
   18.9525   18.5194   21.0351 H   0  0  0  0  0  0  0  0  0  0  0  0
  1  2  1  0  0  0  0
  1  3  1  0  0  0  0
  1  4  1  0  0  0  0
  1  5  1  0  0  0  0
  5  6  1  0  0  0  0
  5  7  1  0  0  0  0
  5  8  1  0  0  0  0
  8  9  1  0  0  0  0
  8 10  1  0  0  0  0
  8 11  1  0  0  0  0
 11 12  1  0  0  0  0
 11 13  1  0  0  0  0
 11 14  1  0  0  0  0
 14 15  1  0  0  0  0
 14 16  1  0  0  0  0
 14 17  1  0  0  0  0
 17 18  1  0  0  0  0
 17 19  1  0  0  0  0
 19 20  1  0  0  0  0
 19 21  1  0  0  0  0
 19 22  1  0  0  0  0
 17 23  1  0  0  0  0
 23 24  1  0  0  0  0
 23 25  1  0  0  0  0
 23 26  1  0  0  0  0
M  END
> <VConfSearch Rank>
53

> <Conf_Id>
119

> <Delta U+W>
3.538

> <U+W>
-26.761

> <U>
27.482

> <W>
-54.243

> <W(PB)>
-56.494

> <W(SA)>
2.251

> <Valence>
5.284

> <Coulomb>
21.247

> <VdW>
0.951

> <VdW6>
-9.416

> <VdW12>
10.367

> <Bond>
0.323

> <Angle>
2.522

> <Pdih>
2.439

> <Idih>
0.000

> <Tether>
0.000

$$$$
VeraChem MOL file


 26 25  0  0  0  0  0  0  0  0999 V2000     
   17.3281   18.3004   20.6069 C   0  0  0  0  0  0  0  0  0  0  0  0
   17.8985   18.0727   19.6971 H   0  0  0  0  0  0  0  0  0  0  0  0
   17.3819   17.4311   21.2739 H   0  0  0  0  0  0  0  0  0  0  0  0
   16.2766   18.4310   20.3200 H   0  0  0  0  0  0  0  0  0  0  0  0
   17.8636   19.5772   21.2938 C   0  0  0  0  0  0  0  0  0  0  0  0
   17.2973   19.7653   22.2167 H   0  0  0  0  0  0  0  0  0  0  0  0
   17.6751   20.4379   20.6370 H   0  0  0  0  0  0  0  0  0  0  0  0
   19.3772   19.5178   21.6120 C   0  0  0  0  0  0  0  0  0  0  0  0
   19.9388   19.3564   20.6816 H   0  0  0  0  0  0  0  0  0  0  0  0
   19.6878   20.5001   21.9869 H   0  0  0  0  0  0  0  0  0  0  0  0
   19.7475   18.4162   22.6383 C   0  0  0  0  0  0  0  0  0  0  0  0
   19.5348   17.4376   22.1882 H   0  0  0  0  0  0  0  0  0  0  0  0
   19.1011   18.4892   23.5222 H   0  0  0  0  0  0  0  0  0  0  0  0
   21.2460   18.4368   23.0513 C   0  0  0  0  0  0  0  0  0  0  0  0
   21.5829   17.3996   23.1787 H   0  0  0  0  0  0  0  0  0  0  0  0
   21.8544   18.8388   22.2304 H   0  0  0  0  0  0  0  0  0  0  0  0
   21.5797   19.1967   24.3593 C   0  0  1  0  0  0  0  0  0  0  0  0
   22.6623   19.1274   24.5038 H   0  0  0  0  0  0  0  0  0  0  0  0
   21.2177   20.6893   24.2931 C   0  0  0  0  0  0  0  0  0  0  0  0
   20.1319   20.8385   24.2575 H   0  0  0  0  0  0  0  0  0  0  0  0
   21.6643   21.1602   23.4087 H   0  0  0  0  0  0  0  0  0  0  0  0
   21.5983   21.2154   25.1771 H   0  0  0  0  0  0  0  0  0  0  0  0
   20.9608   18.5493   25.5680 N   0  3  0  0  0  0  0  0  0  0  0  0
   21.2400   17.5678   25.6528 H   0  0  0  0  0  0  0  0  0  0  0  0
   21.2427   19.0225   26.4312 H   0  0  0  0  0  0  0  0  0  0  0  0
   19.9394   18.5759   25.5232 H   0  0  0  0  0  0  0  0  0  0  0  0
  1  2  1  0  0  0  0
  1  3  1  0  0  0  0
  1  4  1  0  0  0  0
  1  5  1  0  0  0  0
  5  6  1  0  0  0  0
  5  7  1  0  0  0  0
  5  8  1  0  0  0  0
  8  9  1  0  0  0  0
  8 10  1  0  0  0  0
  8 11  1  0  0  0  0
 11 12  1  0  0  0  0
 11 13  1  0  0  0  0
 11 14  1  0  0  0  0
 14 15  1  0  0  0  0
 14 16  1  0  0  0  0
 14 17  1  0  0  0  0
 17 18  1  0  0  0  0
 17 19  1  0  0  0  0
 19 20  1  0  0  0  0
 19 21  1  0  0  0  0
 19 22  1  0  0  0  0
 17 23  1  0  0  0  0
 23 24  1  0  0  0  0
 23 25  1  0  0  0  0
 23 26  1  0  0  0  0
M  END
> <VConfSearch Rank>
54

> <Conf_Id>
127

> <Delta U+W>
3.544

> <U+W>
-26.754

> <U>
27.509

> <W>
-54.263

> <W(PB)>
-56.496

> <W(SA)>
2.232

> <Valence>
6.375

> <Coulomb>
20.014

> <VdW>
1.120

> <VdW6>
-8.976

> <VdW12>
10.096

> <Bond>
0.304

> <Angle>
1.986

> <Pdih>
4.086

> <Idih>
0.000

> <Tether>
0.000

$$$$
VeraChem MOL file


 26 25  0  0  0  0  0  0  0  0999 V2000     
   19.3714   22.0395   21.6360 C   0  0  0  0  0  0  0  0  0  0  0  0
   18.7604   22.9287   21.8384 H   0  0  0  0  0  0  0  0  0  0  0  0
   19.9069   22.2116   20.6932 H   0  0  0  0  0  0  0  0  0  0  0  0
   18.6895   21.1952   21.4865 H   0  0  0  0  0  0  0  0  0  0  0  0
   20.3635   21.7896   22.7958 C   0  0  0  0  0  0  0  0  0  0  0  0
   19.8228   21.6933   23.7475 H   0  0  0  0  0  0  0  0  0  0  0  0
   20.9964   22.6824   22.8975 H   0  0  0  0  0  0  0  0  0  0  0  0
   21.2788   20.5590   22.5678 C   0  0  0  0  0  0  0  0  0  0  0  0
   21.4353   20.3952   21.4927 H   0  0  0  0  0  0  0  0  0  0  0  0
   22.2713   20.7912   22.9782 H   0  0  0  0  0  0  0  0  0  0  0  0
   20.7913   19.2499   23.2411 C   0  0  0  0  0  0  0  0  0  0  0  0
   20.7436   19.4028   24.3274 H   0  0  0  0  0  0  0  0  0  0  0  0
   21.5577   18.4830   23.0717 H   0  0  0  0  0  0  0  0  0  0  0  0
   19.4201   18.7414   22.7214 C   0  0  0  0  0  0  0  0  0  0  0  0
   18.6435   19.4704   22.9824 H   0  0  0  0  0  0  0  0  0  0  0  0
   19.4404   18.6903   21.6249 H   0  0  0  0  0  0  0  0  0  0  0  0
   18.9811   17.3661   23.2778 C   0  0  1  0  0  0  0  0  0  0  0  0
   17.9747   17.1687   22.8955 H   0  0  0  0  0  0  0  0  0  0  0  0
   19.8914   16.2245   22.7915 C   0  0  0  0  0  0  0  0  0  0  0  0
   19.9801   16.2350   21.6981 H   0  0  0  0  0  0  0  0  0  0  0  0
   19.4737   15.2524   23.0811 H   0  0  0  0  0  0  0  0  0  0  0  0
   20.8982   16.2955   23.2191 H   0  0  0  0  0  0  0  0  0  0  0  0
   18.8654   17.3628   24.7774 N   0  3  0  0  0  0  0  0  0  0  0  0
   18.2231   18.0893   25.1062 H   0  0  0  0  0  0  0  0  0  0  0  0
   18.5151   16.4652   25.1238 H   0  0  0  0  0  0  0  0  0  0  0  0
   19.7724   17.5297   25.2198 H   0  0  0  0  0  0  0  0  0  0  0  0
  1  2  1  0  0  0  0
  1  3  1  0  0  0  0
  1  4  1  0  0  0  0
  1  5  1  0  0  0  0
  5  6  1  0  0  0  0
  5  7  1  0  0  0  0
  5  8  1  0  0  0  0
  8  9  1  0  0  0  0
  8 10  1  0  0  0  0
  8 11  1  0  0  0  0
 11 12  1  0  0  0  0
 11 13  1  0  0  0  0
 11 14  1  0  0  0  0
 14 15  1  0  0  0  0
 14 16  1  0  0  0  0
 14 17  1  0  0  0  0
 17 18  1  0  0  0  0
 17 19  1  0  0  0  0
 19 20  1  0  0  0  0
 19 21  1  0  0  0  0
 19 22  1  0  0  0  0
 17 23  1  0  0  0  0
 23 24  1  0  0  0  0
 23 25  1  0  0  0  0
 23 26  1  0  0  0  0
M  END
> <VConfSearch Rank>
55

> <Conf_Id>
131

> <Delta U+W>
3.589

> <U+W>
-26.710

> <U>
27.573

> <W>
-54.283

> <W(PB)>
-56.537

> <W(SA)>
2.254

> <Valence>
6.363

> <Coulomb>
20.026

> <VdW>
1.184

> <VdW6>
-8.939

> <VdW12>
10.123

> <Bond>
0.298

> <Angle>
2.018

> <Pdih>
4.047

> <Idih>
0.000

> <Tether>
0.000

$$$$
VeraChem MOL file


 26 25  0  0  0  0  0  0  0  0999 V2000     
   19.5527   19.9055   25.6783 C   0  0  0  0  0  0  0  0  0  0  0  0
   20.1643   20.7647   25.3741 H   0  0  0  0  0  0  0  0  0  0  0  0
   18.7297   19.7894   24.9625 H   0  0  0  0  0  0  0  0  0  0  0  0
   19.1069   20.1389   26.6538 H   0  0  0  0  0  0  0  0  0  0  0  0
   20.4029   18.6195   25.7681 C   0  0  0  0  0  0  0  0  0  0  0  0
   19.7499   17.7672   26.0024 H   0  0  0  0  0  0  0  0  0  0  0  0
   21.0954   18.7138   26.6162 H   0  0  0  0  0  0  0  0  0  0  0  0
   21.2278   18.3074   24.4933 C   0  0  0  0  0  0  0  0  0  0  0  0
   21.9628   19.1044   24.3155 H   0  0  0  0  0  0  0  0  0  0  0  0
   21.8171   17.4023   24.6956 H   0  0  0  0  0  0  0  0  0  0  0  0
   20.3817   18.0572   23.2174 C   0  0  0  0  0  0  0  0  0  0  0  0
   19.4113   17.6295   23.5000 H   0  0  0  0  0  0  0  0  0  0  0  0
   20.8870   17.2929   22.6106 H   0  0  0  0  0  0  0  0  0  0  0  0
   20.2000   19.3244   22.3405 C   0  0  0  0  0  0  0  0  0  0  0  0
   19.6790   20.1104   22.8983 H   0  0  0  0  0  0  0  0  0  0  0  0
   21.1941   19.7251   22.1025 H   0  0  0  0  0  0  0  0  0  0  0  0
   19.4531   19.0574   21.0139 C   0  0  1  0  0  0  0  0  0  0  0  0
   19.9557   18.2345   20.4961 H   0  0  0  0  0  0  0  0  0  0  0  0
   17.9833   18.6632   21.2467 C   0  0  0  0  0  0  0  0  0  0  0  0
   17.4518   19.4334   21.8194 H   0  0  0  0  0  0  0  0  0  0  0  0
   17.9050   17.7151   21.7908 H   0  0  0  0  0  0  0  0  0  0  0  0
   17.4628   18.5312   20.2901 H   0  0  0  0  0  0  0  0  0  0  0  0
   19.5328   20.2465   20.0970 N   0  3  0  0  0  0  0  0  0  0  0  0
   19.0798   21.0672   20.5077 H   0  0  0  0  0  0  0  0  0  0  0  0
   20.5034   20.5008   19.8923 H   0  0  0  0  0  0  0  0  0  0  0  0
   19.0725   20.0598   19.2016 H   0  0  0  0  0  0  0  0  0  0  0  0
  1  2  1  0  0  0  0
  1  3  1  0  0  0  0
  1  4  1  0  0  0  0
  1  5  1  0  0  0  0
  5  6  1  0  0  0  0
  5  7  1  0  0  0  0
  5  8  1  0  0  0  0
  8  9  1  0  0  0  0
  8 10  1  0  0  0  0
  8 11  1  0  0  0  0
 11 12  1  0  0  0  0
 11 13  1  0  0  0  0
 11 14  1  0  0  0  0
 14 15  1  0  0  0  0
 14 16  1  0  0  0  0
 14 17  1  0  0  0  0
 17 18  1  0  0  0  0
 17 19  1  0  0  0  0
 19 20  1  0  0  0  0
 19 21  1  0  0  0  0
 19 22  1  0  0  0  0
 17 23  1  0  0  0  0
 23 24  1  0  0  0  0
 23 25  1  0  0  0  0
 23 26  1  0  0  0  0
M  END
> <VConfSearch Rank>
56

> <Conf_Id>
80

> <Delta U+W>
3.351

> <U+W>
-26.948

> <U>
27.261

> <W>
-54.209

> <W(PB)>
-56.471

> <W(SA)>
2.263

> <Valence>
6.230

> <Coulomb>
19.945

> <VdW>
1.087

> <VdW6>
-8.618

> <VdW12>
9.704

> <Bond>
0.277

> <Angle>
1.928

> <Pdih>
4.025

> <Idih>
0.000

> <Tether>
0.000

$$$$
VeraChem MOL file


 26 25  0  0  0  0  0  0  0  0999 V2000     
   22.3822   20.3429   24.6134 C   0  0  0  0  0  0  0  0  0  0  0  0
   22.5042   20.9462   25.5222 H   0  0  0  0  0  0  0  0  0  0  0  0
   23.3616   19.9180   24.3579 H   0  0  0  0  0  0  0  0  0  0  0  0
   22.0787   21.0211   23.8061 H   0  0  0  0  0  0  0  0  0  0  0  0
   21.3350   19.2293   24.8397 C   0  0  0  0  0  0  0  0  0  0  0  0
   20.3600   19.6793   25.0668 H   0  0  0  0  0  0  0  0  0  0  0  0
   21.6148   18.6604   25.7373 H   0  0  0  0  0  0  0  0  0  0  0  0
   21.2122   18.2397   23.6518 C   0  0  0  0  0  0  0  0  0  0  0  0
   22.1612   17.6942   23.5573 H   0  0  0  0  0  0  0  0  0  0  0  0
   20.4641   17.4805   23.9066 H   0  0  0  0  0  0  0  0  0  0  0  0
   20.8818   18.8783   22.2729 C   0  0  0  0  0  0  0  0  0  0  0  0
   20.8970   18.0988   21.4989 H   0  0  0  0  0  0  0  0  0  0  0  0
   21.6987   19.5605   22.0033 H   0  0  0  0  0  0  0  0  0  0  0  0
   19.5392   19.6577   22.1909 C   0  0  0  0  0  0  0  0  0  0  0  0
   19.2976   20.1300   23.1495 H   0  0  0  0  0  0  0  0  0  0  0  0
   19.6849   20.4869   21.4862 H   0  0  0  0  0  0  0  0  0  0  0  0
   18.3294   18.8355   21.6845 C   0  0  1  0  0  0  0  0  0  0  0  0
   18.5791   18.4337   20.6977 H   0  0  0  0  0  0  0  0  0  0  0  0
   17.9760   17.6565   22.6060 C   0  0  0  0  0  0  0  0  0  0  0  0
   18.7556   16.8874   22.5729 H   0  0  0  0  0  0  0  0  0  0  0  0
   17.0425   17.1789   22.2839 H   0  0  0  0  0  0  0  0  0  0  0  0
   17.8502   17.9859   23.6448 H   0  0  0  0  0  0  0  0  0  0  0  0
   17.1271   19.7171   21.4874 N   0  3  0  0  0  0  0  0  0  0  0  0
   17.3239   20.4843   20.8383 H   0  0  0  0  0  0  0  0  0  0  0  0
   16.3362   19.1910   21.1053 H   0  0  0  0  0  0  0  0  0  0  0  0
   16.8191   20.1326   22.3705 H   0  0  0  0  0  0  0  0  0  0  0  0
  1  2  1  0  0  0  0
  1  3  1  0  0  0  0
  1  4  1  0  0  0  0
  1  5  1  0  0  0  0
  5  6  1  0  0  0  0
  5  7  1  0  0  0  0
  5  8  1  0  0  0  0
  8  9  1  0  0  0  0
  8 10  1  0  0  0  0
  8 11  1  0  0  0  0
 11 12  1  0  0  0  0
 11 13  1  0  0  0  0
 11 14  1  0  0  0  0
 14 15  1  0  0  0  0
 14 16  1  0  0  0  0
 14 17  1  0  0  0  0
 17 18  1  0  0  0  0
 17 19  1  0  0  0  0
 19 20  1  0  0  0  0
 19 21  1  0  0  0  0
 19 22  1  0  0  0  0
 17 23  1  0  0  0  0
 23 24  1  0  0  0  0
 23 25  1  0  0  0  0
 23 26  1  0  0  0  0
M  END
> <VConfSearch Rank>
57

> <Conf_Id>
136

> <Delta U+W>
4.272

> <U+W>
-26.026

> <U>
28.262

> <W>
-54.288

> <W(PB)>
-56.488

> <W(SA)>
2.200

> <Valence>
7.096

> <Coulomb>
19.990

> <VdW>
1.175

> <VdW6>
-9.404

> <VdW12>
10.580

> <Bond>
0.360

> <Angle>
2.785

> <Pdih>
3.951

> <Idih>
0.000

> <Tether>
0.000

$$$$
VeraChem MOL file


 26 25  0  0  0  0  0  0  0  0999 V2000     
   16.9028   18.5630   23.2751 C   0  0  0  0  0  0  0  0  0  0  0  0
   17.2974   19.3402   22.6090 H   0  0  0  0  0  0  0  0  0  0  0  0
   15.8266   18.4770   23.0765 H   0  0  0  0  0  0  0  0  0  0  0  0
   17.0268   18.8953   24.3138 H   0  0  0  0  0  0  0  0  0  0  0  0
   17.6052   17.2087   23.0355 C   0  0  0  0  0  0  0  0  0  0  0  0
   17.5108   16.9319   21.9762 H   0  0  0  0  0  0  0  0  0  0  0  0
   17.0732   16.4312   23.6013 H   0  0  0  0  0  0  0  0  0  0  0  0
   19.0992   17.1817   23.4481 C   0  0  0  0  0  0  0  0  0  0  0  0
   19.1963   17.3574   24.5283 H   0  0  0  0  0  0  0  0  0  0  0  0
   19.4695   16.1609   23.2802 H   0  0  0  0  0  0  0  0  0  0  0  0
   20.0067   18.1611   22.6589 C   0  0  0  0  0  0  0  0  0  0  0  0
   19.5893   18.3356   21.6575 H   0  0  0  0  0  0  0  0  0  0  0  0
   20.9793   17.6753   22.5042 H   0  0  0  0  0  0  0  0  0  0  0  0
   20.2367   19.5090   23.3908 C   0  0  0  0  0  0  0  0  0  0  0  0
   19.2718   19.9596   23.6487 H   0  0  0  0  0  0  0  0  0  0  0  0
   20.7550   19.3275   24.3417 H   0  0  0  0  0  0  0  0  0  0  0  0
   21.0432   20.5202   22.5474 C   0  0  1  0  0  0  0  0  0  0  0  0
   20.5214   20.6661   21.5966 H   0  0  0  0  0  0  0  0  0  0  0  0
   21.1203   21.8759   23.2678 C   0  0  0  0  0  0  0  0  0  0  0  0
   21.6379   21.7848   24.2310 H   0  0  0  0  0  0  0  0  0  0  0  0
   20.1159   22.2753   23.4560 H   0  0  0  0  0  0  0  0  0  0  0  0
   21.6608   22.6098   22.6574 H   0  0  0  0  0  0  0  0  0  0  0  0
   22.4225   20.0217   22.2123 N   0  3  0  0  0  0  0  0  0  0  0  0
   22.9759   19.8577   23.0574 H   0  0  0  0  0  0  0  0  0  0  0  0
   22.3858   19.1413   21.6918 H   0  0  0  0  0  0  0  0  0  0  0  0
   22.9346   20.6961   21.6367 H   0  0  0  0  0  0  0  0  0  0  0  0
  1  2  1  0  0  0  0
  1  3  1  0  0  0  0
  1  4  1  0  0  0  0
  1  5  1  0  0  0  0
  5  6  1  0  0  0  0
  5  7  1  0  0  0  0
  5  8  1  0  0  0  0
  8  9  1  0  0  0  0
  8 10  1  0  0  0  0
  8 11  1  0  0  0  0
 11 12  1  0  0  0  0
 11 13  1  0  0  0  0
 11 14  1  0  0  0  0
 14 15  1  0  0  0  0
 14 16  1  0  0  0  0
 14 17  1  0  0  0  0
 17 18  1  0  0  0  0
 17 19  1  0  0  0  0
 19 20  1  0  0  0  0
 19 21  1  0  0  0  0
 19 22  1  0  0  0  0
 17 23  1  0  0  0  0
 23 24  1  0  0  0  0
 23 25  1  0  0  0  0
 23 26  1  0  0  0  0
M  END
> <VConfSearch Rank>
58

> <Conf_Id>
124

> <Delta U+W>
3.001

> <U+W>
-27.298

> <U>
26.787

> <W>
-54.085

> <W(PB)>
-56.347

> <W(SA)>
2.262

> <Valence>
5.742

> <Coulomb>
20.023

> <VdW>
1.022

> <VdW6>
-8.392

> <VdW12>
9.414

> <Bond>
0.261

> <Angle>
1.576

> <Pdih>
3.904

> <Idih>
0.000

> <Tether>
0.000

$$$$
VeraChem MOL file


 26 25  0  0  0  0  0  0  0  0999 V2000     
   22.5570   20.7739   22.4757 C   0  0  0  0  0  0  0  0  0  0  0  0
   23.4305   20.1312   22.3057 H   0  0  0  0  0  0  0  0  0  0  0  0
   22.9051   21.8149   22.4756 H   0  0  0  0  0  0  0  0  0  0  0  0
   22.1670   20.5551   23.4757 H   0  0  0  0  0  0  0  0  0  0  0  0
   21.4922   20.5601   21.3746 C   0  0  0  0  0  0  0  0  0  0  0  0
   21.9458   20.8277   20.4099 H   0  0  0  0  0  0  0  0  0  0  0  0
   20.6519   21.2541   21.5157 H   0  0  0  0  0  0  0  0  0  0  0  0
   20.9775   19.1000   21.2889 C   0  0  0  0  0  0  0  0  0  0  0  0
   20.7846   18.8682   20.2323 H   0  0  0  0  0  0  0  0  0  0  0  0
   21.7632   18.4004   21.6057 H   0  0  0  0  0  0  0  0  0  0  0  0
   19.6682   18.8236   22.0723 C   0  0  0  0  0  0  0  0  0  0  0  0
   19.3639   17.7892   21.8665 H   0  0  0  0  0  0  0  0  0  0  0  0
   18.8716   19.4641   21.6709 H   0  0  0  0  0  0  0  0  0  0  0  0
   19.7889   19.0333   23.6050 C   0  0  0  0  0  0  0  0  0  0  0  0
   20.6788   18.5074   23.9746 H   0  0  0  0  0  0  0  0  0  0  0  0
   19.9493   20.0981   23.8139 H   0  0  0  0  0  0  0  0  0  0  0  0
   18.5638   18.5620   24.4238 C   0  0  1  0  0  0  0  0  0  0  0  0
   18.7775   18.7699   25.4769 H   0  0  0  0  0  0  0  0  0  0  0  0
   17.2864   19.3325   24.0467 C   0  0  0  0  0  0  0  0  0  0  0  0
   16.9597   19.1002   23.0261 H   0  0  0  0  0  0  0  0  0  0  0  0
   17.4488   20.4151   24.1180 H   0  0  0  0  0  0  0  0  0  0  0  0
   16.4668   19.0736   24.7282 H   0  0  0  0  0  0  0  0  0  0  0  0
   18.3454   17.0767   24.3299 N   0  3  0  0  0  0  0  0  0  0  0  0
   17.5713   16.7740   24.9279 H   0  0  0  0  0  0  0  0  0  0  0  0
   18.1224   16.7930   23.3729 H   0  0  0  0  0  0  0  0  0  0  0  0
   19.1776   16.5556   24.6203 H   0  0  0  0  0  0  0  0  0  0  0  0
  1  2  1  0  0  0  0
  1  3  1  0  0  0  0
  1  4  1  0  0  0  0
  1  5  1  0  0  0  0
  5  6  1  0  0  0  0
  5  7  1  0  0  0  0
  5  8  1  0  0  0  0
  8  9  1  0  0  0  0
  8 10  1  0  0  0  0
  8 11  1  0  0  0  0
 11 12  1  0  0  0  0
 11 13  1  0  0  0  0
 11 14  1  0  0  0  0
 14 15  1  0  0  0  0
 14 16  1  0  0  0  0
 14 17  1  0  0  0  0
 17 18  1  0  0  0  0
 17 19  1  0  0  0  0
 19 20  1  0  0  0  0
 19 21  1  0  0  0  0
 19 22  1  0  0  0  0
 17 23  1  0  0  0  0
 23 24  1  0  0  0  0
 23 25  1  0  0  0  0
 23 26  1  0  0  0  0
M  END
> <VConfSearch Rank>
59

> <Conf_Id>
105

> <Delta U+W>
3.442

> <U+W>
-26.857

> <U>
27.313

> <W>
-54.169

> <W(PB)>
-56.414

> <W(SA)>
2.245

> <Valence>
6.229

> <Coulomb>
19.943

> <VdW>
1.140

> <VdW6>
-9.001

> <VdW12>
10.140

> <Bond>
0.294

> <Angle>
1.969

> <Pdih>
3.967

> <Idih>
0.000

> <Tether>
0.000

$$$$
VeraChem MOL file


 26 25  0  0  0  0  0  0  0  0999 V2000     
   17.5489   18.0174   24.7991 C   0  0  0  0  0  0  0  0  0  0  0  0
   17.8653   17.5197   25.7249 H   0  0  0  0  0  0  0  0  0  0  0  0
   16.4661   17.8695   24.6955 H   0  0  0  0  0  0  0  0  0  0  0  0
   18.0341   17.5081   23.9595 H   0  0  0  0  0  0  0  0  0  0  0  0
   17.8863   19.5262   24.8406 C   0  0  0  0  0  0  0  0  0  0  0  0
   17.3386   19.9714   25.6830 H   0  0  0  0  0  0  0  0  0  0  0  0
   17.5100   20.0268   23.9376 H   0  0  0  0  0  0  0  0  0  0  0  0
   19.3979   19.8164   25.0278 C   0  0  0  0  0  0  0  0  0  0  0  0
   19.4977   20.7236   25.6397 H   0  0  0  0  0  0  0  0  0  0  0  0
   19.8698   19.0138   25.6111 H   0  0  0  0  0  0  0  0  0  0  0  0
   20.1833   20.0541   23.7121 C   0  0  0  0  0  0  0  0  0  0  0  0
   21.2163   20.3233   23.9729 H   0  0  0  0  0  0  0  0  0  0  0  0
   19.7593   20.9250   23.1947 H   0  0  0  0  0  0  0  0  0  0  0  0
   20.2082   18.8356   22.7567 C   0  0  0  0  0  0  0  0  0  0  0  0
   20.4951   17.9416   23.3262 H   0  0  0  0  0  0  0  0  0  0  0  0
   19.2023   18.6538   22.3582 H   0  0  0  0  0  0  0  0  0  0  0  0
   21.1930   19.0156   21.5815 C   0  0  1  0  0  0  0  0  0  0  0  0
   22.1870   19.2132   21.9944 H   0  0  0  0  0  0  0  0  0  0  0  0
   21.2658   17.7291   20.7434 C   0  0  0  0  0  0  0  0  0  0  0  0
   20.2907   17.4865   20.3025 H   0  0  0  0  0  0  0  0  0  0  0  0
   21.5825   16.8792   21.3607 H   0  0  0  0  0  0  0  0  0  0  0  0
   21.9921   17.8371   19.9285 H   0  0  0  0  0  0  0  0  0  0  0  0
   20.8431   20.1932   20.7131 N   0  3  0  0  0  0  0  0  0  0  0  0
   20.8325   21.0639   21.2510 H   0  0  0  0  0  0  0  0  0  0  0  0
   21.5186   20.3113   19.9528 H   0  0  0  0  0  0  0  0  0  0  0  0
   19.9191   20.0820   20.2877 H   0  0  0  0  0  0  0  0  0  0  0  0
  1  2  1  0  0  0  0
  1  3  1  0  0  0  0
  1  4  1  0  0  0  0
  1  5  1  0  0  0  0
  5  6  1  0  0  0  0
  5  7  1  0  0  0  0
  5  8  1  0  0  0  0
  8  9  1  0  0  0  0
  8 10  1  0  0  0  0
  8 11  1  0  0  0  0
 11 12  1  0  0  0  0
 11 13  1  0  0  0  0
 11 14  1  0  0  0  0
 14 15  1  0  0  0  0
 14 16  1  0  0  0  0
 14 17  1  0  0  0  0
 17 18  1  0  0  0  0
 17 19  1  0  0  0  0
 19 20  1  0  0  0  0
 19 21  1  0  0  0  0
 19 22  1  0  0  0  0
 17 23  1  0  0  0  0
 23 24  1  0  0  0  0
 23 25  1  0  0  0  0
 23 26  1  0  0  0  0
M  END
> <VConfSearch Rank>
60

> <Conf_Id>
107

> <Delta U+W>
2.995

> <U+W>
-27.304

> <U>
26.796

> <W>
-54.100

> <W(PB)>
-56.404

> <W(SA)>
2.304

> <Valence>
5.706

> <Coulomb>
20.107

> <VdW>
0.982

> <VdW6>
-8.396

> <VdW12>
9.378

> <Bond>
0.254

> <Angle>
1.644

> <Pdih>
3.808

> <Idih>
0.000

> <Tether>
0.000

$$$$
VeraChem MOL file


 26 25  0  0  0  0  0  0  0  0999 V2000     
   23.4029   19.7775   20.8597 C   0  0  0  0  0  0  0  0  0  0  0  0
   23.1459   19.2157   19.9522 H   0  0  0  0  0  0  0  0  0  0  0  0
   24.0245   20.6320   20.5623 H   0  0  0  0  0  0  0  0  0  0  0  0
   24.0094   19.1275   21.5039 H   0  0  0  0  0  0  0  0  0  0  0  0
   22.1327   20.2569   21.5938 C   0  0  0  0  0  0  0  0  0  0  0  0
   21.5649   20.9311   20.9373 H   0  0  0  0  0  0  0  0  0  0  0  0
   22.4219   20.8436   22.4770 H   0  0  0  0  0  0  0  0  0  0  0  0
   21.2391   19.0725   22.0238 C   0  0  0  0  0  0  0  0  0  0  0  0
   20.9559   18.4876   21.1377 H   0  0  0  0  0  0  0  0  0  0  0  0
   21.8115   18.4006   22.6783 H   0  0  0  0  0  0  0  0  0  0  0  0
   19.9655   19.5485   22.7586 C   0  0  0  0  0  0  0  0  0  0  0  0
   19.3923   20.2175   22.1017 H   0  0  0  0  0  0  0  0  0  0  0  0
   20.2572   20.1374   23.6384 H   0  0  0  0  0  0  0  0  0  0  0  0
   19.0729   18.3593   23.1894 C   0  0  0  0  0  0  0  0  0  0  0  0
   18.8381   17.7531   22.3042 H   0  0  0  0  0  0  0  0  0  0  0  0
   19.6284   17.7076   23.8770 H   0  0  0  0  0  0  0  0  0  0  0  0
   17.7512   18.8062   23.8511 C   0  0  1  0  0  0  0  0  0  0  0  0
   17.2285   19.4719   23.1574 H   0  0  0  0  0  0  0  0  0  0  0  0
   16.8515   17.5898   24.1225 C   0  0  0  0  0  0  0  0  0  0  0  0
   17.3306   16.8885   24.8172 H   0  0  0  0  0  0  0  0  0  0  0  0
   16.6316   17.0520   23.1918 H   0  0  0  0  0  0  0  0  0  0  0  0
   15.8952   17.9037   24.5588 H   0  0  0  0  0  0  0  0  0  0  0  0
   17.9757   19.5887   25.1163 N   0  3  0  0  0  0  0  0  0  0  0  0
   18.4664   19.0296   25.8191 H   0  0  0  0  0  0  0  0  0  0  0  0
   18.5358   20.4276   24.9431 H   0  0  0  0  0  0  0  0  0  0  0  0
   17.0899   19.8927   25.5304 H   0  0  0  0  0  0  0  0  0  0  0  0
  1  2  1  0  0  0  0
  1  3  1  0  0  0  0
  1  4  1  0  0  0  0
  1  5  1  0  0  0  0
  5  6  1  0  0  0  0
  5  7  1  0  0  0  0
  5  8  1  0  0  0  0
  8  9  1  0  0  0  0
  8 10  1  0  0  0  0
  8 11  1  0  0  0  0
 11 12  1  0  0  0  0
 11 13  1  0  0  0  0
 11 14  1  0  0  0  0
 14 15  1  0  0  0  0
 14 16  1  0  0  0  0
 14 17  1  0  0  0  0
 17 18  1  0  0  0  0
 17 19  1  0  0  0  0
 19 20  1  0  0  0  0
 19 21  1  0  0  0  0
 19 22  1  0  0  0  0
 17 23  1  0  0  0  0
 23 24  1  0  0  0  0
 23 25  1  0  0  0  0
 23 26  1  0  0  0  0
M  END
> <VConfSearch Rank>
61

> <Conf_Id>
122

> <Delta U+W>
0.000

> <U+W>
-30.299

> <U>
23.517

> <W>
-53.816

> <W(PB)>
-56.162

> <W(SA)>
2.346

> <Valence>
2.737

> <Coulomb>
19.862

> <VdW>
0.919

> <VdW6>
-6.793

> <VdW12>
7.712

> <Bond>
0.171

> <Angle>
0.873

> <Pdih>
1.693

> <Idih>
0.000

> <Tether>
0.000

$$$$
VeraChem MOL file


 26 25  0  0  0  0  0  0  0  0999 V2000     
   22.0930   20.6380   19.7563 C   0  0  0  0  0  0  0  0  0  0  0  0
   21.9467   21.2977   18.8912 H   0  0  0  0  0  0  0  0  0  0  0  0
   22.9201   21.0438   20.3534 H   0  0  0  0  0  0  0  0  0  0  0  0
   22.3944   19.6515   19.3806 H   0  0  0  0  0  0  0  0  0  0  0  0
   20.7998   20.5417   20.5931 C   0  0  0  0  0  0  0  0  0  0  0  0
   19.9836   20.1654   19.9605 H   0  0  0  0  0  0  0  0  0  0  0  0
   20.5052   21.5469   20.9259 H   0  0  0  0  0  0  0  0  0  0  0  0
   20.9787   19.6181   21.8184 C   0  0  0  0  0  0  0  0  0  0  0  0
   21.2748   18.6152   21.4809 H   0  0  0  0  0  0  0  0  0  0  0  0
   21.7978   19.9971   22.4453 H   0  0  0  0  0  0  0  0  0  0  0  0
   19.6856   19.5194   22.6593 C   0  0  0  0  0  0  0  0  0  0  0  0
   18.8728   19.1482   22.0214 H   0  0  0  0  0  0  0  0  0  0  0  0
   19.3928   20.5221   23.0004 H   0  0  0  0  0  0  0  0  0  0  0  0
   19.8668   18.5894   23.8843 C   0  0  0  0  0  0  0  0  0  0  0  0
   20.0955   17.5703   23.5451 H   0  0  0  0  0  0  0  0  0  0  0  0
   20.7404   18.9305   24.4555 H   0  0  0  0  0  0  0  0  0  0  0  0
   18.6450   18.5605   24.8311 C   0  0  1  0  0  0  0  0  0  0  0  0
   18.4115   19.5895   25.1213 H   0  0  0  0  0  0  0  0  0  0  0  0
   17.4026   17.9505   24.1573 C   0  0  0  0  0  0  0  0  0  0  0  0
   17.6074   16.9371   23.7902 H   0  0  0  0  0  0  0  0  0  0  0  0
   17.0667   18.5615   23.3116 H   0  0  0  0  0  0  0  0  0  0  0  0
   16.5678   17.8929   24.8666 H   0  0  0  0  0  0  0  0  0  0  0  0
   18.9618   17.8231   26.1026 N   0  3  0  0  0  0  0  0  0  0  0  0
   19.1910   16.8425   25.9198 H   0  0  0  0  0  0  0  0  0  0  0  0
   19.7593   18.2394   26.5917 H   0  0  0  0  0  0  0  0  0  0  0  0
   18.1684   17.8354   26.7498 H   0  0  0  0  0  0  0  0  0  0  0  0
  1  2  1  0  0  0  0
  1  3  1  0  0  0  0
  1  4  1  0  0  0  0
  1  5  1  0  0  0  0
  5  6  1  0  0  0  0
  5  7  1  0  0  0  0
  5  8  1  0  0  0  0
  8  9  1  0  0  0  0
  8 10  1  0  0  0  0
  8 11  1  0  0  0  0
 11 12  1  0  0  0  0
 11 13  1  0  0  0  0
 11 14  1  0  0  0  0
 14 15  1  0  0  0  0
 14 16  1  0  0  0  0
 14 17  1  0  0  0  0
 17 18  1  0  0  0  0
 17 19  1  0  0  0  0
 19 20  1  0  0  0  0
 19 21  1  0  0  0  0
 19 22  1  0  0  0  0
 17 23  1  0  0  0  0
 23 24  1  0  0  0  0
 23 25  1  0  0  0  0
 23 26  1  0  0  0  0
M  END
> <VConfSearch Rank>
62

> <Conf_Id>
54

> <Delta U+W>
0.453

> <U+W>
-29.845

> <U>
23.817

> <W>
-53.663

> <W(PB)>
-56.021

> <W(SA)>
2.358

> <Valence>
3.277

> <Coulomb>
19.492

> <VdW>
1.049

> <VdW6>
-6.949

> <VdW12>
7.998

> <Bond>
0.183

> <Angle>
1.152

> <Pdih>
1.942

> <Idih>
0.000

> <Tether>
0.000

$$$$
VeraChem MOL file


 26 25  0  0  0  0  0  0  0  0999 V2000     
   16.4285   20.4159   23.2051 C   0  0  0  0  0  0  0  0  0  0  0  0
   16.2222   19.7507   24.0536 H   0  0  0  0  0  0  0  0  0  0  0  0
   16.9580   21.2995   23.5814 H   0  0  0  0  0  0  0  0  0  0  0  0
   15.4649   20.7566   22.8046 H   0  0  0  0  0  0  0  0  0  0  0  0
   17.2399   19.6856   22.1104 C   0  0  0  0  0  0  0  0  0  0  0  0
   17.4636   20.3798   21.2884 H   0  0  0  0  0  0  0  0  0  0  0  0
   16.6120   18.8928   21.6800 H   0  0  0  0  0  0  0  0  0  0  0  0
   18.5510   19.0486   22.6319 C   0  0  0  0  0  0  0  0  0  0  0  0
   18.3230   18.3792   23.4729 H   0  0  0  0  0  0  0  0  0  0  0  0
   18.9567   18.4257   21.8260 H   0  0  0  0  0  0  0  0  0  0  0  0
   19.6156   20.0911   23.0577 C   0  0  0  0  0  0  0  0  0  0  0  0
   19.1692   20.7954   23.7708 H   0  0  0  0  0  0  0  0  0  0  0  0
   19.9108   20.6887   22.1842 H   0  0  0  0  0  0  0  0  0  0  0  0
   20.8824   19.4939   23.7258 C   0  0  0  0  0  0  0  0  0  0  0  0
   21.4949   20.3399   24.0653 H   0  0  0  0  0  0  0  0  0  0  0  0
   20.6069   18.9419   24.6342 H   0  0  0  0  0  0  0  0  0  0  0  0
   21.7445   18.5979   22.8048 C   0  0  1  0  0  0  0  0  0  0  0  0
   21.7454   19.0338   21.8010 H   0  0  0  0  0  0  0  0  0  0  0  0
   23.1964   18.5502   23.3096 C   0  0  0  0  0  0  0  0  0  0  0  0
   23.8164   17.9284   22.6520 H   0  0  0  0  0  0  0  0  0  0  0  0
   23.2504   18.1351   24.3239 H   0  0  0  0  0  0  0  0  0  0  0  0
   23.6376   19.5546   23.3269 H   0  0  0  0  0  0  0  0  0  0  0  0
   21.2062   17.1982   22.6819 N   0  3  0  0  0  0  0  0  0  0  0  0
   20.2430   17.1951   22.3395 H   0  0  0  0  0  0  0  0  0  0  0  0
   21.7665   16.6379   22.0333 H   0  0  0  0  0  0  0  0  0  0  0  0
   21.2130   16.7171   23.5852 H   0  0  0  0  0  0  0  0  0  0  0  0
  1  2  1  0  0  0  0
  1  3  1  0  0  0  0
  1  4  1  0  0  0  0
  1  5  1  0  0  0  0
  5  6  1  0  0  0  0
  5  7  1  0  0  0  0
  5  8  1  0  0  0  0
  8  9  1  0  0  0  0
  8 10  1  0  0  0  0
  8 11  1  0  0  0  0
 11 12  1  0  0  0  0
 11 13  1  0  0  0  0
 11 14  1  0  0  0  0
 14 15  1  0  0  0  0
 14 16  1  0  0  0  0
 14 17  1  0  0  0  0
 17 18  1  0  0  0  0
 17 19  1  0  0  0  0
 19 20  1  0  0  0  0
 19 21  1  0  0  0  0
 19 22  1  0  0  0  0
 17 23  1  0  0  0  0
 23 24  1  0  0  0  0
 23 25  1  0  0  0  0
 23 26  1  0  0  0  0
M  END
> <VConfSearch Rank>
63

> <Conf_Id>
110

> <Delta U+W>
3.764

> <U+W>
-26.535

> <U>
27.400

> <W>
-53.935

> <W(PB)>
-56.238

> <W(SA)>
2.303

> <Valence>
5.205

> <Coulomb>
21.096

> <VdW>
1.098

> <VdW6>
-8.389

> <VdW12>
9.488

> <Bond>
0.270

> <Angle>
1.912

> <Pdih>
3.023

> <Idih>
0.000

> <Tether>
0.000

$$$$
VeraChem MOL file


 26 25  0  0  0  0  0  0  0  0999 V2000     
   19.2265   20.9718   26.0964 C   0  0  0  0  0  0  0  0  0  0  0  0
   19.6168   21.5845   26.9193 H   0  0  0  0  0  0  0  0  0  0  0  0
   18.8246   21.6556   25.3384 H   0  0  0  0  0  0  0  0  0  0  0  0
   18.3982   20.3688   26.4904 H   0  0  0  0  0  0  0  0  0  0  0  0
   20.3416   20.0728   25.5157 C   0  0  0  0  0  0  0  0  0  0  0  0
   20.7941   19.4964   26.3347 H   0  0  0  0  0  0  0  0  0  0  0  0
   21.1435   20.6999   25.1017 H   0  0  0  0  0  0  0  0  0  0  0  0
   19.8376   19.0871   24.4341 C   0  0  0  0  0  0  0  0  0  0  0  0
   20.6640   18.4183   24.1652 H   0  0  0  0  0  0  0  0  0  0  0  0
   19.0557   18.4449   24.8624 H   0  0  0  0  0  0  0  0  0  0  0  0
   19.2903   19.7922   23.1662 C   0  0  0  0  0  0  0  0  0  0  0  0
   20.0082   20.5399   22.8017 H   0  0  0  0  0  0  0  0  0  0  0  0
   18.3848   20.3491   23.4411 H   0  0  0  0  0  0  0  0  0  0  0  0
   18.9229   18.8060   22.0257 C   0  0  0  0  0  0  0  0  0  0  0  0
   18.6591   17.8242   22.4408 H   0  0  0  0  0  0  0  0  0  0  0  0
   18.0114   19.1796   21.5406 H   0  0  0  0  0  0  0  0  0  0  0  0
   20.0034   18.6508   20.9283 C   0  0  1  0  0  0  0  0  0  0  0  0
   20.2059   19.6410   20.5087 H   0  0  0  0  0  0  0  0  0  0  0  0
   21.3258   18.0800   21.4679 C   0  0  0  0  0  0  0  0  0  0  0  0
   21.1669   17.1210   21.9764 H   0  0  0  0  0  0  0  0  0  0  0  0
   21.7961   18.7754   22.1728 H   0  0  0  0  0  0  0  0  0  0  0  0
   22.0392   17.9179   20.6506 H   0  0  0  0  0  0  0  0  0  0  0  0
   19.4992   17.8064   19.7909 N   0  3  0  0  0  0  0  0  0  0  0  0
   18.6442   18.1947   19.3825 H   0  0  0  0  0  0  0  0  0  0  0  0
   20.1915   17.7389   19.0395 H   0  0  0  0  0  0  0  0  0  0  0  0
   19.2879   16.8531   20.0975 H   0  0  0  0  0  0  0  0  0  0  0  0
  1  2  1  0  0  0  0
  1  3  1  0  0  0  0
  1  4  1  0  0  0  0
  1  5  1  0  0  0  0
  5  6  1  0  0  0  0
  5  7  1  0  0  0  0
  5  8  1  0  0  0  0
  8  9  1  0  0  0  0
  8 10  1  0  0  0  0
  8 11  1  0  0  0  0
 11 12  1  0  0  0  0
 11 13  1  0  0  0  0
 11 14  1  0  0  0  0
 14 15  1  0  0  0  0
 14 16  1  0  0  0  0
 14 17  1  0  0  0  0
 17 18  1  0  0  0  0
 17 19  1  0  0  0  0
 19 20  1  0  0  0  0
 19 21  1  0  0  0  0
 19 22  1  0  0  0  0
 17 23  1  0  0  0  0
 23 24  1  0  0  0  0
 23 25  1  0  0  0  0
 23 26  1  0  0  0  0
M  END
> <VConfSearch Rank>
64

> <Conf_Id>
34

> <Delta U+W>
3.568

> <U+W>
-26.731

> <U>
27.221

> <W>
-53.952

> <W(PB)>
-56.213

> <W(SA)>
2.261

> <Valence>
6.368

> <Coulomb>
19.698

> <VdW>
1.155

> <VdW6>
-8.532

> <VdW12>
9.687

> <Bond>
0.272

> <Angle>
1.847

> <Pdih>
4.248

> <Idih>
0.000

> <Tether>
0.000

$$$$
VeraChem MOL file


 26 25  0  0  0  0  0  0  0  0999 V2000     
   17.0478   20.2257   25.6918 C   0  0  0  0  0  0  0  0  0  0  0  0
   17.6042   19.9605   26.6002 H   0  0  0  0  0  0  0  0  0  0  0  0
   17.1196   21.3122   25.5518 H   0  0  0  0  0  0  0  0  0  0  0  0
   15.9918   19.9766   25.8587 H   0  0  0  0  0  0  0  0  0  0  0  0
   17.5984   19.4706   24.4635 C   0  0  0  0  0  0  0  0  0  0  0  0
   17.0010   19.7302   23.5782 H   0  0  0  0  0  0  0  0  0  0  0  0
   17.4819   18.3888   24.6185 H   0  0  0  0  0  0  0  0  0  0  0  0
   19.0847   19.8038   24.2061 C   0  0  0  0  0  0  0  0  0  0  0  0
   19.1958   20.8865   24.0544 H   0  0  0  0  0  0  0  0  0  0  0  0
   19.6769   19.5450   25.0947 H   0  0  0  0  0  0  0  0  0  0  0  0
   19.6401   19.0493   22.9769 C   0  0  0  0  0  0  0  0  0  0  0  0
   19.0427   19.3111   22.0936 H   0  0  0  0  0  0  0  0  0  0  0  0
   19.5200   17.9697   23.1364 H   0  0  0  0  0  0  0  0  0  0  0  0
   21.1331   19.3861   22.7260 C   0  0  0  0  0  0  0  0  0  0  0  0
   21.2443   20.4730   22.6177 H   0  0  0  0  0  0  0  0  0  0  0  0
   21.7212   19.1094   23.6112 H   0  0  0  0  0  0  0  0  0  0  0  0
   21.7553   18.7054   21.4837 C   0  0  1  0  0  0  0  0  0  0  0  0
   22.7913   19.0503   21.4093 H   0  0  0  0  0  0  0  0  0  0  0  0
   21.7843   17.1727   21.6171 C   0  0  0  0  0  0  0  0  0  0  0  0
   20.7751   16.7445   21.6002 H   0  0  0  0  0  0  0  0  0  0  0  0
   22.2704   16.8719   22.5535 H   0  0  0  0  0  0  0  0  0  0  0  0
   22.3508   16.7267   20.7905 H   0  0  0  0  0  0  0  0  0  0  0  0
   21.0845   19.1224   20.2037 N   0  3  0  0  0  0  0  0  0  0  0  0
   21.5481   18.7129   19.3878 H   0  0  0  0  0  0  0  0  0  0  0  0
   20.1063   18.8244   20.1823 H   0  0  0  0  0  0  0  0  0  0  0  0
   21.1001   20.1394   20.0856 H   0  0  0  0  0  0  0  0  0  0  0  0
  1  2  1  0  0  0  0
  1  3  1  0  0  0  0
  1  4  1  0  0  0  0
  1  5  1  0  0  0  0
  5  6  1  0  0  0  0
  5  7  1  0  0  0  0
  5  8  1  0  0  0  0
  8  9  1  0  0  0  0
  8 10  1  0  0  0  0
  8 11  1  0  0  0  0
 11 12  1  0  0  0  0
 11 13  1  0  0  0  0
 11 14  1  0  0  0  0
 14 15  1  0  0  0  0
 14 16  1  0  0  0  0
 14 17  1  0  0  0  0
 17 18  1  0  0  0  0
 17 19  1  0  0  0  0
 19 20  1  0  0  0  0
 19 21  1  0  0  0  0
 19 22  1  0  0  0  0
 17 23  1  0  0  0  0
 23 24  1  0  0  0  0
 23 25  1  0  0  0  0
 23 26  1  0  0  0  0
M  END
> <VConfSearch Rank>
65

> <Conf_Id>
132

> <Delta U+W>
0.363

> <U+W>
-29.936

> <U>
24.060

> <W>
-53.996

> <W(PB)>
-56.327

> <W(SA)>
2.332

> <Valence>
3.249

> <Coulomb>
19.781

> <VdW>
1.030

> <VdW6>
-7.421

> <VdW12>
8.451

> <Bond>
0.207

> <Angle>
1.205

> <Pdih>
1.837

> <Idih>
0.000

> <Tether>
0.000

$$$$
VeraChem MOL file


 26 25  0  0  0  0  0  0  0  0999 V2000     
   18.2053   18.6833   26.4871 C   0  0  0  0  0  0  0  0  0  0  0  0
   17.2920   18.1061   26.6816 H   0  0  0  0  0  0  0  0  0  0  0  0
   18.9809   18.3292   27.1787 H   0  0  0  0  0  0  0  0  0  0  0  0
   17.9948   19.7355   26.7190 H   0  0  0  0  0  0  0  0  0  0  0  0
   18.6523   18.5178   25.0191 C   0  0  0  0  0  0  0  0  0  0  0  0
   17.8360   18.8427   24.3606 H   0  0  0  0  0  0  0  0  0  0  0  0
   18.8269   17.4533   24.8097 H   0  0  0  0  0  0  0  0  0  0  0  0
   19.9366   19.3271   24.7201 C   0  0  0  0  0  0  0  0  0  0  0  0
   19.7453   20.3976   24.8766 H   0  0  0  0  0  0  0  0  0  0  0  0
   20.7118   19.0441   25.4455 H   0  0  0  0  0  0  0  0  0  0  0  0
   20.4960   19.1019   23.2936 C   0  0  0  0  0  0  0  0  0  0  0  0
   20.6910   18.0312   23.1476 H   0  0  0  0  0  0  0  0  0  0  0  0
   21.4689   19.6060   23.2302 H   0  0  0  0  0  0  0  0  0  0  0  0
   19.5606   19.6339   22.1734 C   0  0  0  0  0  0  0  0  0  0  0  0
   18.5991   19.1081   22.2160 H   0  0  0  0  0  0  0  0  0  0  0  0
   19.3359   20.6925   22.3593 H   0  0  0  0  0  0  0  0  0  0  0  0
   20.1172   19.4883   20.7371 C   0  0  1  0  0  0  0  0  0  0  0  0
   19.3427   19.8464   20.0518 H   0  0  0  0  0  0  0  0  0  0  0  0
   21.3711   20.3507   20.5091 C   0  0  0  0  0  0  0  0  0  0  0  0
   22.2270   19.9861   21.0891 H   0  0  0  0  0  0  0  0  0  0  0  0
   21.1835   21.3943   20.7909 H   0  0  0  0  0  0  0  0  0  0  0  0
   21.6562   20.3390   19.4500 H   0  0  0  0  0  0  0  0  0  0  0  0
   20.3736   18.0542   20.3633 N   0  3  0  0  0  0  0  0  0  0  0  0
   19.5307   17.4823   20.4676 H   0  0  0  0  0  0  0  0  0  0  0  0
   20.6816   17.9704   19.3904 H   0  0  0  0  0  0  0  0  0  0  0  0
   21.1012   17.6414   20.9520 H   0  0  0  0  0  0  0  0  0  0  0  0
  1  2  1  0  0  0  0
  1  3  1  0  0  0  0
  1  4  1  0  0  0  0
  1  5  1  0  0  0  0
  5  6  1  0  0  0  0
  5  7  1  0  0  0  0
  5  8  1  0  0  0  0
  8  9  1  0  0  0  0
  8 10  1  0  0  0  0
  8 11  1  0  0  0  0
 11 12  1  0  0  0  0
 11 13  1  0  0  0  0
 11 14  1  0  0  0  0
 14 15  1  0  0  0  0
 14 16  1  0  0  0  0
 14 17  1  0  0  0  0
 17 18  1  0  0  0  0
 17 19  1  0  0  0  0
 19 20  1  0  0  0  0
 19 21  1  0  0  0  0
 19 22  1  0  0  0  0
 17 23  1  0  0  0  0
 23 24  1  0  0  0  0
 23 25  1  0  0  0  0
 23 26  1  0  0  0  0
M  END
> <VConfSearch Rank>
66

> <Conf_Id>
46

> <Delta U+W>
1.114

> <U+W>
-29.185

> <U>
24.990

> <W>
-54.175

> <W(PB)>
-56.455

> <W(SA)>
2.279

> <Valence>
3.862

> <Coulomb>
19.956

> <VdW>
1.172

> <VdW6>
-8.054

> <VdW12>
9.226

> <Bond>
0.258

> <Angle>
1.499

> <Pdih>
2.106

> <Idih>
0.000

> <Tether>
0.000

$$$$
VeraChem MOL file


 26 25  0  0  0  0  0  0  0  0999 V2000     
   18.4534   16.7759   20.5188 C   0  0  0  0  0  0  0  0  0  0  0  0
   19.0334   17.4321   19.8583 H   0  0  0  0  0  0  0  0  0  0  0  0
   19.0858   15.9240   20.8002 H   0  0  0  0  0  0  0  0  0  0  0  0
   17.6075   16.3879   19.9367 H   0  0  0  0  0  0  0  0  0  0  0  0
   17.9478   17.5302   21.7695 C   0  0  0  0  0  0  0  0  0  0  0  0
   17.2704   16.8702   22.3293 H   0  0  0  0  0  0  0  0  0  0  0  0
   17.3464   18.3967   21.4610 H   0  0  0  0  0  0  0  0  0  0  0  0
   19.0840   17.9903   22.7147 C   0  0  0  0  0  0  0  0  0  0  0  0
   18.6247   18.3948   23.6261 H   0  0  0  0  0  0  0  0  0  0  0  0
   19.6755   17.1187   23.0271 H   0  0  0  0  0  0  0  0  0  0  0  0
   20.0166   19.0556   22.0841 C   0  0  0  0  0  0  0  0  0  0  0  0
   19.4239   19.9154   21.7449 H   0  0  0  0  0  0  0  0  0  0  0  0
   20.4912   18.6405   21.1857 H   0  0  0  0  0  0  0  0  0  0  0  0
   21.1397   19.5290   23.0426 C   0  0  0  0  0  0  0  0  0  0  0  0
   21.7725   18.6682   23.2969 H   0  0  0  0  0  0  0  0  0  0  0  0
   21.7874   20.2383   22.5104 H   0  0  0  0  0  0  0  0  0  0  0  0
   20.6319   20.1834   24.3474 C   0  0  1  0  0  0  0  0  0  0  0  0
   20.0101   19.4570   24.8788 H   0  0  0  0  0  0  0  0  0  0  0  0
   21.8154   20.5536   25.2554 C   0  0  0  0  0  0  0  0  0  0  0  0
   21.4602   20.9821   26.2007 H   0  0  0  0  0  0  0  0  0  0  0  0
   22.4722   21.2880   24.7726 H   0  0  0  0  0  0  0  0  0  0  0  0
   22.4139   19.6662   25.4964 H   0  0  0  0  0  0  0  0  0  0  0  0
   19.7668   21.3861   24.0874 N   0  3  0  0  0  0  0  0  0  0  0  0
   18.9539   21.1422   23.5151 H   0  0  0  0  0  0  0  0  0  0  0  0
   19.4179   21.7927   24.9600 H   0  0  0  0  0  0  0  0  0  0  0  0
   20.2840   22.1178   23.5933 H   0  0  0  0  0  0  0  0  0  0  0  0
  1  2  1  0  0  0  0
  1  3  1  0  0  0  0
  1  4  1  0  0  0  0
  1  5  1  0  0  0  0
  5  6  1  0  0  0  0
  5  7  1  0  0  0  0
  5  8  1  0  0  0  0
  8  9  1  0  0  0  0
  8 10  1  0  0  0  0
  8 11  1  0  0  0  0
 11 12  1  0  0  0  0
 11 13  1  0  0  0  0
 11 14  1  0  0  0  0
 14 15  1  0  0  0  0
 14 16  1  0  0  0  0
 14 17  1  0  0  0  0
 17 18  1  0  0  0  0
 17 19  1  0  0  0  0
 19 20  1  0  0  0  0
 19 21  1  0  0  0  0
 19 22  1  0  0  0  0
 17 23  1  0  0  0  0
 23 24  1  0  0  0  0
 23 25  1  0  0  0  0
 23 26  1  0  0  0  0
M  END
> <VConfSearch Rank>
67

> <Conf_Id>
113

> <Delta U+W>
1.137

> <U+W>
-29.162

> <U>
24.833

> <W>
-53.995

> <W(PB)>
-56.288

> <W(SA)>
2.294

> <Valence>
3.589

> <Coulomb>
20.270

> <VdW>
0.974

> <VdW6>
-8.255

> <VdW12>
9.229

> <Bond>
0.244

> <Angle>
1.377

> <Pdih>
1.967

> <Idih>
0.000

> <Tether>
0.000

$$$$
VeraChem MOL file


 26 25  0  0  0  0  0  0  0  0999 V2000     
   18.3241   16.3545   20.5966 C   0  0  0  0  0  0  0  0  0  0  0  0
   17.2536   16.2142   20.3986 H   0  0  0  0  0  0  0  0  0  0  0  0
   18.8060   16.6452   19.6540 H   0  0  0  0  0  0  0  0  0  0  0  0
   18.7385   15.3869   20.9084 H   0  0  0  0  0  0  0  0  0  0  0  0
   18.5410   17.4281   21.6842 C   0  0  0  0  0  0  0  0  0  0  0  0
   18.0235   17.1235   22.6046 H   0  0  0  0  0  0  0  0  0  0  0  0
   18.0781   18.3674   21.3539 H   0  0  0  0  0  0  0  0  0  0  0  0
   20.0442   17.6467   21.9775 C   0  0  0  0  0  0  0  0  0  0  0  0
   20.5029   16.6799   22.2269 H   0  0  0  0  0  0  0  0  0  0  0  0
   20.5509   18.0024   21.0697 H   0  0  0  0  0  0  0  0  0  0  0  0
   20.3121   18.6313   23.1423 C   0  0  0  0  0  0  0  0  0  0  0  0
   21.3898   18.6270   23.3515 H   0  0  0  0  0  0  0  0  0  0  0  0
   19.8183   18.2567   24.0487 H   0  0  0  0  0  0  0  0  0  0  0  0
   19.8474   20.0824   22.8407 C   0  0  0  0  0  0  0  0  0  0  0  0
   20.2638   20.4024   21.8766 H   0  0  0  0  0  0  0  0  0  0  0  0
   18.7569   20.1045   22.7230 H   0  0  0  0  0  0  0  0  0  0  0  0
   20.2391   21.1257   23.9138 C   0  0  1  0  0  0  0  0  0  0  0  0
   19.8629   22.0963   23.5757 H   0  0  0  0  0  0  0  0  0  0  0  0
   19.5906   20.8241   25.2762 C   0  0  0  0  0  0  0  0  0  0  0  0
   19.9921   19.9062   25.7219 H   0  0  0  0  0  0  0  0  0  0  0  0
   18.5042   20.7106   25.1743 H   0  0  0  0  0  0  0  0  0  0  0  0
   19.7745   21.6460   25.9790 H   0  0  0  0  0  0  0  0  0  0  0  0
   21.7291   21.2818   24.0486 N   0  3  0  0  0  0  0  0  0  0  0  0
   22.1637   21.5249   23.1539 H   0  0  0  0  0  0  0  0  0  0  0  0
   21.9690   22.0208   24.7155 H   0  0  0  0  0  0  0  0  0  0  0  0
   22.1655   20.4177   24.3786 H   0  0  0  0  0  0  0  0  0  0  0  0
  1  2  1  0  0  0  0
  1  3  1  0  0  0  0
  1  4  1  0  0  0  0
  1  5  1  0  0  0  0
  5  6  1  0  0  0  0
  5  7  1  0  0  0  0
  5  8  1  0  0  0  0
  8  9  1  0  0  0  0
  8 10  1  0  0  0  0
  8 11  1  0  0  0  0
 11 12  1  0  0  0  0
 11 13  1  0  0  0  0
 11 14  1  0  0  0  0
 14 15  1  0  0  0  0
 14 16  1  0  0  0  0
 14 17  1  0  0  0  0
 17 18  1  0  0  0  0
 17 19  1  0  0  0  0
 19 20  1  0  0  0  0
 19 21  1  0  0  0  0
 19 22  1  0  0  0  0
 17 23  1  0  0  0  0
 23 24  1  0  0  0  0
 23 25  1  0  0  0  0
 23 26  1  0  0  0  0
M  END
> <VConfSearch Rank>
68

> <Conf_Id>
45

> <Delta U+W>
1.035

> <U+W>
-29.264

> <U>
24.725

> <W>
-53.989

> <W(PB)>
-56.298

> <W(SA)>
2.309

> <Valence>
3.780

> <Coulomb>
19.804

> <VdW>
1.141

> <VdW6>
-8.104

> <VdW12>
9.246

> <Bond>
0.254

> <Angle>
1.437

> <Pdih>
2.089

> <Idih>
0.000

> <Tether>
0.000

$$$$
VeraChem MOL file


 26 25  0  0  0  0  0  0  0  0999 V2000     
   23.4264   17.7383   22.0876 C   0  0  0  0  0  0  0  0  0  0  0  0
   24.3228   18.3675   22.0123 H   0  0  0  0  0  0  0  0  0  0  0  0
   23.6804   16.8623   22.6986 H   0  0  0  0  0  0  0  0  0  0  0  0
   23.1738   17.3893   21.0778 H   0  0  0  0  0  0  0  0  0  0  0  0
   22.2561   18.5292   22.7098 C   0  0  0  0  0  0  0  0  0  0  0  0
   22.0609   19.4171   22.0942 H   0  0  0  0  0  0  0  0  0  0  0  0
   22.5492   18.8893   23.7058 H   0  0  0  0  0  0  0  0  0  0  0  0
   20.9790   17.6630   22.8218 C   0  0  0  0  0  0  0  0  0  0  0  0
   20.6541   17.3501   21.8199 H   0  0  0  0  0  0  0  0  0  0  0  0
   21.2220   16.7411   23.3681 H   0  0  0  0  0  0  0  0  0  0  0  0
   19.8091   18.3691   23.5507 C   0  0  0  0  0  0  0  0  0  0  0  0
   20.1351   18.6797   24.5531 H   0  0  0  0  0  0  0  0  0  0  0  0
   19.0093   17.6321   23.7004 H   0  0  0  0  0  0  0  0  0  0  0  0
   19.2483   19.5928   22.7809 C   0  0  0  0  0  0  0  0  0  0  0  0
   20.0438   20.3373   22.6541 H   0  0  0  0  0  0  0  0  0  0  0  0
   18.9389   19.2877   21.7724 H   0  0  0  0  0  0  0  0  0  0  0  0
   18.0629   20.2680   23.5049 C   0  0  1  0  0  0  0  0  0  0  0  0
   18.3841   20.5299   24.5178 H   0  0  0  0  0  0  0  0  0  0  0  0
   17.6592   21.5608   22.7778 C   0  0  0  0  0  0  0  0  0  0  0  0
   17.3273   21.3529   21.7528 H   0  0  0  0  0  0  0  0  0  0  0  0
   18.5029   22.2605   22.7283 H   0  0  0  0  0  0  0  0  0  0  0  0
   16.8407   22.0645   23.3066 H   0  0  0  0  0  0  0  0  0  0  0  0
   16.8766   19.3539   23.6490 N   0  3  0  0  0  0  0  0  0  0  0  0
   17.1165   18.5084   24.1732 H   0  0  0  0  0  0  0  0  0  0  0  0
   16.1083   19.8136   24.1458 H   0  0  0  0  0  0  0  0  0  0  0  0
   16.5186   19.0600   22.7364 H   0  0  0  0  0  0  0  0  0  0  0  0
  1  2  1  0  0  0  0
  1  3  1  0  0  0  0
  1  4  1  0  0  0  0
  1  5  1  0  0  0  0
  5  6  1  0  0  0  0
  5  7  1  0  0  0  0
  5  8  1  0  0  0  0
  8  9  1  0  0  0  0
  8 10  1  0  0  0  0
  8 11  1  0  0  0  0
 11 12  1  0  0  0  0
 11 13  1  0  0  0  0
 11 14  1  0  0  0  0
 14 15  1  0  0  0  0
 14 16  1  0  0  0  0
 14 17  1  0  0  0  0
 17 18  1  0  0  0  0
 17 19  1  0  0  0  0
 19 20  1  0  0  0  0
 19 21  1  0  0  0  0
 19 22  1  0  0  0  0
 17 23  1  0  0  0  0
 23 24  1  0  0  0  0
 23 25  1  0  0  0  0
 23 26  1  0  0  0  0
M  END
> <VConfSearch Rank>
69

> <Conf_Id>
121

> <Delta U+W>
0.736

> <U+W>
-29.562

> <U>
24.282

> <W>
-53.844

> <W(PB)>
-56.205

> <W(SA)>
2.361

> <Valence>
3.311

> <Coulomb>
19.887

> <VdW>
1.083

> <VdW6>
-7.444

> <VdW12>
8.527

> <Bond>
0.219

> <Angle>
1.167

> <Pdih>
1.926

> <Idih>
0.000

> <Tether>
0.000

$$$$
VeraChem MOL file


 26 25  0  0  0  0  0  0  0  0999 V2000     
   22.3477   21.5443   24.1512 C   0  0  0  0  0  0  0  0  0  0  0  0
   23.2723   21.7704   24.6978 H   0  0  0  0  0  0  0  0  0  0  0  0
   22.3121   22.1960   23.2685 H   0  0  0  0  0  0  0  0  0  0  0  0
   21.5068   21.8047   24.8057 H   0  0  0  0  0  0  0  0  0  0  0  0
   22.3117   20.0538   23.7437 C   0  0  0  0  0  0  0  0  0  0  0  0
   22.3136   19.4238   24.6442 H   0  0  0  0  0  0  0  0  0  0  0  0
   23.2361   19.8146   23.1997 H   0  0  0  0  0  0  0  0  0  0  0  0
   21.1022   19.6867   22.8502 C   0  0  0  0  0  0  0  0  0  0  0  0
   21.1098   20.3134   21.9477 H   0  0  0  0  0  0  0  0  0  0  0  0
   21.2338   18.6513   22.5096 H   0  0  0  0  0  0  0  0  0  0  0  0
   19.7379   19.8256   23.5722 C   0  0  0  0  0  0  0  0  0  0  0  0
   19.6005   20.8644   23.8989 H   0  0  0  0  0  0  0  0  0  0  0  0
   19.7370   19.2188   24.4872 H   0  0  0  0  0  0  0  0  0  0  0  0
   18.5304   19.4431   22.6772 C   0  0  0  0  0  0  0  0  0  0  0  0
   17.6037   19.5937   23.2465 H   0  0  0  0  0  0  0  0  0  0  0  0
   18.4874   20.1464   21.8351 H   0  0  0  0  0  0  0  0  0  0  0  0
   18.5543   18.0009   22.1173 C   0  0  1  0  0  0  0  0  0  0  0  0
   19.4755   17.8681   21.5425 H   0  0  0  0  0  0  0  0  0  0  0  0
   18.5224   16.9447   23.2364 C   0  0  0  0  0  0  0  0  0  0  0  0
   17.6419   17.0732   23.8782 H   0  0  0  0  0  0  0  0  0  0  0  0
   19.4182   17.0046   23.8654 H   0  0  0  0  0  0  0  0  0  0  0  0
   18.4903   15.9334   22.8129 H   0  0  0  0  0  0  0  0  0  0  0  0
   17.4220   17.7749   21.1543 N   0  3  0  0  0  0  0  0  0  0  0  0
   17.4487   18.4411   20.3772 H   0  0  0  0  0  0  0  0  0  0  0  0
   17.4563   16.8347   20.7502 H   0  0  0  0  0  0  0  0  0  0  0  0
   16.5134   17.8759   21.6145 H   0  0  0  0  0  0  0  0  0  0  0  0
  1  2  1  0  0  0  0
  1  3  1  0  0  0  0
  1  4  1  0  0  0  0
  1  5  1  0  0  0  0
  5  6  1  0  0  0  0
  5  7  1  0  0  0  0
  5  8  1  0  0  0  0
  8  9  1  0  0  0  0
  8 10  1  0  0  0  0
  8 11  1  0  0  0  0
 11 12  1  0  0  0  0
 11 13  1  0  0  0  0
 11 14  1  0  0  0  0
 14 15  1  0  0  0  0
 14 16  1  0  0  0  0
 14 17  1  0  0  0  0
 17 18  1  0  0  0  0
 17 19  1  0  0  0  0
 19 20  1  0  0  0  0
 19 21  1  0  0  0  0
 19 22  1  0  0  0  0
 17 23  1  0  0  0  0
 23 24  1  0  0  0  0
 23 25  1  0  0  0  0
 23 26  1  0  0  0  0
M  END
> <VConfSearch Rank>
70

> <Conf_Id>
5

> <Delta U+W>
1.233

> <U+W>
-29.065

> <U>
25.023

> <W>
-54.088

> <W(PB)>
-56.383

> <W(SA)>
2.296

> <Valence>
4.083

> <Coulomb>
19.893

> <VdW>
1.047

> <VdW6>
-8.479

> <VdW12>
9.527

> <Bond>
0.256

> <Angle>
1.716

> <Pdih>
2.112

> <Idih>
0.000

> <Tether>
0.000

$$$$
VeraChem MOL file


 26 25  0  0  0  0  0  0  0  0999 V2000     
   20.8382   20.1842   19.5796 C   0  0  0  0  0  0  0  0  0  0  0  0
   21.5666   20.5537   18.8462 H   0  0  0  0  0  0  0  0  0  0  0  0
   20.6869   19.1159   19.3826 H   0  0  0  0  0  0  0  0  0  0  0  0
   19.8888   20.7055   19.4009 H   0  0  0  0  0  0  0  0  0  0  0  0
   21.3468   20.4325   21.0180 C   0  0  0  0  0  0  0  0  0  0  0  0
   21.6047   21.4959   21.1211 H   0  0  0  0  0  0  0  0  0  0  0  0
   22.2784   19.8734   21.1833 H   0  0  0  0  0  0  0  0  0  0  0  0
   20.3140   20.0659   22.1111 C   0  0  0  0  0  0  0  0  0  0  0  0
   20.7101   20.4070   23.0763 H   0  0  0  0  0  0  0  0  0  0  0  0
   19.3834   20.6238   21.9378 H   0  0  0  0  0  0  0  0  0  0  0  0
   20.0103   18.5488   22.1891 C   0  0  0  0  0  0  0  0  0  0  0  0
   20.9403   17.9999   22.3916 H   0  0  0  0  0  0  0  0  0  0  0  0
   19.6504   18.1957   21.2143 H   0  0  0  0  0  0  0  0  0  0  0  0
   18.9494   18.1710   23.2541 C   0  0  0  0  0  0  0  0  0  0  0  0
   17.9891   18.6463   23.0130 H   0  0  0  0  0  0  0  0  0  0  0  0
   18.7721   17.0905   23.1722 H   0  0  0  0  0  0  0  0  0  0  0  0
   19.3717   18.5086   24.7048 C   0  0  1  0  0  0  0  0  0  0  0  0
   20.4558   18.6576   24.7187 H   0  0  0  0  0  0  0  0  0  0  0  0
   18.6901   19.7940   25.2087 C   0  0  0  0  0  0  0  0  0  0  0  0
   17.6014   19.6686   25.2619 H   0  0  0  0  0  0  0  0  0  0  0  0
   18.8988   20.6445   24.5502 H   0  0  0  0  0  0  0  0  0  0  0  0
   19.0505   20.0548   26.2113 H   0  0  0  0  0  0  0  0  0  0  0  0
   19.0934   17.3725   25.6506 N   0  3  0  0  0  0  0  0  0  0  0  0
   19.5756   16.5161   25.3627 H   0  0  0  0  0  0  0  0  0  0  0  0
   19.4051   17.5920   26.6010 H   0  0  0  0  0  0  0  0  0  0  0  0
   18.0930   17.1616   25.6986 H   0  0  0  0  0  0  0  0  0  0  0  0
  1  2  1  0  0  0  0
  1  3  1  0  0  0  0
  1  4  1  0  0  0  0
  1  5  1  0  0  0  0
  5  6  1  0  0  0  0
  5  7  1  0  0  0  0
  5  8  1  0  0  0  0
  8  9  1  0  0  0  0
  8 10  1  0  0  0  0
  8 11  1  0  0  0  0
 11 12  1  0  0  0  0
 11 13  1  0  0  0  0
 11 14  1  0  0  0  0
 14 15  1  0  0  0  0
 14 16  1  0  0  0  0
 14 17  1  0  0  0  0
 17 18  1  0  0  0  0
 17 19  1  0  0  0  0
 19 20  1  0  0  0  0
 19 21  1  0  0  0  0
 19 22  1  0  0  0  0
 17 23  1  0  0  0  0
 23 24  1  0  0  0  0
 23 25  1  0  0  0  0
 23 26  1  0  0  0  0
M  END
> <VConfSearch Rank>
71

> <Conf_Id>
100

> <Delta U+W>
3.818

> <U+W>
-26.481

> <U>
27.496

> <W>
-53.977

> <W(PB)>
-56.267

> <W(SA)>
2.290

> <Valence>
6.472

> <Coulomb>
19.839

> <VdW>
1.185

> <VdW6>
-8.405

> <VdW12>
9.590

> <Bond>
0.248

> <Angle>
1.619

> <Pdih>
4.604

> <Idih>
0.000

> <Tether>
0.000

$$$$
VeraChem MOL file


 26 25  0  0  0  0  0  0  0  0999 V2000     
   20.5216   20.3687   26.3479 C   0  0  0  0  0  0  0  0  0  0  0  0
   21.3413   20.4189   27.0764 H   0  0  0  0  0  0  0  0  0  0  0  0
   20.4277   21.3563   25.8777 H   0  0  0  0  0  0  0  0  0  0  0  0
   19.5942   20.1621   26.8979 H   0  0  0  0  0  0  0  0  0  0  0  0
   20.7963   19.2758   25.2932 C   0  0  0  0  0  0  0  0  0  0  0  0
   20.9199   18.3065   25.7964 H   0  0  0  0  0  0  0  0  0  0  0  0
   21.7458   19.4918   24.7836 H   0  0  0  0  0  0  0  0  0  0  0  0
   19.6564   19.1835   24.2547 C   0  0  0  0  0  0  0  0  0  0  0  0
   18.7110   18.9682   24.7716 H   0  0  0  0  0  0  0  0  0  0  0  0
   19.5325   20.1588   23.7696 H   0  0  0  0  0  0  0  0  0  0  0  0
   19.9283   18.0825   23.2002 C   0  0  0  0  0  0  0  0  0  0  0  0
   20.0215   17.1231   23.7278 H   0  0  0  0  0  0  0  0  0  0  0  0
   20.8976   18.2535   22.7145 H   0  0  0  0  0  0  0  0  0  0  0  0
   18.7999   17.9467   22.1397 C   0  0  0  0  0  0  0  0  0  0  0  0
   18.6945   16.8842   21.8835 H   0  0  0  0  0  0  0  0  0  0  0  0
   17.8361   18.2337   22.5805 H   0  0  0  0  0  0  0  0  0  0  0  0
   19.0115   18.7234   20.8163 C   0  0  1  0  0  0  0  0  0  0  0  0
   18.1343   18.5342   20.1898 H   0  0  0  0  0  0  0  0  0  0  0  0
   19.1110   20.2435   21.0229 C   0  0  0  0  0  0  0  0  0  0  0  0
   20.0381   20.5189   21.5392 H   0  0  0  0  0  0  0  0  0  0  0  0
   18.2608   20.6146   21.6083 H   0  0  0  0  0  0  0  0  0  0  0  0
   19.1009   20.7624   20.0566 H   0  0  0  0  0  0  0  0  0  0  0  0
   20.1920   18.2112   20.0371 N   0  3  0  0  0  0  0  0  0  0  0  0
   20.1091   17.2088   19.8451 H   0  0  0  0  0  0  0  0  0  0  0  0
   20.2802   18.6883   19.1354 H   0  0  0  0  0  0  0  0  0  0  0  0
   21.0665   18.3555   20.5473 H   0  0  0  0  0  0  0  0  0  0  0  0
  1  2  1  0  0  0  0
  1  3  1  0  0  0  0
  1  4  1  0  0  0  0
  1  5  1  0  0  0  0
  5  6  1  0  0  0  0
  5  7  1  0  0  0  0
  5  8  1  0  0  0  0
  8  9  1  0  0  0  0
  8 10  1  0  0  0  0
  8 11  1  0  0  0  0
 11 12  1  0  0  0  0
 11 13  1  0  0  0  0
 11 14  1  0  0  0  0
 14 15  1  0  0  0  0
 14 16  1  0  0  0  0
 14 17  1  0  0  0  0
 17 18  1  0  0  0  0
 17 19  1  0  0  0  0
 19 20  1  0  0  0  0
 19 21  1  0  0  0  0
 19 22  1  0  0  0  0
 17 23  1  0  0  0  0
 23 24  1  0  0  0  0
 23 25  1  0  0  0  0
 23 26  1  0  0  0  0
M  END
> <VConfSearch Rank>
72

> <Conf_Id>
142

> <Delta U+W>
2.978

> <U+W>
-27.320

> <U>
26.848

> <W>
-54.168

> <W(PB)>
-56.427

> <W(SA)>
2.259

> <Valence>
5.823

> <Coulomb>
20.057

> <VdW>
0.968

> <VdW6>
-8.367

> <VdW12>
9.335

> <Bond>
0.267

> <Angle>
1.799

> <Pdih>
3.758

> <Idih>
0.000

> <Tether>
0.000

$$$$
VeraChem MOL file


 26 25  0  0  0  0  0  0  0  0999 V2000     
   20.3608   22.4500   23.8084 C   0  0  0  0  0  0  0  0  0  0  0  0
   19.9113   22.8505   22.8905 H   0  0  0  0  0  0  0  0  0  0  0  0
   20.3514   23.2482   24.5618 H   0  0  0  0  0  0  0  0  0  0  0  0
   21.4101   22.2077   23.6005 H   0  0  0  0  0  0  0  0  0  0  0  0
   19.5796   21.2174   24.3182 C   0  0  0  0  0  0  0  0  0  0  0  0
   18.5788   21.5434   24.6344 H   0  0  0  0  0  0  0  0  0  0  0  0
   20.0684   20.8134   25.2158 H   0  0  0  0  0  0  0  0  0  0  0  0
   19.4232   20.1007   23.2576 C   0  0  0  0  0  0  0  0  0  0  0  0
   18.7300   19.3551   23.6639 H   0  0  0  0  0  0  0  0  0  0  0  0
   18.9539   20.5160   22.3552 H   0  0  0  0  0  0  0  0  0  0  0  0
   20.7603   19.4102   22.8878 C   0  0  0  0  0  0  0  0  0  0  0  0
   21.1932   18.9415   23.7815 H   0  0  0  0  0  0  0  0  0  0  0  0
   21.4839   20.1727   22.5734 H   0  0  0  0  0  0  0  0  0  0  0  0
   20.6581   18.3704   21.7360 C   0  0  0  0  0  0  0  0  0  0  0  0
   20.3390   18.8784   20.8165 H   0  0  0  0  0  0  0  0  0  0  0  0
   21.6723   18.0048   21.5281 H   0  0  0  0  0  0  0  0  0  0  0  0
   19.7558   17.1307   21.9650 C   0  0  1  0  0  0  0  0  0  0  0  0
   19.9935   16.4180   21.1692 H   0  0  0  0  0  0  0  0  0  0  0  0
   20.0434   16.4319   23.3054 C   0  0  0  0  0  0  0  0  0  0  0  0
   19.7423   17.0517   24.1583 H   0  0  0  0  0  0  0  0  0  0  0  0
   21.1123   16.2059   23.4040 H   0  0  0  0  0  0  0  0  0  0  0  0
   19.4954   15.4838   23.3696 H   0  0  0  0  0  0  0  0  0  0  0  0
   18.2899   17.4265   21.8032 N   0  3  0  0  0  0  0  0  0  0  0  0
   18.0880   17.8253   20.8819 H   0  0  0  0  0  0  0  0  0  0  0  0
   17.7252   16.5776   21.8979 H   0  0  0  0  0  0  0  0  0  0  0  0
   17.9640   18.0932   22.5055 H   0  0  0  0  0  0  0  0  0  0  0  0
  1  2  1  0  0  0  0
  1  3  1  0  0  0  0
  1  4  1  0  0  0  0
  1  5  1  0  0  0  0
  5  6  1  0  0  0  0
  5  7  1  0  0  0  0
  5  8  1  0  0  0  0
  8  9  1  0  0  0  0
  8 10  1  0  0  0  0
  8 11  1  0  0  0  0
 11 12  1  0  0  0  0
 11 13  1  0  0  0  0
 11 14  1  0  0  0  0
 14 15  1  0  0  0  0
 14 16  1  0  0  0  0
 14 17  1  0  0  0  0
 17 18  1  0  0  0  0
 17 19  1  0  0  0  0
 19 20  1  0  0  0  0
 19 21  1  0  0  0  0
 19 22  1  0  0  0  0
 17 23  1  0  0  0  0
 23 24  1  0  0  0  0
 23 25  1  0  0  0  0
 23 26  1  0  0  0  0
M  END
> <VConfSearch Rank>
73

> <Conf_Id>
119

> <Delta U+W>
3.538

> <U+W>
-26.761

> <U>
27.482

> <W>
-54.243

> <W(PB)>
-56.494

> <W(SA)>
2.251

> <Valence>
5.284

> <Coulomb>
21.247

> <VdW>
0.951

> <VdW6>
-9.416

> <VdW12>
10.367

> <Bond>
0.323

> <Angle>
2.522

> <Pdih>
2.439

> <Idih>
0.000

> <Tether>
0.000

$$$$
VeraChem MOL file


 26 25  0  0  0  0  0  0  0  0999 V2000     
   23.3636   19.2376   23.0003 C   0  0  0  0  0  0  0  0  0  0  0  0
   23.6147   19.5404   21.9755 H   0  0  0  0  0  0  0  0  0  0  0  0
   23.0313   20.1267   23.5505 H   0  0  0  0  0  0  0  0  0  0  0  0
   24.2836   18.8785   23.4793 H   0  0  0  0  0  0  0  0  0  0  0  0
   22.2845   18.1311   23.0044 C   0  0  0  0  0  0  0  0  0  0  0  0
   22.0287   17.8684   24.0404 H   0  0  0  0  0  0  0  0  0  0  0  0
   22.7075   17.2228   22.5528 H   0  0  0  0  0  0  0  0  0  0  0  0
   21.0010   18.5185   22.2309 C   0  0  0  0  0  0  0  0  0  0  0  0
   21.2604   18.7537   21.1895 H   0  0  0  0  0  0  0  0  0  0  0  0
   20.3472   17.6394   22.1892 H   0  0  0  0  0  0  0  0  0  0  0  0
   20.2419   19.7158   22.8588 C   0  0  0  0  0  0  0  0  0  0  0  0
   20.8762   20.6084   22.7793 H   0  0  0  0  0  0  0  0  0  0  0  0
   20.0905   19.5472   23.9326 H   0  0  0  0  0  0  0  0  0  0  0  0
   18.8903   20.0258   22.1562 C   0  0  0  0  0  0  0  0  0  0  0  0
   18.7523   21.1149   22.1392 H   0  0  0  0  0  0  0  0  0  0  0  0
   18.9398   19.7250   21.1014 H   0  0  0  0  0  0  0  0  0  0  0  0
   17.6283   19.4086   22.8088 C   0  0  1  0  0  0  0  0  0  0  0  0
   16.7713   19.7083   22.1976 H   0  0  0  0  0  0  0  0  0  0  0  0
   17.6599   17.8719   22.8370 C   0  0  0  0  0  0  0  0  0  0  0  0
   18.4307   17.4981   23.5215 H   0  0  0  0  0  0  0  0  0  0  0  0
   17.8551   17.4674   21.8362 H   0  0  0  0  0  0  0  0  0  0  0  0
   16.6941   17.4750   23.1729 H   0  0  0  0  0  0  0  0  0  0  0  0
   17.3681   19.9636   24.1827 N   0  3  0  0  0  0  0  0  0  0  0  0
   17.2900   20.9844   24.1669 H   0  0  0  0  0  0  0  0  0  0  0  0
   16.4964   19.5969   24.5752 H   0  0  0  0  0  0  0  0  0  0  0  0
   18.1216   19.7226   24.8309 H   0  0  0  0  0  0  0  0  0  0  0  0
  1  2  1  0  0  0  0
  1  3  1  0  0  0  0
  1  4  1  0  0  0  0
  1  5  1  0  0  0  0
  5  6  1  0  0  0  0
  5  7  1  0  0  0  0
  5  8  1  0  0  0  0
  8  9  1  0  0  0  0
  8 10  1  0  0  0  0
  8 11  1  0  0  0  0
 11 12  1  0  0  0  0
 11 13  1  0  0  0  0
 11 14  1  0  0  0  0
 14 15  1  0  0  0  0
 14 16  1  0  0  0  0
 14 17  1  0  0  0  0
 17 18  1  0  0  0  0
 17 19  1  0  0  0  0
 19 20  1  0  0  0  0
 19 21  1  0  0  0  0
 19 22  1  0  0  0  0
 17 23  1  0  0  0  0
 23 24  1  0  0  0  0
 23 25  1  0  0  0  0
 23 26  1  0  0  0  0
M  END
> <VConfSearch Rank>
74

> <Conf_Id>
127

> <Delta U+W>
3.544

> <U+W>
-26.754

> <U>
27.509

> <W>
-54.263

> <W(PB)>
-56.496

> <W(SA)>
2.232

> <Valence>
6.375

> <Coulomb>
20.014

> <VdW>
1.120

> <VdW6>
-8.976

> <VdW12>
10.096

> <Bond>
0.304

> <Angle>
1.986

> <Pdih>
4.086

> <Idih>
0.000

> <Tether>
0.000

$$$$
VeraChem MOL file


 26 25  0  0  0  0  0  0  0  0999 V2000     
   19.6945   20.4401   20.0359 C   0  0  0  0  0  0  0  0  0  0  0  0
   19.1283   20.2641   19.1121 H   0  0  0  0  0  0  0  0  0  0  0  0
   20.4155   21.2434   19.8361 H   0  0  0  0  0  0  0  0  0  0  0  0
   20.2594   19.5281   20.2578 H   0  0  0  0  0  0  0  0  0  0  0  0
   18.7403   20.8300   21.1889 C   0  0  0  0  0  0  0  0  0  0  0  0
   17.9759   20.0537   21.3318 H   0  0  0  0  0  0  0  0  0  0  0  0
   18.1970   21.7362   20.8862 H   0  0  0  0  0  0  0  0  0  0  0  0
   19.4743   21.1173   22.5241 C   0  0  0  0  0  0  0  0  0  0  0  0
   20.4898   21.4880   22.3279 H   0  0  0  0  0  0  0  0  0  0  0  0
   18.9523   21.9414   23.0299 H   0  0  0  0  0  0  0  0  0  0  0  0
   19.5244   19.9224   23.5112 C   0  0  0  0  0  0  0  0  0  0  0  0
   18.4985   19.6356   23.7777 H   0  0  0  0  0  0  0  0  0  0  0  0
   19.9958   20.2750   24.4372 H   0  0  0  0  0  0  0  0  0  0  0  0
   20.2923   18.6859   22.9725 C   0  0  0  0  0  0  0  0  0  0  0  0
   19.7588   18.2810   22.1042 H   0  0  0  0  0  0  0  0  0  0  0  0
   21.2806   18.9983   22.6102 H   0  0  0  0  0  0  0  0  0  0  0  0
   20.4741   17.5361   23.9917 C   0  0  1  0  0  0  0  0  0  0  0  0
   20.9556   16.7079   23.4626 H   0  0  0  0  0  0  0  0  0  0  0  0
   21.3937   17.9342   25.1597 C   0  0  0  0  0  0  0  0  0  0  0  0
   22.3466   18.3311   24.7882 H   0  0  0  0  0  0  0  0  0  0  0  0
   21.6189   17.0609   25.7840 H   0  0  0  0  0  0  0  0  0  0  0  0
   20.9319   18.6930   25.8020 H   0  0  0  0  0  0  0  0  0  0  0  0
   19.1616   17.0019   24.4958 N   0  3  0  0  0  0  0  0  0  0  0  0
   18.5626   16.6898   23.7263 H   0  0  0  0  0  0  0  0  0  0  0  0
   19.2982   16.2025   25.1208 H   0  0  0  0  0  0  0  0  0  0  0  0
   18.6467   17.7151   25.0179 H   0  0  0  0  0  0  0  0  0  0  0  0
  1  2  1  0  0  0  0
  1  3  1  0  0  0  0
  1  4  1  0  0  0  0
  1  5  1  0  0  0  0
  5  6  1  0  0  0  0
  5  7  1  0  0  0  0
  5  8  1  0  0  0  0
  8  9  1  0  0  0  0
  8 10  1  0  0  0  0
  8 11  1  0  0  0  0
 11 12  1  0  0  0  0
 11 13  1  0  0  0  0
 11 14  1  0  0  0  0
 14 15  1  0  0  0  0
 14 16  1  0  0  0  0
 14 17  1  0  0  0  0
 17 18  1  0  0  0  0
 17 19  1  0  0  0  0
 19 20  1  0  0  0  0
 19 21  1  0  0  0  0
 19 22  1  0  0  0  0
 17 23  1  0  0  0  0
 23 24  1  0  0  0  0
 23 25  1  0  0  0  0
 23 26  1  0  0  0  0
M  END
> <VConfSearch Rank>
75

> <Conf_Id>
131

> <Delta U+W>
3.589

> <U+W>
-26.710

> <U>
27.573

> <W>
-54.283

> <W(PB)>
-56.537

> <W(SA)>
2.254

> <Valence>
6.363

> <Coulomb>
20.026

> <VdW>
1.184

> <VdW6>
-8.939

> <VdW12>
10.123

> <Bond>
0.298

> <Angle>
2.018

> <Pdih>
4.047

> <Idih>
0.000

> <Tether>
0.000

$$$$
VeraChem MOL file


 26 25  0  0  0  0  0  0  0  0999 V2000     
   18.1602   17.5685   24.7456 C   0  0  0  0  0  0  0  0  0  0  0  0
   17.3895   18.3266   24.5553 H   0  0  0  0  0  0  0  0  0  0  0  0
   18.5697   17.2352   23.7842 H   0  0  0  0  0  0  0  0  0  0  0  0
   17.6719   16.7025   25.2108 H   0  0  0  0  0  0  0  0  0  0  0  0
   19.2702   18.1204   25.6664 C   0  0  0  0  0  0  0  0  0  0  0  0
   20.0601   17.3645   25.7775 H   0  0  0  0  0  0  0  0  0  0  0  0
   18.8513   18.2720   26.6710 H   0  0  0  0  0  0  0  0  0  0  0  0
   19.8931   19.4567   25.1877 C   0  0  0  0  0  0  0  0  0  0  0  0
   19.1304   20.2474   25.1816 H   0  0  0  0  0  0  0  0  0  0  0  0
   20.6314   19.7647   25.9411 H   0  0  0  0  0  0  0  0  0  0  0  0
   20.6082   19.3843   23.8129 C   0  0  0  0  0  0  0  0  0  0  0  0
   21.0102   18.3742   23.6625 H   0  0  0  0  0  0  0  0  0  0  0  0
   21.4762   20.0577   23.8376 H   0  0  0  0  0  0  0  0  0  0  0  0
   19.7041   19.8087   22.6253 C   0  0  0  0  0  0  0  0  0  0  0  0
   18.8324   19.1496   22.5468 H   0  0  0  0  0  0  0  0  0  0  0  0
   19.3114   20.8129   22.8320 H   0  0  0  0  0  0  0  0  0  0  0  0
   20.4421   19.8452   21.2677 C   0  0  1  0  0  0  0  0  0  0  0  0
   21.3376   20.4642   21.3798 H   0  0  0  0  0  0  0  0  0  0  0  0
   20.8731   18.4414   20.8056 C   0  0  0  0  0  0  0  0  0  0  0  0
   20.0126   17.7641   20.7383 H   0  0  0  0  0  0  0  0  0  0  0  0
   21.6040   18.0010   21.4932 H   0  0  0  0  0  0  0  0  0  0  0  0
   21.3464   18.4887   19.8171 H   0  0  0  0  0  0  0  0  0  0  0  0
   19.6009   20.5045   20.2100 N   0  3  0  0  0  0  0  0  0  0  0  0
   18.7368   19.9833   20.0397 H   0  0  0  0  0  0  0  0  0  0  0  0
   19.3381   21.4576   20.4767 H   0  0  0  0  0  0  0  0  0  0  0  0
   20.1012   20.5656   19.3187 H   0  0  0  0  0  0  0  0  0  0  0  0
  1  2  1  0  0  0  0
  1  3  1  0  0  0  0
  1  4  1  0  0  0  0
  1  5  1  0  0  0  0
  5  6  1  0  0  0  0
  5  7  1  0  0  0  0
  5  8  1  0  0  0  0
  8  9  1  0  0  0  0
  8 10  1  0  0  0  0
  8 11  1  0  0  0  0
 11 12  1  0  0  0  0
 11 13  1  0  0  0  0
 11 14  1  0  0  0  0
 14 15  1  0  0  0  0
 14 16  1  0  0  0  0
 14 17  1  0  0  0  0
 17 18  1  0  0  0  0
 17 19  1  0  0  0  0
 19 20  1  0  0  0  0
 19 21  1  0  0  0  0
 19 22  1  0  0  0  0
 17 23  1  0  0  0  0
 23 24  1  0  0  0  0
 23 25  1  0  0  0  0
 23 26  1  0  0  0  0
M  END
> <VConfSearch Rank>
76

> <Conf_Id>
80

> <Delta U+W>
3.351

> <U+W>
-26.948

> <U>
27.261

> <W>
-54.209

> <W(PB)>
-56.471

> <W(SA)>
2.263

> <Valence>
6.230

> <Coulomb>
19.945

> <VdW>
1.087

> <VdW6>
-8.618

> <VdW12>
9.704

> <Bond>
0.277

> <Angle>
1.928

> <Pdih>
4.025

> <Idih>
0.000

> <Tether>
0.000

$$$$
VeraChem MOL file


 26 25  0  0  0  0  0  0  0  0999 V2000     
   19.2689   20.2090   19.9197 C   0  0  0  0  0  0  0  0  0  0  0  0
   18.7231   21.0574   19.4869 H   0  0  0  0  0  0  0  0  0  0  0  0
   19.9196   19.7944   19.1390 H   0  0  0  0  0  0  0  0  0  0  0  0
   18.5291   19.4465   20.1936 H   0  0  0  0  0  0  0  0  0  0  0  0
   20.0921   20.6640   21.1458 C   0  0  0  0  0  0  0  0  0  0  0  0
   19.4178   21.0490   21.9216 H   0  0  0  0  0  0  0  0  0  0  0  0
   20.7211   21.5155   20.8510 H   0  0  0  0  0  0  0  0  0  0  0  0
   21.0093   19.5558   21.7256 C   0  0  0  0  0  0  0  0  0  0  0  0
   21.7710   19.3094   20.9732 H   0  0  0  0  0  0  0  0  0  0  0  0
   21.5631   19.9710   22.5753 H   0  0  0  0  0  0  0  0  0  0  0  0
   20.2957   18.2382   22.1413 C   0  0  0  0  0  0  0  0  0  0  0  0
   21.0474   17.5037   22.4614 H   0  0  0  0  0  0  0  0  0  0  0  0
   19.8334   17.7987   21.2477 H   0  0  0  0  0  0  0  0  0  0  0  0
   19.2086   18.3747   23.2443 C   0  0  0  0  0  0  0  0  0  0  0  0
   18.7006   19.3434   23.1802 H   0  0  0  0  0  0  0  0  0  0  0  0
   18.4341   17.6253   23.0347 H   0  0  0  0  0  0  0  0  0  0  0  0
   19.7022   18.1290   24.6906 C   0  0  1  0  0  0  0  0  0  0  0  0
   20.1436   17.1286   24.7350 H   0  0  0  0  0  0  0  0  0  0  0  0
   20.7666   19.1422   25.1427 C   0  0  0  0  0  0  0  0  0  0  0  0
   21.7038   18.9953   24.5946 H   0  0  0  0  0  0  0  0  0  0  0  0
   20.9962   19.0143   26.2077 H   0  0  0  0  0  0  0  0  0  0  0  0
   20.4264   20.1738   24.9884 H   0  0  0  0  0  0  0  0  0  0  0  0
   18.5496   18.1230   25.6564 N   0  3  0  0  0  0  0  0  0  0  0  0
   17.8484   17.4210   25.4031 H   0  0  0  0  0  0  0  0  0  0  0  0
   18.8608   17.9117   26.6088 H   0  0  0  0  0  0  0  0  0  0  0  0
   18.0796   19.0317   25.6836 H   0  0  0  0  0  0  0  0  0  0  0  0
  1  2  1  0  0  0  0
  1  3  1  0  0  0  0
  1  4  1  0  0  0  0
  1  5  1  0  0  0  0
  5  6  1  0  0  0  0
  5  7  1  0  0  0  0
  5  8  1  0  0  0  0
  8  9  1  0  0  0  0
  8 10  1  0  0  0  0
  8 11  1  0  0  0  0
 11 12  1  0  0  0  0
 11 13  1  0  0  0  0
 11 14  1  0  0  0  0
 14 15  1  0  0  0  0
 14 16  1  0  0  0  0
 14 17  1  0  0  0  0
 17 18  1  0  0  0  0
 17 19  1  0  0  0  0
 19 20  1  0  0  0  0
 19 21  1  0  0  0  0
 19 22  1  0  0  0  0
 17 23  1  0  0  0  0
 23 24  1  0  0  0  0
 23 25  1  0  0  0  0
 23 26  1  0  0  0  0
M  END
> <VConfSearch Rank>
77

> <Conf_Id>
136

> <Delta U+W>
4.272

> <U+W>
-26.026

> <U>
28.262

> <W>
-54.288

> <W(PB)>
-56.488

> <W(SA)>
2.200

> <Valence>
7.096

> <Coulomb>
19.990

> <VdW>
1.175

> <VdW6>
-9.404

> <VdW12>
10.580

> <Bond>
0.360

> <Angle>
2.785

> <Pdih>
3.951

> <Idih>
0.000

> <Tether>
0.000

$$$$
VeraChem MOL file


 26 25  0  0  0  0  0  0  0  0999 V2000     
   22.5908   18.4653   23.6927 C   0  0  0  0  0  0  0  0  0  0  0  0
   22.0478   19.3098   24.1346 H   0  0  0  0  0  0  0  0  0  0  0  0
   23.5425   18.3700   24.2314 H   0  0  0  0  0  0  0  0  0  0  0  0
   22.8200   18.7046   22.6463 H   0  0  0  0  0  0  0  0  0  0  0  0
   21.7773   17.1570   23.7998 C   0  0  0  0  0  0  0  0  0  0  0  0
   21.5164   16.9754   24.8518 H   0  0  0  0  0  0  0  0  0  0  0  0
   22.4187   16.3177   23.4967 H   0  0  0  0  0  0  0  0  0  0  0  0
   20.4917   17.1310   22.9341 C   0  0  0  0  0  0  0  0  0  0  0  0
   20.7512   17.2100   21.8694 H   0  0  0  0  0  0  0  0  0  0  0  0
   20.0332   16.1395   23.0538 H   0  0  0  0  0  0  0  0  0  0  0  0
   19.4347   18.2012   23.3122 C   0  0  0  0  0  0  0  0  0  0  0  0
   19.5222   18.4554   24.3777 H   0  0  0  0  0  0  0  0  0  0  0  0
   18.4386   17.7567   23.1849 H   0  0  0  0  0  0  0  0  0  0  0  0
   19.5207   19.4823   22.4423 C   0  0  0  0  0  0  0  0  0  0  0  0
   20.5403   19.8825   22.4725 H   0  0  0  0  0  0  0  0  0  0  0  0
   19.3213   19.2283   21.3928 H   0  0  0  0  0  0  0  0  0  0  0  0
   18.5440   20.5866   22.9014 C   0  0  1  0  0  0  0  0  0  0  0  0
   18.7448   20.8050   23.9548 H   0  0  0  0  0  0  0  0  0  0  0  0
   18.7715   21.8725   22.0907 C   0  0  0  0  0  0  0  0  0  0  0  0
   18.5816   21.7075   21.0227 H   0  0  0  0  0  0  0  0  0  0  0  0
   19.8037   22.2271   22.2033 H   0  0  0  0  0  0  0  0  0  0  0  0
   18.1056   22.6727   22.4366 H   0  0  0  0  0  0  0  0  0  0  0  0
   17.1049   20.1564   22.8153 N   0  3  0  0  0  0  0  0  0  0  0  0
   16.8397   19.9304   21.8530 H   0  0  0  0  0  0  0  0  0  0  0  0
   16.9278   19.3263   23.3872 H   0  0  0  0  0  0  0  0  0  0  0  0
   16.4737   20.8934   23.1421 H   0  0  0  0  0  0  0  0  0  0  0  0
  1  2  1  0  0  0  0
  1  3  1  0  0  0  0
  1  4  1  0  0  0  0
  1  5  1  0  0  0  0
  5  6  1  0  0  0  0
  5  7  1  0  0  0  0
  5  8  1  0  0  0  0
  8  9  1  0  0  0  0
  8 10  1  0  0  0  0
  8 11  1  0  0  0  0
 11 12  1  0  0  0  0
 11 13  1  0  0  0  0
 11 14  1  0  0  0  0
 14 15  1  0  0  0  0
 14 16  1  0  0  0  0
 14 17  1  0  0  0  0
 17 18  1  0  0  0  0
 17 19  1  0  0  0  0
 19 20  1  0  0  0  0
 19 21  1  0  0  0  0
 19 22  1  0  0  0  0
 17 23  1  0  0  0  0
 23 24  1  0  0  0  0
 23 25  1  0  0  0  0
 23 26  1  0  0  0  0
M  END
> <VConfSearch Rank>
78

> <Conf_Id>
124

> <Delta U+W>
3.001

> <U+W>
-27.298

> <U>
26.787

> <W>
-54.085

> <W(PB)>
-56.347

> <W(SA)>
2.262

> <Valence>
5.742

> <Coulomb>
20.023

> <VdW>
1.022

> <VdW6>
-8.392

> <VdW12>
9.414

> <Bond>
0.261

> <Angle>
1.576

> <Pdih>
3.904

> <Idih>
0.000

> <Tether>
0.000

$$$$
VeraChem MOL file


 26 25  0  0  0  0  0  0  0  0999 V2000     
   17.1762   19.6992   24.6653 C   0  0  0  0  0  0  0  0  0  0  0  0
   16.7661   18.8016   25.1462 H   0  0  0  0  0  0  0  0  0  0  0  0
   16.4931   20.5317   24.8777 H   0  0  0  0  0  0  0  0  0  0  0  0
   17.1703   19.5340   23.5825 H   0  0  0  0  0  0  0  0  0  0  0  0
   18.5931   20.0130   25.2000 C   0  0  0  0  0  0  0  0  0  0  0  0
   18.5132   20.1960   26.2807 H   0  0  0  0  0  0  0  0  0  0  0  0
   18.9681   20.9487   24.7624 H   0  0  0  0  0  0  0  0  0  0  0  0
   19.6085   18.8642   24.9685 C   0  0  0  0  0  0  0  0  0  0  0  0
   20.2915   18.8347   25.8288 H   0  0  0  0  0  0  0  0  0  0  0  0
   19.0922   17.8943   24.9684 H   0  0  0  0  0  0  0  0  0  0  0  0
   20.4755   19.0083   23.6910 C   0  0  0  0  0  0  0  0  0  0  0  0
   21.2046   18.1877   23.6838 H   0  0  0  0  0  0  0  0  0  0  0  0
   21.0580   19.9366   23.7593 H   0  0  0  0  0  0  0  0  0  0  0  0
   19.6645   18.9929   22.3682 C   0  0  0  0  0  0  0  0  0  0  0  0
   18.9743   18.1393   22.3751 H   0  0  0  0  0  0  0  0  0  0  0  0
   19.0418   19.8943   22.3140 H   0  0  0  0  0  0  0  0  0  0  0  0
   20.5210   18.9222   21.0818 C   0  0  1  0  0  0  0  0  0  0  0  0
   19.8313   18.9224   20.2320 H   0  0  0  0  0  0  0  0  0  0  0  0
   21.4426   20.1455   20.9339 C   0  0  0  0  0  0  0  0  0  0  0  0
   22.2219   20.1611   21.7053 H   0  0  0  0  0  0  0  0  0  0  0  0
   20.8682   21.0773   21.0062 H   0  0  0  0  0  0  0  0  0  0  0  0
   21.9392   20.1359   19.9559 H   0  0  0  0  0  0  0  0  0  0  0  0
   21.3038   17.6418   20.9809 N   0  3  0  0  0  0  0  0  0  0  0  0
   21.8137   17.5839   20.0949 H   0  0  0  0  0  0  0  0  0  0  0  0
   21.9903   17.5647   21.7351 H   0  0  0  0  0  0  0  0  0  0  0  0
   20.6922   16.8224   21.0356 H   0  0  0  0  0  0  0  0  0  0  0  0
  1  2  1  0  0  0  0
  1  3  1  0  0  0  0
  1  4  1  0  0  0  0
  1  5  1  0  0  0  0
  5  6  1  0  0  0  0
  5  7  1  0  0  0  0
  5  8  1  0  0  0  0
  8  9  1  0  0  0  0
  8 10  1  0  0  0  0
  8 11  1  0  0  0  0
 11 12  1  0  0  0  0
 11 13  1  0  0  0  0
 11 14  1  0  0  0  0
 14 15  1  0  0  0  0
 14 16  1  0  0  0  0
 14 17  1  0  0  0  0
 17 18  1  0  0  0  0
 17 19  1  0  0  0  0
 19 20  1  0  0  0  0
 19 21  1  0  0  0  0
 19 22  1  0  0  0  0
 17 23  1  0  0  0  0
 23 24  1  0  0  0  0
 23 25  1  0  0  0  0
 23 26  1  0  0  0  0
M  END
> <VConfSearch Rank>
79

> <Conf_Id>
105

> <Delta U+W>
3.442

> <U+W>
-26.857

> <U>
27.313

> <W>
-54.169

> <W(PB)>
-56.414

> <W(SA)>
2.245

> <Valence>
6.229

> <Coulomb>
19.943

> <VdW>
1.140

> <VdW6>
-9.001

> <VdW12>
10.140

> <Bond>
0.294

> <Angle>
1.969

> <Pdih>
3.967

> <Idih>
0.000

> <Tether>
0.000

$$$$
VeraChem MOL file


 26 25  0  0  0  0  0  0  0  0999 V2000     
   20.5356   17.9811   25.7344 C   0  0  0  0  0  0  0  0  0  0  0  0
   20.5729   18.6972   26.5656 H   0  0  0  0  0  0  0  0  0  0  0  0
   20.9356   17.0265   26.0999 H   0  0  0  0  0  0  0  0  0  0  0  0
   21.2073   18.3418   24.9480 H   0  0  0  0  0  0  0  0  0  0  0  0
   19.0860   17.8003   25.2265 C   0  0  0  0  0  0  0  0  0  0  0  0
   18.4843   17.4053   26.0571 H   0  0  0  0  0  0  0  0  0  0  0  0
   19.0501   17.0360   24.4377 H   0  0  0  0  0  0  0  0  0  0  0  0
   18.4361   19.1179   24.7308 C   0  0  0  0  0  0  0  0  0  0  0  0
   17.3669   19.0862   24.9823 H   0  0  0  0  0  0  0  0  0  0  0  0
   18.8441   19.9749   25.2842 H   0  0  0  0  0  0  0  0  0  0  0  0
   18.5476   19.3650   23.2041 C   0  0  0  0  0  0  0  0  0  0  0  0
   17.9897   20.2805   22.9629 H   0  0  0  0  0  0  0  0  0  0  0  0
   18.0431   18.5476   22.6716 H   0  0  0  0  0  0  0  0  0  0  0  0
   20.0001   19.5115   22.6875 C   0  0  0  0  0  0  0  0  0  0  0  0
   20.5347   20.2282   23.3249 H   0  0  0  0  0  0  0  0  0  0  0  0
   20.5247   18.5517   22.7728 H   0  0  0  0  0  0  0  0  0  0  0  0
   20.0694   19.9975   21.2238 C   0  0  1  0  0  0  0  0  0  0  0  0
   19.5276   20.9456   21.1514 H   0  0  0  0  0  0  0  0  0  0  0  0
   21.5294   20.2435   20.8109 C   0  0  0  0  0  0  0  0  0  0  0  0
   22.1182   19.3192   20.8637 H   0  0  0  0  0  0  0  0  0  0  0  0
   22.0001   20.9864   21.4668 H   0  0  0  0  0  0  0  0  0  0  0  0
   21.5834   20.6250   19.7838 H   0  0  0  0  0  0  0  0  0  0  0  0
   19.4033   19.0444   20.2692 N   0  3  0  0  0  0  0  0  0  0  0  0
   18.4180   18.9042   20.5079 H   0  0  0  0  0  0  0  0  0  0  0  0
   19.4385   19.3927   19.3070 H   0  0  0  0  0  0  0  0  0  0  0  0
   19.8570   18.1272   20.2799 H   0  0  0  0  0  0  0  0  0  0  0  0
  1  2  1  0  0  0  0
  1  3  1  0  0  0  0
  1  4  1  0  0  0  0
  1  5  1  0  0  0  0
  5  6  1  0  0  0  0
  5  7  1  0  0  0  0
  5  8  1  0  0  0  0
  8  9  1  0  0  0  0
  8 10  1  0  0  0  0
  8 11  1  0  0  0  0
 11 12  1  0  0  0  0
 11 13  1  0  0  0  0
 11 14  1  0  0  0  0
 14 15  1  0  0  0  0
 14 16  1  0  0  0  0
 14 17  1  0  0  0  0
 17 18  1  0  0  0  0
 17 19  1  0  0  0  0
 19 20  1  0  0  0  0
 19 21  1  0  0  0  0
 19 22  1  0  0  0  0
 17 23  1  0  0  0  0
 23 24  1  0  0  0  0
 23 25  1  0  0  0  0
 23 26  1  0  0  0  0
M  END
> <VConfSearch Rank>
80

> <Conf_Id>
107

> <Delta U+W>
2.995

> <U+W>
-27.304

> <U>
26.796

> <W>
-54.100

> <W(PB)>
-56.404

> <W(SA)>
2.304

> <Valence>
5.706

> <Coulomb>
20.107

> <VdW>
0.982

> <VdW6>
-8.396

> <VdW12>
9.378

> <Bond>
0.254

> <Angle>
1.644

> <Pdih>
3.808

> <Idih>
0.000

> <Tether>
0.000

$$$$
VeraChem MOL file


 26 25  0  0  0  0  0  0  0  0999 V2000     
   16.2518   17.0024   22.4413 C   0  0  0  0  0  0  0  0  0  0  0  0
   15.7495   17.7222   21.7819 H   0  0  0  0  0  0  0  0  0  0  0  0
   15.9404   15.9941   22.1390 H   0  0  0  0  0  0  0  0  0  0  0  0
   15.8964   17.1718   23.4661 H   0  0  0  0  0  0  0  0  0  0  0  0
   17.7860   17.1479   22.3550 C   0  0  0  0  0  0  0  0  0  0  0  0
   18.1145   16.9397   21.3270 H   0  0  0  0  0  0  0  0  0  0  0  0
   18.2603   16.3935   22.9983 H   0  0  0  0  0  0  0  0  0  0  0  0
   18.2513   18.5596   22.7756 C   0  0  0  0  0  0  0  0  0  0  0  0
   17.7716   19.3097   22.1317 H   0  0  0  0  0  0  0  0  0  0  0  0
   17.9191   18.7636   23.8030 H   0  0  0  0  0  0  0  0  0  0  0  0
   19.7871   18.7094   22.6897 C   0  0  0  0  0  0  0  0  0  0  0  0
   20.1176   18.5085   21.6610 H   0  0  0  0  0  0  0  0  0  0  0  0
   20.2585   17.9524   23.3305 H   0  0  0  0  0  0  0  0  0  0  0  0
   20.2504   20.1246   23.1132 C   0  0  0  0  0  0  0  0  0  0  0  0
   19.7267   20.8683   22.4977 H   0  0  0  0  0  0  0  0  0  0  0  0
   19.9562   20.3160   24.1538 H   0  0  0  0  0  0  0  0  0  0  0  0
   21.7725   20.3327   22.9570 C   0  0  1  0  0  0  0  0  0  0  0  0
   22.0437   20.1134   21.9196 H   0  0  0  0  0  0  0  0  0  0  0  0
   22.1453   21.7940   23.2543 C   0  0  0  0  0  0  0  0  0  0  0  0
   21.8944   22.0656   24.2873 H   0  0  0  0  0  0  0  0  0  0  0  0
   21.6114   22.4772   22.5821 H   0  0  0  0  0  0  0  0  0  0  0  0
   23.2203   21.9577   23.1093 H   0  0  0  0  0  0  0  0  0  0  0  0
   22.5738   19.3977   23.8212 N   0  3  0  0  0  0  0  0  0  0  0  0
   22.3714   19.5411   24.8141 H   0  0  0  0  0  0  0  0  0  0  0  0
   22.3698   18.4189   23.6028 H   0  0  0  0  0  0  0  0  0  0  0  0
   23.5798   19.5369   23.6904 H   0  0  0  0  0  0  0  0  0  0  0  0
  1  2  1  0  0  0  0
  1  3  1  0  0  0  0
  1  4  1  0  0  0  0
  1  5  1  0  0  0  0
  5  6  1  0  0  0  0
  5  7  1  0  0  0  0
  5  8  1  0  0  0  0
  8  9  1  0  0  0  0
  8 10  1  0  0  0  0
  8 11  1  0  0  0  0
 11 12  1  0  0  0  0
 11 13  1  0  0  0  0
 11 14  1  0  0  0  0
 14 15  1  0  0  0  0
 14 16  1  0  0  0  0
 14 17  1  0  0  0  0
 17 18  1  0  0  0  0
 17 19  1  0  0  0  0
 19 20  1  0  0  0  0
 19 21  1  0  0  0  0
 19 22  1  0  0  0  0
 17 23  1  0  0  0  0
 23 24  1  0  0  0  0
 23 25  1  0  0  0  0
 23 26  1  0  0  0  0
M  END
> <VConfSearch Rank>
81

> <Conf_Id>
122

> <Delta U+W>
0.000

> <U+W>
-30.299

> <U>
23.517

> <W>
-53.816

> <W(PB)>
-56.162

> <W(SA)>
2.346

> <Valence>
2.737

> <Coulomb>
19.862

> <VdW>
0.919

> <VdW6>
-6.793

> <VdW12>
7.712

> <Bond>
0.171

> <Angle>
0.873

> <Pdih>
1.693

> <Idih>
0.000

> <Tether>
0.000

$$$$
VeraChem MOL file


 26 25  0  0  0  0  0  0  0  0999 V2000     
   23.1682   18.9951   25.4654 C   0  0  0  0  0  0  0  0  0  0  0  0
   23.6966   19.6655   26.1556 H   0  0  0  0  0  0  0  0  0  0  0  0
   22.8870   18.0917   26.0221 H   0  0  0  0  0  0  0  0  0  0  0  0
   23.8712   18.7041   24.6739 H   0  0  0  0  0  0  0  0  0  0  0  0
   21.9245   19.6920   24.8740 C   0  0  0  0  0  0  0  0  0  0  0  0
   22.2338   20.6089   24.3530 H   0  0  0  0  0  0  0  0  0  0  0  0
   21.2571   20.0012   25.6907 H   0  0  0  0  0  0  0  0  0  0  0  0
   21.1615   18.7692   23.8980 C   0  0  0  0  0  0  0  0  0  0  0  0
   21.8331   18.4613   23.0845 H   0  0  0  0  0  0  0  0  0  0  0  0
   20.8578   17.8530   24.4232 H   0  0  0  0  0  0  0  0  0  0  0  0
   19.9150   19.4635   23.3039 C   0  0  0  0  0  0  0  0  0  0  0  0
   20.2290   20.3811   22.7894 H   0  0  0  0  0  0  0  0  0  0  0  0
   19.2417   19.7668   24.1177 H   0  0  0  0  0  0  0  0  0  0  0  0
   19.1549   18.5375   22.3225 C   0  0  0  0  0  0  0  0  0  0  0  0
   19.8041   18.2848   21.4736 H   0  0  0  0  0  0  0  0  0  0  0  0
   18.9320   17.5926   22.8356 H   0  0  0  0  0  0  0  0  0  0  0  0
   17.8277   19.1357   21.8023 C   0  0  1  0  0  0  0  0  0  0  0  0
   17.2168   19.4176   22.6655 H   0  0  0  0  0  0  0  0  0  0  0  0
   18.0552   20.3882   20.9368 C   0  0  0  0  0  0  0  0  0  0  0  0
   18.7174   20.1703   20.0896 H   0  0  0  0  0  0  0  0  0  0  0  0
   18.5003   21.2018   21.5210 H   0  0  0  0  0  0  0  0  0  0  0  0
   17.1034   20.7598   20.5375 H   0  0  0  0  0  0  0  0  0  0  0  0
   17.0345   18.1124   21.0379 N   0  3  0  0  0  0  0  0  0  0  0  0
   17.5375   17.7941   20.2053 H   0  0  0  0  0  0  0  0  0  0  0  0
   16.8328   17.2871   21.6095 H   0  0  0  0  0  0  0  0  0  0  0  0
   16.1365   18.4923   20.7252 H   0  0  0  0  0  0  0  0  0  0  0  0
  1  2  1  0  0  0  0
  1  3  1  0  0  0  0
  1  4  1  0  0  0  0
  1  5  1  0  0  0  0
  5  6  1  0  0  0  0
  5  7  1  0  0  0  0
  5  8  1  0  0  0  0
  8  9  1  0  0  0  0
  8 10  1  0  0  0  0
  8 11  1  0  0  0  0
 11 12  1  0  0  0  0
 11 13  1  0  0  0  0
 11 14  1  0  0  0  0
 14 15  1  0  0  0  0
 14 16  1  0  0  0  0
 14 17  1  0  0  0  0
 17 18  1  0  0  0  0
 17 19  1  0  0  0  0
 19 20  1  0  0  0  0
 19 21  1  0  0  0  0
 19 22  1  0  0  0  0
 17 23  1  0  0  0  0
 23 24  1  0  0  0  0
 23 25  1  0  0  0  0
 23 26  1  0  0  0  0
M  END
> <VConfSearch Rank>
82

> <Conf_Id>
54

> <Delta U+W>
0.453

> <U+W>
-29.845

> <U>
23.817

> <W>
-53.663

> <W(PB)>
-56.021

> <W(SA)>
2.358

> <Valence>
3.277

> <Coulomb>
19.492

> <VdW>
1.049

> <VdW6>
-6.949

> <VdW12>
7.998

> <Bond>
0.183

> <Angle>
1.152

> <Pdih>
1.942

> <Idih>
0.000

> <Tether>
0.000

$$$$
VeraChem MOL file


 26 25  0  0  0  0  0  0  0  0999 V2000     
   21.6351   21.0432   20.4301 C   0  0  0  0  0  0  0  0  0  0  0  0
   20.7924   20.9401   19.7342 H   0  0  0  0  0  0  0  0  0  0  0  0
   21.4124   21.8656   21.1206 H   0  0  0  0  0  0  0  0  0  0  0  0
   22.5177   21.3349   19.8462 H   0  0  0  0  0  0  0  0  0  0  0  0
   21.8997   19.7193   21.1831 C   0  0  0  0  0  0  0  0  0  0  0  0
   22.7237   19.8564   21.8973 H   0  0  0  0  0  0  0  0  0  0  0  0
   22.2437   18.9677   20.4587 H   0  0  0  0  0  0  0  0  0  0  0  0
   20.6547   19.1643   21.9171 C   0  0  0  0  0  0  0  0  0  0  0  0
   19.8264   19.0584   21.2030 H   0  0  0  0  0  0  0  0  0  0  0  0
   20.9044   18.1572   22.2715 H   0  0  0  0  0  0  0  0  0  0  0  0
   20.2100   20.0342   23.1199 C   0  0  0  0  0  0  0  0  0  0  0  0
   20.0839   21.0729   22.7898 H   0  0  0  0  0  0  0  0  0  0  0  0
   21.0086   20.0495   23.8743 H   0  0  0  0  0  0  0  0  0  0  0  0
   18.8795   19.5940   23.7863 C   0  0  0  0  0  0  0  0  0  0  0  0
   18.6362   20.3492   24.5456 H   0  0  0  0  0  0  0  0  0  0  0  0
   18.0602   19.6305   23.0563 H   0  0  0  0  0  0  0  0  0  0  0  0
   18.9192   18.2046   24.4663 C   0  0  1  0  0  0  0  0  0  0  0  0
   19.8973   18.0802   24.9413 H   0  0  0  0  0  0  0  0  0  0  0  0
   17.8395   18.1107   25.5573 C   0  0  0  0  0  0  0  0  0  0  0  0
   17.8723   17.1329   26.0537 H   0  0  0  0  0  0  0  0  0  0  0  0
   16.8359   18.2465   25.1350 H   0  0  0  0  0  0  0  0  0  0  0  0
   17.9935   18.8773   26.3270 H   0  0  0  0  0  0  0  0  0  0  0  0
   18.7510   17.0720   23.4902 N   0  3  0  0  0  0  0  0  0  0  0  0
   19.4609   17.1013   22.7551 H   0  0  0  0  0  0  0  0  0  0  0  0
   18.8257   16.1631   23.9558 H   0  0  0  0  0  0  0  0  0  0  0  0
   17.8351   17.1072   23.0348 H   0  0  0  0  0  0  0  0  0  0  0  0
  1  2  1  0  0  0  0
  1  3  1  0  0  0  0
  1  4  1  0  0  0  0
  1  5  1  0  0  0  0
  5  6  1  0  0  0  0
  5  7  1  0  0  0  0
  5  8  1  0  0  0  0
  8  9  1  0  0  0  0
  8 10  1  0  0  0  0
  8 11  1  0  0  0  0
 11 12  1  0  0  0  0
 11 13  1  0  0  0  0
 11 14  1  0  0  0  0
 14 15  1  0  0  0  0
 14 16  1  0  0  0  0
 14 17  1  0  0  0  0
 17 18  1  0  0  0  0
 17 19  1  0  0  0  0
 19 20  1  0  0  0  0
 19 21  1  0  0  0  0
 19 22  1  0  0  0  0
 17 23  1  0  0  0  0
 23 24  1  0  0  0  0
 23 25  1  0  0  0  0
 23 26  1  0  0  0  0
M  END
> <VConfSearch Rank>
83

> <Conf_Id>
110

> <Delta U+W>
3.764

> <U+W>
-26.535

> <U>
27.400

> <W>
-53.935

> <W(PB)>
-56.238

> <W(SA)>
2.303

> <Valence>
5.205

> <Coulomb>
21.096

> <VdW>
1.098

> <VdW6>
-8.389

> <VdW12>
9.488

> <Bond>
0.270

> <Angle>
1.912

> <Pdih>
3.023

> <Idih>
0.000

> <Tether>
0.000

$$$$
VeraChem MOL file


 26 25  0  0  0  0  0  0  0  0999 V2000     
   21.2336   16.1652   21.3352 C   0  0  0  0  0  0  0  0  0  0  0  0
   21.0791   15.2392   20.7665 H   0  0  0  0  0  0  0  0  0  0  0  0
   21.4552   16.9617   20.6140 H   0  0  0  0  0  0  0  0  0  0  0  0
   22.1151   16.0237   21.9740 H   0  0  0  0  0  0  0  0  0  0  0  0
   19.9824   16.4963   22.1799 C   0  0  0  0  0  0  0  0  0  0  0  0
   19.7302   15.6223   22.7967 H   0  0  0  0  0  0  0  0  0  0  0  0
   19.1222   16.6624   21.5163 H   0  0  0  0  0  0  0  0  0  0  0  0
   20.1713   17.7209   23.1073 C   0  0  0  0  0  0  0  0  0  0  0  0
   19.2840   17.8103   23.7454 H   0  0  0  0  0  0  0  0  0  0  0  0
   21.0152   17.5368   23.7864 H   0  0  0  0  0  0  0  0  0  0  0  0
   20.4075   19.0455   22.3367 C   0  0  0  0  0  0  0  0  0  0  0  0
   19.6447   19.1783   21.5570 H   0  0  0  0  0  0  0  0  0  0  0  0
   21.3695   18.9761   21.8119 H   0  0  0  0  0  0  0  0  0  0  0  0
   20.4496   20.2930   23.2588 C   0  0  0  0  0  0  0  0  0  0  0  0
   20.7782   20.0104   24.2678 H   0  0  0  0  0  0  0  0  0  0  0  0
   21.2229   20.9697   22.8717 H   0  0  0  0  0  0  0  0  0  0  0  0
   19.1260   21.0922   23.3308 C   0  0  1  0  0  0  0  0  0  0  0  0
   18.8559   21.3941   22.3141 H   0  0  0  0  0  0  0  0  0  0  0  0
   17.9625   20.2707   23.9114 C   0  0  0  0  0  0  0  0  0  0  0  0
   18.2134   19.8704   24.9015 H   0  0  0  0  0  0  0  0  0  0  0  0
   17.7036   19.4343   23.2518 H   0  0  0  0  0  0  0  0  0  0  0  0
   17.0637   20.8912   24.0128 H   0  0  0  0  0  0  0  0  0  0  0  0
   19.3057   22.3633   24.1138 N   0  3  0  0  0  0  0  0  0  0  0  0
   20.0437   22.9509   23.7156 H   0  0  0  0  0  0  0  0  0  0  0  0
   18.4466   22.9203   24.1251 H   0  0  0  0  0  0  0  0  0  0  0  0
   19.5573   22.1709   25.0870 H   0  0  0  0  0  0  0  0  0  0  0  0
  1  2  1  0  0  0  0
  1  3  1  0  0  0  0
  1  4  1  0  0  0  0
  1  5  1  0  0  0  0
  5  6  1  0  0  0  0
  5  7  1  0  0  0  0
  5  8  1  0  0  0  0
  8  9  1  0  0  0  0
  8 10  1  0  0  0  0
  8 11  1  0  0  0  0
 11 12  1  0  0  0  0
 11 13  1  0  0  0  0
 11 14  1  0  0  0  0
 14 15  1  0  0  0  0
 14 16  1  0  0  0  0
 14 17  1  0  0  0  0
 17 18  1  0  0  0  0
 17 19  1  0  0  0  0
 19 20  1  0  0  0  0
 19 21  1  0  0  0  0
 19 22  1  0  0  0  0
 17 23  1  0  0  0  0
 23 24  1  0  0  0  0
 23 25  1  0  0  0  0
 23 26  1  0  0  0  0
M  END
> <VConfSearch Rank>
84

> <Conf_Id>
34

> <Delta U+W>
3.568

> <U+W>
-26.731

> <U>
27.221

> <W>
-53.952

> <W(PB)>
-56.213

> <W(SA)>
2.261

> <Valence>
6.368

> <Coulomb>
19.698

> <VdW>
1.155

> <VdW6>
-8.532

> <VdW12>
9.687

> <Bond>
0.272

> <Angle>
1.847

> <Pdih>
4.248

> <Idih>
0.000

> <Tether>
0.000

$$$$
VeraChem MOL file


 26 25  0  0  0  0  0  0  0  0999 V2000     
   17.6974   21.9560   24.9159 C   0  0  0  0  0  0  0  0  0  0  0  0
   18.5345   22.5867   25.2426 H   0  0  0  0  0  0  0  0  0  0  0  0
   17.2292   22.4334   24.0452 H   0  0  0  0  0  0  0  0  0  0  0  0
   16.9570   21.9324   25.7260 H   0  0  0  0  0  0  0  0  0  0  0  0
   18.1777   20.5294   24.5749 C   0  0  0  0  0  0  0  0  0  0  0  0
   17.3147   19.9139   24.2847 H   0  0  0  0  0  0  0  0  0  0  0  0
   18.6100   20.0661   25.4729 H   0  0  0  0  0  0  0  0  0  0  0  0
   19.2217   20.5342   23.4362 C   0  0  0  0  0  0  0  0  0  0  0  0
   18.7855   21.0007   22.5421 H   0  0  0  0  0  0  0  0  0  0  0  0
   20.0810   21.1528   23.7302 H   0  0  0  0  0  0  0  0  0  0  0  0
   19.7056   19.1074   23.0919 C   0  0  0  0  0  0  0  0  0  0  0  0
   18.8420   18.4948   22.8010 H   0  0  0  0  0  0  0  0  0  0  0  0
   20.1350   18.6489   23.9923 H   0  0  0  0  0  0  0  0  0  0  0  0
   20.7555   19.1197   21.9503 C   0  0  0  0  0  0  0  0  0  0  0  0
   20.3290   19.6248   21.0737 H   0  0  0  0  0  0  0  0  0  0  0  0
   21.6183   19.7255   22.2574 H   0  0  0  0  0  0  0  0  0  0  0  0
   21.2592   17.7239   21.5125 C   0  0  1  0  0  0  0  0  0  0  0  0
   21.9641   17.8766   20.6893 H   0  0  0  0  0  0  0  0  0  0  0  0
   22.0134   17.0003   22.6417 C   0  0  0  0  0  0  0  0  0  0  0  0
   21.3444   16.7263   23.4661 H   0  0  0  0  0  0  0  0  0  0  0  0
   22.8142   17.6331   23.0439 H   0  0  0  0  0  0  0  0  0  0  0  0
   22.4751   16.0792   22.2653 H   0  0  0  0  0  0  0  0  0  0  0  0
   20.1565   16.8618   20.9620 N   0  3  0  0  0  0  0  0  0  0  0  0
   20.5171   15.9669   20.6190 H   0  0  0  0  0  0  0  0  0  0  0  0
   19.4538   16.6559   21.6761 H   0  0  0  0  0  0  0  0  0  0  0  0
   19.6777   17.3180   20.1803 H   0  0  0  0  0  0  0  0  0  0  0  0
  1  2  1  0  0  0  0
  1  3  1  0  0  0  0
  1  4  1  0  0  0  0
  1  5  1  0  0  0  0
  5  6  1  0  0  0  0
  5  7  1  0  0  0  0
  5  8  1  0  0  0  0
  8  9  1  0  0  0  0
  8 10  1  0  0  0  0
  8 11  1  0  0  0  0
 11 12  1  0  0  0  0
 11 13  1  0  0  0  0
 11 14  1  0  0  0  0
 14 15  1  0  0  0  0
 14 16  1  0  0  0  0
 14 17  1  0  0  0  0
 17 18  1  0  0  0  0
 17 19  1  0  0  0  0
 19 20  1  0  0  0  0
 19 21  1  0  0  0  0
 19 22  1  0  0  0  0
 17 23  1  0  0  0  0
 23 24  1  0  0  0  0
 23 25  1  0  0  0  0
 23 26  1  0  0  0  0
M  END
> <VConfSearch Rank>
85

> <Conf_Id>
132

> <Delta U+W>
0.363

> <U+W>
-29.936

> <U>
24.060

> <W>
-53.996

> <W(PB)>
-56.327

> <W(SA)>
2.332

> <Valence>
3.249

> <Coulomb>
19.781

> <VdW>
1.030

> <VdW6>
-7.421

> <VdW12>
8.451

> <Bond>
0.207

> <Angle>
1.205

> <Pdih>
1.837

> <Idih>
0.000

> <Tether>
0.000

$$$$
VeraChem MOL file


 26 25  0  0  0  0  0  0  0  0999 V2000     
   18.2309   17.3323   19.8392 C   0  0  0  0  0  0  0  0  0  0  0  0
   17.3938   17.7366   19.2554 H   0  0  0  0  0  0  0  0  0  0  0  0
   19.0363   17.0748   19.1389 H   0  0  0  0  0  0  0  0  0  0  0  0
   17.8894   16.4076   20.3225 H   0  0  0  0  0  0  0  0  0  0  0  0
   18.7120   18.3597   20.8857 C   0  0  0  0  0  0  0  0  0  0  0  0
   17.8696   18.6220   21.5391 H   0  0  0  0  0  0  0  0  0  0  0  0
   19.0193   19.2829   20.3748 H   0  0  0  0  0  0  0  0  0  0  0  0
   19.8898   17.8095   21.7245 C   0  0  0  0  0  0  0  0  0  0  0  0
   19.5659   16.9176   22.2785 H   0  0  0  0  0  0  0  0  0  0  0  0
   20.6856   17.4764   21.0440 H   0  0  0  0  0  0  0  0  0  0  0  0
   20.4894   18.8439   22.7090 C   0  0  0  0  0  0  0  0  0  0  0  0
   20.8168   19.7287   22.1472 H   0  0  0  0  0  0  0  0  0  0  0  0
   21.3931   18.4042   23.1500 H   0  0  0  0  0  0  0  0  0  0  0  0
   19.5084   19.2596   23.8395 C   0  0  0  0  0  0  0  0  0  0  0  0
   18.6188   19.7279   23.4012 H   0  0  0  0  0  0  0  0  0  0  0  0
   19.1525   18.3612   24.3608 H   0  0  0  0  0  0  0  0  0  0  0  0
   20.0954   20.2404   24.8823 C   0  0  1  0  0  0  0  0  0  0  0  0
   19.2906   20.4906   25.5805 H   0  0  0  0  0  0  0  0  0  0  0  0
   21.2357   19.6071   25.6989 C   0  0  0  0  0  0  0  0  0  0  0  0
   22.1233   19.4215   25.0828 H   0  0  0  0  0  0  0  0  0  0  0  0
   20.9173   18.6545   26.1401 H   0  0  0  0  0  0  0  0  0  0  0  0
   21.5324   20.2707   26.5204 H   0  0  0  0  0  0  0  0  0  0  0  0
   20.5314   21.5410   24.2656 N   0  3  0  0  0  0  0  0  0  0  0  0
   19.7645   21.9924   23.7591 H   0  0  0  0  0  0  0  0  0  0  0  0
   20.8586   22.2012   24.9766 H   0  0  0  0  0  0  0  0  0  0  0  0
   21.2975   21.3993   23.6028 H   0  0  0  0  0  0  0  0  0  0  0  0
  1  2  1  0  0  0  0
  1  3  1  0  0  0  0
  1  4  1  0  0  0  0
  1  5  1  0  0  0  0
  5  6  1  0  0  0  0
  5  7  1  0  0  0  0
  5  8  1  0  0  0  0
  8  9  1  0  0  0  0
  8 10  1  0  0  0  0
  8 11  1  0  0  0  0
 11 12  1  0  0  0  0
 11 13  1  0  0  0  0
 11 14  1  0  0  0  0
 14 15  1  0  0  0  0
 14 16  1  0  0  0  0
 14 17  1  0  0  0  0
 17 18  1  0  0  0  0
 17 19  1  0  0  0  0
 19 20  1  0  0  0  0
 19 21  1  0  0  0  0
 19 22  1  0  0  0  0
 17 23  1  0  0  0  0
 23 24  1  0  0  0  0
 23 25  1  0  0  0  0
 23 26  1  0  0  0  0
M  END
> <VConfSearch Rank>
86

> <Conf_Id>
46

> <Delta U+W>
1.114

> <U+W>
-29.185

> <U>
24.990

> <W>
-54.175

> <W(PB)>
-56.455

> <W(SA)>
2.279

> <Valence>
3.862

> <Coulomb>
19.956

> <VdW>
1.172

> <VdW6>
-8.054

> <VdW12>
9.226

> <Bond>
0.258

> <Angle>
1.499

> <Pdih>
2.106

> <Idih>
0.000

> <Tether>
0.000

$$$$
VeraChem MOL file


 26 25  0  0  0  0  0  0  0  0999 V2000     
   19.1713   21.2471   20.0411 C   0  0  0  0  0  0  0  0  0  0  0  0
   18.3262   21.5182   20.6858 H   0  0  0  0  0  0  0  0  0  0  0  0
   19.9849   21.9619   20.2204 H   0  0  0  0  0  0  0  0  0  0  0  0
   18.8429   21.3669   19.0005 H   0  0  0  0  0  0  0  0  0  0  0  0
   19.6395   19.7964   20.2962 C   0  0  0  0  0  0  0  0  0  0  0  0
   20.3956   19.5324   19.5436 H   0  0  0  0  0  0  0  0  0  0  0  0
   18.7996   19.1044   20.1433 H   0  0  0  0  0  0  0  0  0  0  0  0
   20.2462   19.5816   21.7040 C   0  0  0  0  0  0  0  0  0  0  0  0
   20.6637   18.5671   21.7427 H   0  0  0  0  0  0  0  0  0  0  0  0
   21.0910   20.2694   21.8471 H   0  0  0  0  0  0  0  0  0  0  0  0
   19.2211   19.7675   22.8516 C   0  0  0  0  0  0  0  0  0  0  0  0
   18.3622   19.1017   22.6951 H   0  0  0  0  0  0  0  0  0  0  0  0
   18.8221   20.7897   22.8237 H   0  0  0  0  0  0  0  0  0  0  0  0
   19.8287   19.5299   24.2582 C   0  0  0  0  0  0  0  0  0  0  0  0
   20.6262   20.2658   24.4269 H   0  0  0  0  0  0  0  0  0  0  0  0
   19.0610   19.7314   25.0171 H   0  0  0  0  0  0  0  0  0  0  0  0
   20.3994   18.1103   24.4758 C   0  0  1  0  0  0  0  0  0  0  0  0
   21.1800   17.9338   23.7300 H   0  0  0  0  0  0  0  0  0  0  0  0
   21.0369   17.9983   25.8698 C   0  0  0  0  0  0  0  0  0  0  0  0
   21.4794   17.0052   26.0157 H   0  0  0  0  0  0  0  0  0  0  0  0
   20.2941   18.1611   26.6607 H   0  0  0  0  0  0  0  0  0  0  0  0
   21.8359   18.7400   25.9935 H   0  0  0  0  0  0  0  0  0  0  0  0
   19.3626   17.0384   24.2795 N   0  3  0  0  0  0  0  0  0  0  0  0
   18.9589   17.0798   23.3398 H   0  0  0  0  0  0  0  0  0  0  0  0
   19.7618   16.1036   24.4020 H   0  0  0  0  0  0  0  0  0  0  0  0
   18.5952   17.1346   24.9497 H   0  0  0  0  0  0  0  0  0  0  0  0
  1  2  1  0  0  0  0
  1  3  1  0  0  0  0
  1  4  1  0  0  0  0
  1  5  1  0  0  0  0
  5  6  1  0  0  0  0
  5  7  1  0  0  0  0
  5  8  1  0  0  0  0
  8  9  1  0  0  0  0
  8 10  1  0  0  0  0
  8 11  1  0  0  0  0
 11 12  1  0  0  0  0
 11 13  1  0  0  0  0
 11 14  1  0  0  0  0
 14 15  1  0  0  0  0
 14 16  1  0  0  0  0
 14 17  1  0  0  0  0
 17 18  1  0  0  0  0
 17 19  1  0  0  0  0
 19 20  1  0  0  0  0
 19 21  1  0  0  0  0
 19 22  1  0  0  0  0
 17 23  1  0  0  0  0
 23 24  1  0  0  0  0
 23 25  1  0  0  0  0
 23 26  1  0  0  0  0
M  END
> <VConfSearch Rank>
87

> <Conf_Id>
113

> <Delta U+W>
1.137

> <U+W>
-29.162

> <U>
24.833

> <W>
-53.995

> <W(PB)>
-56.288

> <W(SA)>
2.294

> <Valence>
3.589

> <Coulomb>
20.270

> <VdW>
0.974

> <VdW6>
-8.255

> <VdW12>
9.229

> <Bond>
0.244

> <Angle>
1.377

> <Pdih>
1.967

> <Idih>
0.000

> <Tether>
0.000

$$$$
VeraChem MOL file


 26 25  0  0  0  0  0  0  0  0999 V2000     
   22.6823   21.6579   22.0075 C   0  0  0  0  0  0  0  0  0  0  0  0
   22.5820   22.4765   21.2830 H   0  0  0  0  0  0  0  0  0  0  0  0
   22.8497   22.1023   22.9973 H   0  0  0  0  0  0  0  0  0  0  0  0
   23.5743   21.0773   21.7380 H   0  0  0  0  0  0  0  0  0  0  0  0
   21.4198   20.7700   22.0048 C   0  0  0  0  0  0  0  0  0  0  0  0
   21.2625   20.3640   20.9958 H   0  0  0  0  0  0  0  0  0  0  0  0
   20.5463   21.3932   22.2376 H   0  0  0  0  0  0  0  0  0  0  0  0
   21.5363   19.6106   23.0225 C   0  0  0  0  0  0  0  0  0  0  0  0
   22.4595   19.0501   22.8200 H   0  0  0  0  0  0  0  0  0  0  0  0
   21.6402   20.0178   24.0377 H   0  0  0  0  0  0  0  0  0  0  0  0
   20.3438   18.6237   22.9776 C   0  0  0  0  0  0  0  0  0  0  0  0
   20.5739   17.7803   23.6416 H   0  0  0  0  0  0  0  0  0  0  0  0
   20.2610   18.2079   21.9647 H   0  0  0  0  0  0  0  0  0  0  0  0
   18.9959   19.2674   23.4036 C   0  0  0  0  0  0  0  0  0  0  0  0
   19.1257   19.7723   24.3698 H   0  0  0  0  0  0  0  0  0  0  0  0
   18.7171   20.0499   22.6870 H   0  0  0  0  0  0  0  0  0  0  0  0
   17.8129   18.2775   23.5232 C   0  0  1  0  0  0  0  0  0  0  0  0
   16.9371   18.8545   23.8361 H   0  0  0  0  0  0  0  0  0  0  0  0
   17.4765   17.6144   22.1761 C   0  0  0  0  0  0  0  0  0  0  0  0
   18.2771   16.9429   21.8438 H   0  0  0  0  0  0  0  0  0  0  0  0
   17.3169   18.3711   21.3981 H   0  0  0  0  0  0  0  0  0  0  0  0
   16.5562   17.0233   22.2588 H   0  0  0  0  0  0  0  0  0  0  0  0
   18.0331   17.2436   24.5932 N   0  3  0  0  0  0  0  0  0  0  0  0
   18.2156   17.6771   25.5027 H   0  0  0  0  0  0  0  0  0  0  0  0
   17.2148   16.6379   24.7022 H   0  0  0  0  0  0  0  0  0  0  0  0
   18.8313   16.6433   24.3722 H   0  0  0  0  0  0  0  0  0  0  0  0
  1  2  1  0  0  0  0
  1  3  1  0  0  0  0
  1  4  1  0  0  0  0
  1  5  1  0  0  0  0
  5  6  1  0  0  0  0
  5  7  1  0  0  0  0
  5  8  1  0  0  0  0
  8  9  1  0  0  0  0
  8 10  1  0  0  0  0
  8 11  1  0  0  0  0
 11 12  1  0  0  0  0
 11 13  1  0  0  0  0
 11 14  1  0  0  0  0
 14 15  1  0  0  0  0
 14 16  1  0  0  0  0
 14 17  1  0  0  0  0
 17 18  1  0  0  0  0
 17 19  1  0  0  0  0
 19 20  1  0  0  0  0
 19 21  1  0  0  0  0
 19 22  1  0  0  0  0
 17 23  1  0  0  0  0
 23 24  1  0  0  0  0
 23 25  1  0  0  0  0
 23 26  1  0  0  0  0
M  END
> <VConfSearch Rank>
88

> <Conf_Id>
45

> <Delta U+W>
1.035

> <U+W>
-29.264

> <U>
24.725

> <W>
-53.989

> <W(PB)>
-56.298

> <W(SA)>
2.309

> <Valence>
3.780

> <Coulomb>
19.804

> <VdW>
1.141

> <VdW6>
-8.104

> <VdW12>
9.246

> <Bond>
0.254

> <Angle>
1.437

> <Pdih>
2.089

> <Idih>
0.000

> <Tether>
0.000

$$$$
VeraChem MOL file


 26 25  0  0  0  0  0  0  0  0999 V2000     
   18.9690   18.8075   19.0744 C   0  0  0  0  0  0  0  0  0  0  0  0
   19.4527   18.0844   18.4050 H   0  0  0  0  0  0  0  0  0  0  0  0
   17.8872   18.7625   18.8933 H   0  0  0  0  0  0  0  0  0  0  0  0
   19.3206   19.8101   18.7981 H   0  0  0  0  0  0  0  0  0  0  0  0
   19.2992   18.4909   20.5486 C   0  0  0  0  0  0  0  0  0  0  0  0
   20.3892   18.5047   20.6789 H   0  0  0  0  0  0  0  0  0  0  0  0
   18.9619   17.4724   20.7863 H   0  0  0  0  0  0  0  0  0  0  0  0
   18.6312   19.5010   21.5115 C   0  0  0  0  0  0  0  0  0  0  0  0
   19.0116   20.5120   21.3106 H   0  0  0  0  0  0  0  0  0  0  0  0
   17.5528   19.5311   21.3025 H   0  0  0  0  0  0  0  0  0  0  0  0
   18.8294   19.1590   23.0090 C   0  0  0  0  0  0  0  0  0  0  0  0
   18.4469   18.1484   23.2085 H   0  0  0  0  0  0  0  0  0  0  0  0
   18.2086   19.8464   23.5983 H   0  0  0  0  0  0  0  0  0  0  0  0
   20.3040   19.2618   23.4776 C   0  0  0  0  0  0  0  0  0  0  0  0
   20.9172   18.5566   22.9032 H   0  0  0  0  0  0  0  0  0  0  0  0
   20.6934   20.2656   23.2622 H   0  0  0  0  0  0  0  0  0  0  0  0
   20.4818   18.9477   24.9793 C   0  0  1  0  0  0  0  0  0  0  0  0
   20.0546   17.9594   25.1758 H   0  0  0  0  0  0  0  0  0  0  0  0
   21.9746   18.9086   25.3437 C   0  0  0  0  0  0  0  0  0  0  0  0
   22.4527   19.8799   25.1646 H   0  0  0  0  0  0  0  0  0  0  0  0
   22.5021   18.1532   24.7481 H   0  0  0  0  0  0  0  0  0  0  0  0
   22.1096   18.6511   26.4015 H   0  0  0  0  0  0  0  0  0  0  0  0
   19.7502   19.9201   25.8642 N   0  3  0  0  0  0  0  0  0  0  0  0
   18.7460   19.9237   25.6670 H   0  0  0  0  0  0  0  0  0  0  0  0
   19.8662   19.6853   26.8541 H   0  0  0  0  0  0  0  0  0  0  0  0
   20.0938   20.8751   25.7336 H   0  0  0  0  0  0  0  0  0  0  0  0
  1  2  1  0  0  0  0
  1  3  1  0  0  0  0
  1  4  1  0  0  0  0
  1  5  1  0  0  0  0
  5  6  1  0  0  0  0
  5  7  1  0  0  0  0
  5  8  1  0  0  0  0
  8  9  1  0  0  0  0
  8 10  1  0  0  0  0
  8 11  1  0  0  0  0
 11 12  1  0  0  0  0
 11 13  1  0  0  0  0
 11 14  1  0  0  0  0
 14 15  1  0  0  0  0
 14 16  1  0  0  0  0
 14 17  1  0  0  0  0
 17 18  1  0  0  0  0
 17 19  1  0  0  0  0
 19 20  1  0  0  0  0
 19 21  1  0  0  0  0
 19 22  1  0  0  0  0
 17 23  1  0  0  0  0
 23 24  1  0  0  0  0
 23 25  1  0  0  0  0
 23 26  1  0  0  0  0
M  END
> <VConfSearch Rank>
89

> <Conf_Id>
121

> <Delta U+W>
0.736

> <U+W>
-29.562

> <U>
24.282

> <W>
-53.844

> <W(PB)>
-56.205

> <W(SA)>
2.361

> <Valence>
3.311

> <Coulomb>
19.887

> <VdW>
1.083

> <VdW6>
-7.444

> <VdW12>
8.527

> <Bond>
0.219

> <Angle>
1.167

> <Pdih>
1.926

> <Idih>
0.000

> <Tether>
0.000

$$$$
VeraChem MOL file


 26 25  0  0  0  0  0  0  0  0999 V2000     
   20.3402   21.4570   25.7755 C   0  0  0  0  0  0  0  0  0  0  0  0
   20.0333   22.3218   26.3778 H   0  0  0  0  0  0  0  0  0  0  0  0
   20.7607   20.7060   26.4568 H   0  0  0  0  0  0  0  0  0  0  0  0
   21.1362   21.7930   25.0996 H   0  0  0  0  0  0  0  0  0  0  0  0
   19.1340   20.8866   24.9953 C   0  0  0  0  0  0  0  0  0  0  0  0
   18.7531   21.6446   24.2967 H   0  0  0  0  0  0  0  0  0  0  0  0
   18.3188   20.6854   25.7045 H   0  0  0  0  0  0  0  0  0  0  0  0
   19.4559   19.5815   24.2279 C   0  0  0  0  0  0  0  0  0  0  0  0
   19.8283   18.8247   24.9320 H   0  0  0  0  0  0  0  0  0  0  0  0
   18.5164   19.1881   23.8182 H   0  0  0  0  0  0  0  0  0  0  0  0
   20.4797   19.7777   23.0810 C   0  0  0  0  0  0  0  0  0  0  0  0
   21.4237   20.1565   23.4934 H   0  0  0  0  0  0  0  0  0  0  0  0
   20.1208   20.5509   22.3891 H   0  0  0  0  0  0  0  0  0  0  0  0
   20.7882   18.4700   22.3061 C   0  0  0  0  0  0  0  0  0  0  0  0
   21.5382   18.6831   21.5329 H   0  0  0  0  0  0  0  0  0  0  0  0
   21.2591   17.7602   22.9988 H   0  0  0  0  0  0  0  0  0  0  0  0
   19.5643   17.7859   21.6520 C   0  0  1  0  0  0  0  0  0  0  0  0
   18.8310   17.5679   22.4339 H   0  0  0  0  0  0  0  0  0  0  0  0
   18.8962   18.6826   20.5944 C   0  0  0  0  0  0  0  0  0  0  0  0
   19.6103   18.9766   19.8152 H   0  0  0  0  0  0  0  0  0  0  0  0
   18.4863   19.5931   21.0467 H   0  0  0  0  0  0  0  0  0  0  0  0
   18.0632   18.1566   20.1119 H   0  0  0  0  0  0  0  0  0  0  0  0
   19.9421   16.4612   21.0494 N   0  3  0  0  0  0  0  0  0  0  0  0
   20.3503   15.8320   21.7466 H   0  0  0  0  0  0  0  0  0  0  0  0
   19.1278   15.9857   20.6503 H   0  0  0  0  0  0  0  0  0  0  0  0
   20.6279   16.5738   20.2981 H   0  0  0  0  0  0  0  0  0  0  0  0
  1  2  1  0  0  0  0
  1  3  1  0  0  0  0
  1  4  1  0  0  0  0
  1  5  1  0  0  0  0
  5  6  1  0  0  0  0
  5  7  1  0  0  0  0
  5  8  1  0  0  0  0
  8  9  1  0  0  0  0
  8 10  1  0  0  0  0
  8 11  1  0  0  0  0
 11 12  1  0  0  0  0
 11 13  1  0  0  0  0
 11 14  1  0  0  0  0
 14 15  1  0  0  0  0
 14 16  1  0  0  0  0
 14 17  1  0  0  0  0
 17 18  1  0  0  0  0
 17 19  1  0  0  0  0
 19 20  1  0  0  0  0
 19 21  1  0  0  0  0
 19 22  1  0  0  0  0
 17 23  1  0  0  0  0
 23 24  1  0  0  0  0
 23 25  1  0  0  0  0
 23 26  1  0  0  0  0
M  END
> <VConfSearch Rank>
90

> <Conf_Id>
5

> <Delta U+W>
1.233

> <U+W>
-29.065

> <U>
25.023

> <W>
-54.088

> <W(PB)>
-56.383

> <W(SA)>
2.296

> <Valence>
4.083

> <Coulomb>
19.893

> <VdW>
1.047

> <VdW6>
-8.479

> <VdW12>
9.527

> <Bond>
0.256

> <Angle>
1.716

> <Pdih>
2.112

> <Idih>
0.000

> <Tether>
0.000

$$$$
VeraChem MOL file


 26 25  0  0  0  0  0  0  0  0999 V2000     
   19.6495   21.7476   25.5574 C   0  0  0  0  0  0  0  0  0  0  0  0
   20.0993   22.4473   26.2738 H   0  0  0  0  0  0  0  0  0  0  0  0
   19.2646   22.3394   24.7179 H   0  0  0  0  0  0  0  0  0  0  0  0
   18.8003   21.2599   26.0534 H   0  0  0  0  0  0  0  0  0  0  0  0
   20.6932   20.7073   25.0908 C   0  0  0  0  0  0  0  0  0  0  0  0
   21.1394   20.2349   25.9771 H   0  0  0  0  0  0  0  0  0  0  0  0
   21.5150   21.2159   24.5676 H   0  0  0  0  0  0  0  0  0  0  0  0
   20.1008   19.6000   24.1857 C   0  0  0  0  0  0  0  0  0  0  0  0
   20.8794   18.8428   24.0268 H   0  0  0  0  0  0  0  0  0  0  0  0
   19.2767   19.0987   24.7117 H   0  0  0  0  0  0  0  0  0  0  0  0
   19.6072   20.1231   22.8136 C   0  0  0  0  0  0  0  0  0  0  0  0
   20.4432   20.5972   22.2810 H   0  0  0  0  0  0  0  0  0  0  0  0
   18.8561   20.9082   22.9684 H   0  0  0  0  0  0  0  0  0  0  0  0
   18.9769   19.0319   21.9112 C   0  0  0  0  0  0  0  0  0  0  0  0
   18.0868   18.6103   22.3973 H   0  0  0  0  0  0  0  0  0  0  0  0
   18.6094   19.5283   21.0034 H   0  0  0  0  0  0  0  0  0  0  0  0
   19.9608   17.9052   21.5121 C   0  0  1  0  0  0  0  0  0  0  0  0
   20.9797   18.2644   21.6864 H   0  0  0  0  0  0  0  0  0  0  0  0
   19.7356   16.6332   22.3498 C   0  0  0  0  0  0  0  0  0  0  0  0
   18.7414   16.2083   22.1629 H   0  0  0  0  0  0  0  0  0  0  0  0
   19.8170   16.8389   23.4229 H   0  0  0  0  0  0  0  0  0  0  0  0
   20.4827   15.8695   22.1011 H   0  0  0  0  0  0  0  0  0  0  0  0
   19.8774   17.5787   20.0460 N   0  3  0  0  0  0  0  0  0  0  0  0
   20.0710   18.4000   19.4656 H   0  0  0  0  0  0  0  0  0  0  0  0
   20.5538   16.8556   19.7847 H   0  0  0  0  0  0  0  0  0  0  0  0
   18.9481   17.2336   19.7914 H   0  0  0  0  0  0  0  0  0  0  0  0
  1  2  1  0  0  0  0
  1  3  1  0  0  0  0
  1  4  1  0  0  0  0
  1  5  1  0  0  0  0
  5  6  1  0  0  0  0
  5  7  1  0  0  0  0
  5  8  1  0  0  0  0
  8  9  1  0  0  0  0
  8 10  1  0  0  0  0
  8 11  1  0  0  0  0
 11 12  1  0  0  0  0
 11 13  1  0  0  0  0
 11 14  1  0  0  0  0
 14 15  1  0  0  0  0
 14 16  1  0  0  0  0
 14 17  1  0  0  0  0
 17 18  1  0  0  0  0
 17 19  1  0  0  0  0
 19 20  1  0  0  0  0
 19 21  1  0  0  0  0
 19 22  1  0  0  0  0
 17 23  1  0  0  0  0
 23 24  1  0  0  0  0
 23 25  1  0  0  0  0
 23 26  1  0  0  0  0
M  END
> <VConfSearch Rank>
91

> <Conf_Id>
100

> <Delta U+W>
3.818

> <U+W>
-26.481

> <U>
27.496

> <W>
-53.977

> <W(PB)>
-56.267

> <W(SA)>
2.290

> <Valence>
6.472

> <Coulomb>
19.839

> <VdW>
1.185

> <VdW6>
-8.405

> <VdW12>
9.590

> <Bond>
0.248

> <Angle>
1.619

> <Pdih>
4.604

> <Idih>
0.000

> <Tether>
0.000

$$$$
VeraChem MOL file


 26 25  0  0  0  0  0  0  0  0999 V2000     
   19.1036   16.5124   25.5399 C   0  0  0  0  0  0  0  0  0  0  0  0
   19.1094   16.3956   26.6314 H   0  0  0  0  0  0  0  0  0  0  0  0
   18.0599   16.6251   25.2187 H   0  0  0  0  0  0  0  0  0  0  0  0
   19.4989   15.5876   25.0999 H   0  0  0  0  0  0  0  0  0  0  0  0
   19.9489   17.7329   25.1181 C   0  0  0  0  0  0  0  0  0  0  0  0
   20.9779   17.6073   25.4832 H   0  0  0  0  0  0  0  0  0  0  0  0
   19.5496   18.6365   25.5998 H   0  0  0  0  0  0  0  0  0  0  0  0
   19.9580   17.9202   23.5848 C   0  0  0  0  0  0  0  0  0  0  0  0
   20.3574   17.0131   23.1106 H   0  0  0  0  0  0  0  0  0  0  0  0
   18.9265   18.0301   23.2300 H   0  0  0  0  0  0  0  0  0  0  0  0
   20.8115   19.1406   23.1605 C   0  0  0  0  0  0  0  0  0  0  0  0
   21.8384   18.9762   23.5154 H   0  0  0  0  0  0  0  0  0  0  0  0
   20.4588   20.0461   23.6709 H   0  0  0  0  0  0  0  0  0  0  0  0
   20.8580   19.3610   21.6224 C   0  0  0  0  0  0  0  0  0  0  0  0
   21.8594   19.7247   21.3569 H   0  0  0  0  0  0  0  0  0  0  0  0
   20.7540   18.3989   21.1036 H   0  0  0  0  0  0  0  0  0  0  0  0
   19.8317   20.3687   21.0472 C   0  0  1  0  0  0  0  0  0  0  0  0
   19.9864   20.4006   19.9642 H   0  0  0  0  0  0  0  0  0  0  0  0
   18.3743   19.9456   21.2922 C   0  0  0  0  0  0  0  0  0  0  0  0
   18.1099   20.0115   22.3542 H   0  0  0  0  0  0  0  0  0  0  0  0
   18.2039   18.9166   20.9523 H   0  0  0  0  0  0  0  0  0  0  0  0
   17.6883   20.5969   20.7370 H   0  0  0  0  0  0  0  0  0  0  0  0
   20.0716   21.7701   21.5387 N   0  3  0  0  0  0  0  0  0  0  0  0
   21.0240   22.0833   21.3307 H   0  0  0  0  0  0  0  0  0  0  0  0
   19.4289   22.4354   21.0998 H   0  0  0  0  0  0  0  0  0  0  0  0
   19.9395   21.8380   22.5506 H   0  0  0  0  0  0  0  0  0  0  0  0
  1  2  1  0  0  0  0
  1  3  1  0  0  0  0
  1  4  1  0  0  0  0
  1  5  1  0  0  0  0
  5  6  1  0  0  0  0
  5  7  1  0  0  0  0
  5  8  1  0  0  0  0
  8  9  1  0  0  0  0
  8 10  1  0  0  0  0
  8 11  1  0  0  0  0
 11 12  1  0  0  0  0
 11 13  1  0  0  0  0
 11 14  1  0  0  0  0
 14 15  1  0  0  0  0
 14 16  1  0  0  0  0
 14 17  1  0  0  0  0
 17 18  1  0  0  0  0
 17 19  1  0  0  0  0
 19 20  1  0  0  0  0
 19 21  1  0  0  0  0
 19 22  1  0  0  0  0
 17 23  1  0  0  0  0
 23 24  1  0  0  0  0
 23 25  1  0  0  0  0
 23 26  1  0  0  0  0
M  END
> <VConfSearch Rank>
92

> <Conf_Id>
142

> <Delta U+W>
2.978

> <U+W>
-27.320

> <U>
26.848

> <W>
-54.168

> <W(PB)>
-56.427

> <W(SA)>
2.259

> <Valence>
5.823

> <Coulomb>
20.057

> <VdW>
0.968

> <VdW6>
-8.367

> <VdW12>
9.335

> <Bond>
0.267

> <Angle>
1.799

> <Pdih>
3.758

> <Idih>
0.000

> <Tether>
0.000

$$$$
VeraChem MOL file


 26 25  0  0  0  0  0  0  0  0999 V2000     
   20.4993   22.0760   24.6514 C   0  0  0  0  0  0  0  0  0  0  0  0
   21.2068   21.6108   25.3500 H   0  0  0  0  0  0  0  0  0  0  0  0
   20.6953   23.1560   24.6457 H   0  0  0  0  0  0  0  0  0  0  0  0
   19.4844   21.9289   25.0403 H   0  0  0  0  0  0  0  0  0  0  0  0
   20.6567   21.4915   23.2290 C   0  0  0  0  0  0  0  0  0  0  0  0
   21.6425   21.7807   22.8386 H   0  0  0  0  0  0  0  0  0  0  0  0
   19.9153   21.9458   22.5569 H   0  0  0  0  0  0  0  0  0  0  0  0
   20.5377   19.9489   23.1762 C   0  0  0  0  0  0  0  0  0  0  0  0
   20.8182   19.6312   22.1653 H   0  0  0  0  0  0  0  0  0  0  0  0
   21.2665   19.5018   23.8662 H   0  0  0  0  0  0  0  0  0  0  0  0
   19.1145   19.4290   23.5010 C   0  0  0  0  0  0  0  0  0  0  0  0
   18.3998   19.8281   22.7691 H   0  0  0  0  0  0  0  0  0  0  0  0
   18.7983   19.8294   24.4724 H   0  0  0  0  0  0  0  0  0  0  0  0
   18.9902   17.8808   23.5790 C   0  0  0  0  0  0  0  0  0  0  0  0
   19.6205   17.5075   24.3967 H   0  0  0  0  0  0  0  0  0  0  0  0
   17.9599   17.6453   23.8766 H   0  0  0  0  0  0  0  0  0  0  0  0
   19.2993   17.0695   22.2947 C   0  0  1  0  0  0  0  0  0  0  0  0
   18.9351   16.0525   22.4705 H   0  0  0  0  0  0  0  0  0  0  0  0
   18.5580   17.6136   21.0610 C   0  0  0  0  0  0  0  0  0  0  0  0
   18.9352   18.5994   20.7637 H   0  0  0  0  0  0  0  0  0  0  0  0
   17.4831   17.7023   21.2616 H   0  0  0  0  0  0  0  0  0  0  0  0
   18.6826   16.9355   20.2080 H   0  0  0  0  0  0  0  0  0  0  0  0
   20.7721   16.9193   22.0286 N   0  3  0  0  0  0  0  0  0  0  0  0
   21.2542   16.4898   22.8233 H   0  0  0  0  0  0  0  0  0  0  0  0
   20.9451   16.3272   21.2112 H   0  0  0  0  0  0  0  0  0  0  0  0
   21.2136   17.8238   21.8528 H   0  0  0  0  0  0  0  0  0  0  0  0
  1  2  1  0  0  0  0
  1  3  1  0  0  0  0
  1  4  1  0  0  0  0
  1  5  1  0  0  0  0
  5  6  1  0  0  0  0
  5  7  1  0  0  0  0
  5  8  1  0  0  0  0
  8  9  1  0  0  0  0
  8 10  1  0  0  0  0
  8 11  1  0  0  0  0
 11 12  1  0  0  0  0
 11 13  1  0  0  0  0
 11 14  1  0  0  0  0
 14 15  1  0  0  0  0
 14 16  1  0  0  0  0
 14 17  1  0  0  0  0
 17 18  1  0  0  0  0
 17 19  1  0  0  0  0
 19 20  1  0  0  0  0
 19 21  1  0  0  0  0
 19 22  1  0  0  0  0
 17 23  1  0  0  0  0
 23 24  1  0  0  0  0
 23 25  1  0  0  0  0
 23 26  1  0  0  0  0
M  END
> <VConfSearch Rank>
93

> <Conf_Id>
119

> <Delta U+W>
3.538

> <U+W>
-26.761

> <U>
27.482

> <W>
-54.243

> <W(PB)>
-56.494

> <W(SA)>
2.251

> <Valence>
5.284

> <Coulomb>
21.247

> <VdW>
0.951

> <VdW6>
-9.416

> <VdW12>
10.367

> <Bond>
0.323

> <Angle>
2.522

> <Pdih>
2.439

> <Idih>
0.000

> <Tether>
0.000

$$$$
VeraChem MOL file


 26 25  0  0  0  0  0  0  0  0999 V2000     
   22.0274   21.8325   23.2786 C   0  0  0  0  0  0  0  0  0  0  0  0
   21.5039   22.4722   24.0010 H   0  0  0  0  0  0  0  0  0  0  0  0
   22.5097   21.0149   23.8286 H   0  0  0  0  0  0  0  0  0  0  0  0
   22.8219   22.4310   22.8144 H   0  0  0  0  0  0  0  0  0  0  0  0
   21.0550   21.2974   22.2030 C   0  0  0  0  0  0  0  0  0  0  0  0
   21.5962   20.6363   21.5119 H   0  0  0  0  0  0  0  0  0  0  0  0
   20.6943   22.1426   21.6003 H   0  0  0  0  0  0  0  0  0  0  0  0
   19.8338   20.5510   22.7922 C   0  0  0  0  0  0  0  0  0  0  0  0
   19.2823   21.2261   23.4611 H   0  0  0  0  0  0  0  0  0  0  0  0
   19.1484   20.3123   21.9705 H   0  0  0  0  0  0  0  0  0  0  0  0
   20.2139   19.2584   23.5594 C   0  0  0  0  0  0  0  0  0  0  0  0
   20.8014   19.5401   24.4432 H   0  0  0  0  0  0  0  0  0  0  0  0
   20.8739   18.6332   22.9445 H   0  0  0  0  0  0  0  0  0  0  0  0
   18.9818   18.4441   24.0442 C   0  0  0  0  0  0  0  0  0  0  0  0
   19.2169   18.0150   25.0271 H   0  0  0  0  0  0  0  0  0  0  0  0
   18.1335   19.1188   24.2196 H   0  0  0  0  0  0  0  0  0  0  0  0
   18.5326   17.2803   23.1258 C   0  0  1  0  0  0  0  0  0  0  0  0
   17.6589   16.8186   23.5962 H   0  0  0  0  0  0  0  0  0  0  0  0
   18.1071   17.7528   21.7261 C   0  0  0  0  0  0  0  0  0  0  0  0
   18.9618   18.1299   21.1520 H   0  0  0  0  0  0  0  0  0  0  0  0
   17.3542   18.5476   21.7948 H   0  0  0  0  0  0  0  0  0  0  0  0
   17.6642   16.9240   21.1603 H   0  0  0  0  0  0  0  0  0  0  0  0
   19.5707   16.1956   23.0316 N   0  3  0  0  0  0  0  0  0  0  0  0
   19.8217   15.8345   23.9563 H   0  0  0  0  0  0  0  0  0  0  0  0
   19.2350   15.4041   22.4756 H   0  0  0  0  0  0  0  0  0  0  0  0
   20.4283   16.5377   22.5916 H   0  0  0  0  0  0  0  0  0  0  0  0
  1  2  1  0  0  0  0
  1  3  1  0  0  0  0
  1  4  1  0  0  0  0
  1  5  1  0  0  0  0
  5  6  1  0  0  0  0
  5  7  1  0  0  0  0
  5  8  1  0  0  0  0
  8  9  1  0  0  0  0
  8 10  1  0  0  0  0
  8 11  1  0  0  0  0
 11 12  1  0  0  0  0
 11 13  1  0  0  0  0
 11 14  1  0  0  0  0
 14 15  1  0  0  0  0
 14 16  1  0  0  0  0
 14 17  1  0  0  0  0
 17 18  1  0  0  0  0
 17 19  1  0  0  0  0
 19 20  1  0  0  0  0
 19 21  1  0  0  0  0
 19 22  1  0  0  0  0
 17 23  1  0  0  0  0
 23 24  1  0  0  0  0
 23 25  1  0  0  0  0
 23 26  1  0  0  0  0
M  END
> <VConfSearch Rank>
94

> <Conf_Id>
127

> <Delta U+W>
3.544

> <U+W>
-26.754

> <U>
27.509

> <W>
-54.263

> <W(PB)>
-56.496

> <W(SA)>
2.232

> <Valence>
6.375

> <Coulomb>
20.014

> <VdW>
1.120

> <VdW6>
-8.976

> <VdW12>
10.096

> <Bond>
0.304

> <Angle>
1.986

> <Pdih>
4.086

> <Idih>
0.000

> <Tether>
0.000

$$$$
VeraChem MOL file


 26 25  0  0  0  0  0  0  0  0999 V2000     
   19.9153   15.9819   22.6109 C   0  0  0  0  0  0  0  0  0  0  0  0
   20.6655   15.2148   22.3794 H   0  0  0  0  0  0  0  0  0  0  0  0
   18.9405   15.4825   22.6837 H   0  0  0  0  0  0  0  0  0  0  0  0
   19.8762   16.6746   21.7630 H   0  0  0  0  0  0  0  0  0  0  0  0
   20.2669   16.7001   23.9347 C   0  0  0  0  0  0  0  0  0  0  0  0
   21.2754   17.1330   23.8788 H   0  0  0  0  0  0  0  0  0  0  0  0
   20.3077   15.9424   24.7298 H   0  0  0  0  0  0  0  0  0  0  0  0
   19.2353   17.7848   24.3388 C   0  0  0  0  0  0  0  0  0  0  0  0
   18.2409   17.5283   23.9485 H   0  0  0  0  0  0  0  0  0  0  0  0
   19.1354   17.7699   25.4330 H   0  0  0  0  0  0  0  0  0  0  0  0
   19.6135   19.2308   23.9256 C   0  0  0  0  0  0  0  0  0  0  0  0
   20.5586   19.5061   24.4123 H   0  0  0  0  0  0  0  0  0  0  0  0
   18.8495   19.9044   24.3339 H   0  0  0  0  0  0  0  0  0  0  0  0
   19.7310   19.4426   22.3926 C   0  0  0  0  0  0  0  0  0  0  0  0
   20.5619   18.8389   22.0084 H   0  0  0  0  0  0  0  0  0  0  0  0
   18.8235   19.0683   21.9009 H   0  0  0  0  0  0  0  0  0  0  0  0
   19.9699   20.9067   21.9529 C   0  0  1  0  0  0  0  0  0  0  0  0
   20.1104   20.8997   20.8676 H   0  0  0  0  0  0  0  0  0  0  0  0
   18.7611   21.8096   22.2559 C   0  0  0  0  0  0  0  0  0  0  0  0
   17.8408   21.3825   21.8387 H   0  0  0  0  0  0  0  0  0  0  0  0
   18.9011   22.8000   21.8057 H   0  0  0  0  0  0  0  0  0  0  0  0
   18.6173   21.9506   23.3335 H   0  0  0  0  0  0  0  0  0  0  0  0
   21.2326   21.4824   22.5330 N   0  3  0  0  0  0  0  0  0  0  0  0
   22.0492   20.9126   22.2947 H   0  0  0  0  0  0  0  0  0  0  0  0
   21.4074   22.4288   22.1835 H   0  0  0  0  0  0  0  0  0  0  0  0
   21.1812   21.5365   23.5531 H   0  0  0  0  0  0  0  0  0  0  0  0
  1  2  1  0  0  0  0
  1  3  1  0  0  0  0
  1  4  1  0  0  0  0
  1  5  1  0  0  0  0
  5  6  1  0  0  0  0
  5  7  1  0  0  0  0
  5  8  1  0  0  0  0
  8  9  1  0  0  0  0
  8 10  1  0  0  0  0
  8 11  1  0  0  0  0
 11 12  1  0  0  0  0
 11 13  1  0  0  0  0
 11 14  1  0  0  0  0
 14 15  1  0  0  0  0
 14 16  1  0  0  0  0
 14 17  1  0  0  0  0
 17 18  1  0  0  0  0
 17 19  1  0  0  0  0
 19 20  1  0  0  0  0
 19 21  1  0  0  0  0
 19 22  1  0  0  0  0
 17 23  1  0  0  0  0
 23 24  1  0  0  0  0
 23 25  1  0  0  0  0
 23 26  1  0  0  0  0
M  END
> <VConfSearch Rank>
95

> <Conf_Id>
131

> <Delta U+W>
3.589

> <U+W>
-26.710

> <U>
27.573

> <W>
-54.283

> <W(PB)>
-56.537

> <W(SA)>
2.254

> <Valence>
6.363

> <Coulomb>
20.026

> <VdW>
1.184

> <VdW6>
-8.939

> <VdW12>
10.123

> <Bond>
0.298

> <Angle>
2.018

> <Pdih>
4.047

> <Idih>
0.000

> <Tether>
0.000

$$$$
VeraChem MOL file


 26 25  0  0  0  0  0  0  0  0999 V2000     
   18.1405   21.3157   23.5751 C   0  0  0  0  0  0  0  0  0  0  0  0
   17.8740   20.7698   24.4894 H   0  0  0  0  0  0  0  0  0  0  0  0
   19.2323   21.3121   23.4698 H   0  0  0  0  0  0  0  0  0  0  0  0
   17.8281   22.3600   23.7042 H   0  0  0  0  0  0  0  0  0  0  0  0
   17.4560   20.6974   22.3367 C   0  0  0  0  0  0  0  0  0  0  0  0
   17.7996   21.2190   21.4325 H   0  0  0  0  0  0  0  0  0  0  0  0
   16.3748   20.8835   22.4024 H   0  0  0  0  0  0  0  0  0  0  0  0
   17.6825   19.1724   22.1749 C   0  0  0  0  0  0  0  0  0  0  0  0
   17.2405   18.6335   23.0241 H   0  0  0  0  0  0  0  0  0  0  0  0
   17.1156   18.8470   21.2916 H   0  0  0  0  0  0  0  0  0  0  0  0
   19.1631   18.7529   21.9794 C   0  0  0  0  0  0  0  0  0  0  0  0
   19.7089   19.5611   21.4759 H   0  0  0  0  0  0  0  0  0  0  0  0
   19.1925   17.8929   21.2961 H   0  0  0  0  0  0  0  0  0  0  0  0
   19.8663   18.3418   23.3002 C   0  0  0  0  0  0  0  0  0  0  0  0
   19.8809   19.1779   24.0081 H   0  0  0  0  0  0  0  0  0  0  0  0
   19.2736   17.5488   23.7746 H   0  0  0  0  0  0  0  0  0  0  0  0
   21.3062   17.8176   23.0976 C   0  0  1  0  0  0  0  0  0  0  0  0
   21.2794   17.0200   22.3488 H   0  0  0  0  0  0  0  0  0  0  0  0
   22.2593   18.9206   22.6029 C   0  0  0  0  0  0  0  0  0  0  0  0
   22.2720   19.7732   23.2934 H   0  0  0  0  0  0  0  0  0  0  0  0
   21.9679   19.2858   21.6116 H   0  0  0  0  0  0  0  0  0  0  0  0
   23.2833   18.5366   22.5182 H   0  0  0  0  0  0  0  0  0  0  0  0
   21.8405   17.1969   24.3588 N   0  3  0  0  0  0  0  0  0  0  0  0
   21.9008   17.8817   25.1169 H   0  0  0  0  0  0  0  0  0  0  0  0
   21.2448   16.4299   24.6835 H   0  0  0  0  0  0  0  0  0  0  0  0
   22.7795   16.8136   24.2182 H   0  0  0  0  0  0  0  0  0  0  0  0
  1  2  1  0  0  0  0
  1  3  1  0  0  0  0
  1  4  1  0  0  0  0
  1  5  1  0  0  0  0
  5  6  1  0  0  0  0
  5  7  1  0  0  0  0
  5  8  1  0  0  0  0
  8  9  1  0  0  0  0
  8 10  1  0  0  0  0
  8 11  1  0  0  0  0
 11 12  1  0  0  0  0
 11 13  1  0  0  0  0
 11 14  1  0  0  0  0
 14 15  1  0  0  0  0
 14 16  1  0  0  0  0
 14 17  1  0  0  0  0
 17 18  1  0  0  0  0
 17 19  1  0  0  0  0
 19 20  1  0  0  0  0
 19 21  1  0  0  0  0
 19 22  1  0  0  0  0
 17 23  1  0  0  0  0
 23 24  1  0  0  0  0
 23 25  1  0  0  0  0
 23 26  1  0  0  0  0
M  END
> <VConfSearch Rank>
96

> <Conf_Id>
80

> <Delta U+W>
3.351

> <U+W>
-26.948

> <U>
27.261

> <W>
-54.209

> <W(PB)>
-56.471

> <W(SA)>
2.263

> <Valence>
6.230

> <Coulomb>
19.945

> <VdW>
1.087

> <VdW6>
-8.618

> <VdW12>
9.704

> <Bond>
0.277

> <Angle>
1.928

> <Pdih>
4.025

> <Idih>
0.000

> <Tether>
0.000

$$$$
VeraChem MOL file


 26 25  0  0  0  0  0  0  0  0999 V2000     
   19.1482   17.6047   25.8058 C   0  0  0  0  0  0  0  0  0  0  0  0
   19.5206   17.6791   26.8357 H   0  0  0  0  0  0  0  0  0  0  0  0
   18.2040   17.0454   25.8292 H   0  0  0  0  0  0  0  0  0  0  0  0
   19.8803   17.0228   25.2320 H   0  0  0  0  0  0  0  0  0  0  0  0
   18.9457   19.0121   25.2006 C   0  0  0  0  0  0  0  0  0  0  0  0
   19.9072   19.5404   25.1634 H   0  0  0  0  0  0  0  0  0  0  0  0
   18.3115   19.5991   25.8795 H   0  0  0  0  0  0  0  0  0  0  0  0
   18.2803   18.9974   23.7997 C   0  0  0  0  0  0  0  0  0  0  0  0
   17.2590   18.6068   23.9068 H   0  0  0  0  0  0  0  0  0  0  0  0
   18.1619   20.0324   23.4593 H   0  0  0  0  0  0  0  0  0  0  0  0
   19.0095   18.1548   22.7151 C   0  0  0  0  0  0  0  0  0  0  0  0
   18.4113   18.1535   21.7935 H   0  0  0  0  0  0  0  0  0  0  0  0
   19.0249   17.1073   23.0437 H   0  0  0  0  0  0  0  0  0  0  0  0
   20.4643   18.5904   22.3827 C   0  0  0  0  0  0  0  0  0  0  0  0
   20.9647   19.0024   23.2661 H   0  0  0  0  0  0  0  0  0  0  0  0
   21.0268   17.6831   22.1260 H   0  0  0  0  0  0  0  0  0  0  0  0
   20.6040   19.5669   21.1898 C   0  0  1  0  0  0  0  0  0  0  0  0
   20.1535   19.0972   20.3100 H   0  0  0  0  0  0  0  0  0  0  0  0
   19.8983   20.9119   21.4284 C   0  0  0  0  0  0  0  0  0  0  0  0
   18.8102   20.7851   21.4437 H   0  0  0  0  0  0  0  0  0  0  0  0
   20.1261   21.6180   20.6205 H   0  0  0  0  0  0  0  0  0  0  0  0
   20.2133   21.3650   22.3767 H   0  0  0  0  0  0  0  0  0  0  0  0
   22.0512   19.7944   20.8502 N   0  3  0  0  0  0  0  0  0  0  0  0
   22.5322   18.9153   20.6396 H   0  0  0  0  0  0  0  0  0  0  0  0
   22.1522   20.4000   20.0308 H   0  0  0  0  0  0  0  0  0  0  0  0
   22.5511   20.2413   21.6234 H   0  0  0  0  0  0  0  0  0  0  0  0
  1  2  1  0  0  0  0
  1  3  1  0  0  0  0
  1  4  1  0  0  0  0
  1  5  1  0  0  0  0
  5  6  1  0  0  0  0
  5  7  1  0  0  0  0
  5  8  1  0  0  0  0
  8  9  1  0  0  0  0
  8 10  1  0  0  0  0
  8 11  1  0  0  0  0
 11 12  1  0  0  0  0
 11 13  1  0  0  0  0
 11 14  1  0  0  0  0
 14 15  1  0  0  0  0
 14 16  1  0  0  0  0
 14 17  1  0  0  0  0
 17 18  1  0  0  0  0
 17 19  1  0  0  0  0
 19 20  1  0  0  0  0
 19 21  1  0  0  0  0
 19 22  1  0  0  0  0
 17 23  1  0  0  0  0
 23 24  1  0  0  0  0
 23 25  1  0  0  0  0
 23 26  1  0  0  0  0
M  END
> <VConfSearch Rank>
97

> <Conf_Id>
136

> <Delta U+W>
4.272

> <U+W>
-26.026

> <U>
28.262

> <W>
-54.288

> <W(PB)>
-56.488

> <W(SA)>
2.200

> <Valence>
7.096

> <Coulomb>
19.990

> <VdW>
1.175

> <VdW6>
-9.404

> <VdW12>
10.580

> <Bond>
0.360

> <Angle>
2.785

> <Pdih>
3.951

> <Idih>
0.000

> <Tether>
0.000

$$$$
VeraChem MOL file


 26 25  0  0  0  0  0  0  0  0999 V2000     
   22.2054   19.5515   24.6912 C   0  0  0  0  0  0  0  0  0  0  0  0
   21.1891   19.4319   25.0864 H   0  0  0  0  0  0  0  0  0  0  0  0
   22.8932   19.5375   25.5465 H   0  0  0  0  0  0  0  0  0  0  0  0
   22.2826   20.5374   24.2147 H   0  0  0  0  0  0  0  0  0  0  0  0
   22.5577   18.4232   23.6974 C   0  0  0  0  0  0  0  0  0  0  0  0
   22.4168   17.4495   24.1871 H   0  0  0  0  0  0  0  0  0  0  0  0
   23.6275   18.4892   23.4545 H   0  0  0  0  0  0  0  0  0  0  0  0
   21.7499   18.4609   22.3749 C   0  0  0  0  0  0  0  0  0  0  0  0
   21.9638   19.3893   21.8277 H   0  0  0  0  0  0  0  0  0  0  0  0
   22.1241   17.6486   21.7364 H   0  0  0  0  0  0  0  0  0  0  0  0
   20.2195   18.2758   22.5454 C   0  0  0  0  0  0  0  0  0  0  0  0
   20.0114   17.6771   23.4429 H   0  0  0  0  0  0  0  0  0  0  0  0
   19.8500   17.6889   21.6940 H   0  0  0  0  0  0  0  0  0  0  0  0
   19.4417   19.6166   22.5980 C   0  0  0  0  0  0  0  0  0  0  0  0
   19.8672   20.2612   23.3753 H   0  0  0  0  0  0  0  0  0  0  0  0
   19.5702   20.1539   21.6490 H   0  0  0  0  0  0  0  0  0  0  0  0
   17.9364   19.4267   22.8847 C   0  0  1  0  0  0  0  0  0  0  0  0
   17.8339   18.8686   23.8205 H   0  0  0  0  0  0  0  0  0  0  0  0
   17.2492   20.7906   23.0591 C   0  0  0  0  0  0  0  0  0  0  0  0
   17.3226   21.3921   22.1445 H   0  0  0  0  0  0  0  0  0  0  0  0
   17.7090   21.3571   23.8785 H   0  0  0  0  0  0  0  0  0  0  0  0
   16.1866   20.6621   23.2994 H   0  0  0  0  0  0  0  0  0  0  0  0
   17.2438   18.6192   21.8210 N   0  3  0  0  0  0  0  0  0  0  0  0
   17.2992   19.0786   20.9082 H   0  0  0  0  0  0  0  0  0  0  0  0
   17.6622   17.6902   21.7248 H   0  0  0  0  0  0  0  0  0  0  0  0
   16.2519   18.4870   22.0379 H   0  0  0  0  0  0  0  0  0  0  0  0
  1  2  1  0  0  0  0
  1  3  1  0  0  0  0
  1  4  1  0  0  0  0
  1  5  1  0  0  0  0
  5  6  1  0  0  0  0
  5  7  1  0  0  0  0
  5  8  1  0  0  0  0
  8  9  1  0  0  0  0
  8 10  1  0  0  0  0
  8 11  1  0  0  0  0
 11 12  1  0  0  0  0
 11 13  1  0  0  0  0
 11 14  1  0  0  0  0
 14 15  1  0  0  0  0
 14 16  1  0  0  0  0
 14 17  1  0  0  0  0
 17 18  1  0  0  0  0
 17 19  1  0  0  0  0
 19 20  1  0  0  0  0
 19 21  1  0  0  0  0
 19 22  1  0  0  0  0
 17 23  1  0  0  0  0
 23 24  1  0  0  0  0
 23 25  1  0  0  0  0
 23 26  1  0  0  0  0
M  END
> <VConfSearch Rank>
98

> <Conf_Id>
124

> <Delta U+W>
3.001

> <U+W>
-27.298

> <U>
26.787

> <W>
-54.085

> <W(PB)>
-56.347

> <W(SA)>
2.262

> <Valence>
5.742

> <Coulomb>
20.023

> <VdW>
1.022

> <VdW6>
-8.392

> <VdW12>
9.414

> <Bond>
0.261

> <Angle>
1.576

> <Pdih>
3.904

> <Idih>
0.000

> <Tether>
0.000

$$$$
VeraChem MOL file


 26 25  0  0  0  0  0  0  0  0999 V2000     
   19.7506   22.3005   23.6203 C   0  0  0  0  0  0  0  0  0  0  0  0
   20.4707   22.8969   23.0452 H   0  0  0  0  0  0  0  0  0  0  0  0
   19.2331   22.9791   24.3106 H   0  0  0  0  0  0  0  0  0  0  0  0
   20.3146   21.5811   24.2238 H   0  0  0  0  0  0  0  0  0  0  0  0
   18.7355   21.6064   22.6825 C   0  0  0  0  0  0  0  0  0  0  0  0
   18.1904   22.3891   22.1365 H   0  0  0  0  0  0  0  0  0  0  0  0
   17.9800   21.0662   23.2698 H   0  0  0  0  0  0  0  0  0  0  0  0
   19.3977   20.6564   21.6512 C   0  0  0  0  0  0  0  0  0  0  0  0
   18.8239   20.7157   20.7159 H   0  0  0  0  0  0  0  0  0  0  0  0
   20.4072   21.0107   21.4009 H   0  0  0  0  0  0  0  0  0  0  0  0
   19.4442   19.1655   22.0746 C   0  0  0  0  0  0  0  0  0  0  0  0
   19.8538   18.5890   21.2350 H   0  0  0  0  0  0  0  0  0  0  0  0
   18.4174   18.8056   22.2227 H   0  0  0  0  0  0  0  0  0  0  0  0
   20.2855   18.8934   23.3497 C   0  0  0  0  0  0  0  0  0  0  0  0
   21.2616   19.3862   23.2529 H   0  0  0  0  0  0  0  0  0  0  0  0
   19.7914   19.3522   24.2150 H   0  0  0  0  0  0  0  0  0  0  0  0
   20.5192   17.3974   23.6671 C   0  0  1  0  0  0  0  0  0  0  0  0
   21.1160   17.3491   24.5832 H   0  0  0  0  0  0  0  0  0  0  0  0
   19.2001   16.6502   23.9304 C   0  0  0  0  0  0  0  0  0  0  0  0
   18.5865   16.5801   23.0243 H   0  0  0  0  0  0  0  0  0  0  0  0
   18.6126   17.1579   24.7054 H   0  0  0  0  0  0  0  0  0  0  0  0
   19.4002   15.6299   24.2797 H   0  0  0  0  0  0  0  0  0  0  0  0
   21.3296   16.7037   22.6067 N   0  3  0  0  0  0  0  0  0  0  0  0
   21.5290   15.7328   22.8636 H   0  0  0  0  0  0  0  0  0  0  0  0
   20.8358   16.6884   21.7111 H   0  0  0  0  0  0  0  0  0  0  0  0
   22.2284   17.1705   22.4554 H   0  0  0  0  0  0  0  0  0  0  0  0
  1  2  1  0  0  0  0
  1  3  1  0  0  0  0
  1  4  1  0  0  0  0
  1  5  1  0  0  0  0
  5  6  1  0  0  0  0
  5  7  1  0  0  0  0
  5  8  1  0  0  0  0
  8  9  1  0  0  0  0
  8 10  1  0  0  0  0
  8 11  1  0  0  0  0
 11 12  1  0  0  0  0
 11 13  1  0  0  0  0
 11 14  1  0  0  0  0
 14 15  1  0  0  0  0
 14 16  1  0  0  0  0
 14 17  1  0  0  0  0
 17 18  1  0  0  0  0
 17 19  1  0  0  0  0
 19 20  1  0  0  0  0
 19 21  1  0  0  0  0
 19 22  1  0  0  0  0
 17 23  1  0  0  0  0
 23 24  1  0  0  0  0
 23 25  1  0  0  0  0
 23 26  1  0  0  0  0
M  END
> <VConfSearch Rank>
99

> <Conf_Id>
105

> <Delta U+W>
3.442

> <U+W>
-26.857

> <U>
27.313

> <W>
-54.169

> <W(PB)>
-56.414

> <W(SA)>
2.245

> <Valence>
6.229

> <Coulomb>
19.943

> <VdW>
1.140

> <VdW6>
-9.001

> <VdW12>
10.140

> <Bond>
0.294

> <Angle>
1.969

> <Pdih>
3.967

> <Idih>
0.000

> <Tether>
0.000

$$$$
VeraChem MOL file


 26 25  0  0  0  0  0  0  0  0999 V2000     
   20.6009   17.1711   25.2212 C   0  0  0  0  0  0  0  0  0  0  0  0
   21.3738   17.5236   25.9166 H   0  0  0  0  0  0  0  0  0  0  0  0
   20.4143   16.1120   25.4409 H   0  0  0  0  0  0  0  0  0  0  0  0
   21.0076   17.2318   24.2060 H   0  0  0  0  0  0  0  0  0  0  0  0
   19.3002   17.9928   25.3792 C   0  0  0  0  0  0  0  0  0  0  0  0
   18.9366   17.8547   26.4072 H   0  0  0  0  0  0  0  0  0  0  0  0
   18.5136   17.5926   24.7245 H   0  0  0  0  0  0  0  0  0  0  0  0
   19.4932   19.5102   25.1251 C   0  0  0  0  0  0  0  0  0  0  0  0
   18.8234   20.0572   25.8029 H   0  0  0  0  0  0  0  0  0  0  0  0
   20.5106   19.8163   25.4050 H   0  0  0  0  0  0  0  0  0  0  0  0
   19.1735   19.9744   23.6806 C   0  0  0  0  0  0  0  0  0  0  0  0
   19.2712   21.0683   23.6420 H   0  0  0  0  0  0  0  0  0  0  0  0
   18.1216   19.7511   23.4576 H   0  0  0  0  0  0  0  0  0  0  0  0
   20.0849   19.3505   22.5951 C   0  0  0  0  0  0  0  0  0  0  0  0
   21.1328   19.4545   22.9064 H   0  0  0  0  0  0  0  0  0  0  0  0
   19.8802   18.2761   22.5090 H   0  0  0  0  0  0  0  0  0  0  0  0
   19.9077   20.0118   21.2113 C   0  0  1  0  0  0  0  0  0  0  0  0
   20.0978   21.0843   21.3171 H   0  0  0  0  0  0  0  0  0  0  0  0
   20.9238   19.4381   20.2109 C   0  0  0  0  0  0  0  0  0  0  0  0
   20.7741   18.3608   20.0663 H   0  0  0  0  0  0  0  0  0  0  0  0
   21.9505   19.5959   20.5642 H   0  0  0  0  0  0  0  0  0  0  0  0
   20.8286   19.9304   19.2352 H   0  0  0  0  0  0  0  0  0  0  0  0
   18.5067   19.8707   20.6817 N   0  3  0  0  0  0  0  0  0  0  0  0
   17.8226   20.2868   21.3192 H   0  0  0  0  0  0  0  0  0  0  0  0
   18.4011   20.3339   19.7747 H   0  0  0  0  0  0  0  0  0  0  0  0
   18.2525   18.8875   20.5552 H   0  0  0  0  0  0  0  0  0  0  0  0
  1  2  1  0  0  0  0
  1  3  1  0  0  0  0
  1  4  1  0  0  0  0
  1  5  1  0  0  0  0
  5  6  1  0  0  0  0
  5  7  1  0  0  0  0
  5  8  1  0  0  0  0
  8  9  1  0  0  0  0
  8 10  1  0  0  0  0
  8 11  1  0  0  0  0
 11 12  1  0  0  0  0
 11 13  1  0  0  0  0
 11 14  1  0  0  0  0
 14 15  1  0  0  0  0
 14 16  1  0  0  0  0
 14 17  1  0  0  0  0
 17 18  1  0  0  0  0
 17 19  1  0  0  0  0
 19 20  1  0  0  0  0
 19 21  1  0  0  0  0
 19 22  1  0  0  0  0
 17 23  1  0  0  0  0
 23 24  1  0  0  0  0
 23 25  1  0  0  0  0
 23 26  1  0  0  0  0
M  END
> <VConfSearch Rank>
100

> <Conf_Id>
107

> <Delta U+W>
2.995

> <U+W>
-27.304

> <U>
26.796

> <W>
-54.100

> <W(PB)>
-56.404

> <W(SA)>
2.304

> <Valence>
5.706

> <Coulomb>
20.107

> <VdW>
0.982

> <VdW6>
-8.396

> <VdW12>
9.378

> <Bond>
0.254

> <Angle>
1.644

> <Pdih>
3.808

> <Idih>
0.000

> <Tether>
0.000

$$$$
VeraChem MOL file


 26 25  0  0  0  0  0  0  0  0999 V2000     
   23.0468   16.5841   22.0620 C   0  0  0  0  0  0  0  0  0  0  0  0
   23.3187   17.0271   21.0950 H   0  0  0  0  0  0  0  0  0  0  0  0
   23.9701   16.2425   22.5476 H   0  0  0  0  0  0  0  0  0  0  0  0
   22.4208   15.7028   21.8705 H   0  0  0  0  0  0  0  0  0  0  0  0
   22.3086   17.6061   22.9524 C   0  0  0  0  0  0  0  0  0  0  0  0
   22.9713   18.4594   23.1542 H   0  0  0  0  0  0  0  0  0  0  0  0
   22.0804   17.1452   23.9237 H   0  0  0  0  0  0  0  0  0  0  0  0
   21.0040   18.1036   22.2914 C   0  0  0  0  0  0  0  0  0  0  0  0
   21.2376   18.5601   21.3195 H   0  0  0  0  0  0  0  0  0  0  0  0
   20.3458   17.2471   22.0901 H   0  0  0  0  0  0  0  0  0  0  0  0
   20.2622   19.1279   23.1798 C   0  0  0  0  0  0  0  0  0  0  0  0
   20.9204   19.9855   23.3773 H   0  0  0  0  0  0  0  0  0  0  0  0
   20.0386   18.6662   24.1507 H   0  0  0  0  0  0  0  0  0  0  0  0
   18.9547   19.6235   22.5152 C   0  0  0  0  0  0  0  0  0  0  0  0
   19.1931   20.0312   21.5238 H   0  0  0  0  0  0  0  0  0  0  0  0
   18.2770   18.7752   22.3505 H   0  0  0  0  0  0  0  0  0  0  0  0
   18.2339   20.7117   23.3404 C   0  0  1  0  0  0  0  0  0  0  0  0
   18.9360   21.5337   23.5111 H   0  0  0  0  0  0  0  0  0  0  0  0
   17.0279   21.2613   22.5619 C   0  0  0  0  0  0  0  0  0  0  0  0
   16.2896   20.4738   22.3655 H   0  0  0  0  0  0  0  0  0  0  0  0
   17.3439   21.6812   21.5988 H   0  0  0  0  0  0  0  0  0  0  0  0
   16.5328   22.0609   23.1267 H   0  0  0  0  0  0  0  0  0  0  0  0
   17.8064   20.2186   24.6959 N   0  3  0  0  0  0  0  0  0  0  0  0
   17.1456   19.4409   24.6191 H   0  0  0  0  0  0  0  0  0  0  0  0
   18.6060   19.8912   25.2444 H   0  0  0  0  0  0  0  0  0  0  0  0
   17.3478   20.9582   25.2355 H   0  0  0  0  0  0  0  0  0  0  0  0
  1  2  1  0  0  0  0
  1  3  1  0  0  0  0
  1  4  1  0  0  0  0
  1  5  1  0  0  0  0
  5  6  1  0  0  0  0
  5  7  1  0  0  0  0
  5  8  1  0  0  0  0
  8  9  1  0  0  0  0
  8 10  1  0  0  0  0
  8 11  1  0  0  0  0
 11 12  1  0  0  0  0
 11 13  1  0  0  0  0
 11 14  1  0  0  0  0
 14 15  1  0  0  0  0
 14 16  1  0  0  0  0
 14 17  1  0  0  0  0
 17 18  1  0  0  0  0
 17 19  1  0  0  0  0
 19 20  1  0  0  0  0
 19 21  1  0  0  0  0
 19 22  1  0  0  0  0
 17 23  1  0  0  0  0
 23 24  1  0  0  0  0
 23 25  1  0  0  0  0
 23 26  1  0  0  0  0
M  END
> <VConfSearch Rank>
101

> <Conf_Id>
122

> <Delta U+W>
0.000

> <U+W>
-30.299

> <U>
23.517

> <W>
-53.816

> <W(PB)>
-56.162

> <W(SA)>
2.346

> <Valence>
2.737

> <Coulomb>
19.862

> <VdW>
0.919

> <VdW6>
-6.793

> <VdW12>
7.712

> <Bond>
0.171

> <Angle>
0.873

> <Pdih>
1.693

> <Idih>
0.000

> <Tether>
0.000

$$$$
VeraChem MOL file


 26 25  0  0  0  0  0  0  0  0999 V2000     
   18.2149   19.0359   19.0659 C   0  0  0  0  0  0  0  0  0  0  0  0
   17.6702   19.7100   18.3922 H   0  0  0  0  0  0  0  0  0  0  0  0
   19.1248   18.7052   18.5483 H   0  0  0  0  0  0  0  0  0  0  0  0
   17.5838   18.1555   19.2443 H   0  0  0  0  0  0  0  0  0  0  0  0
   18.5585   19.7497   20.3905 C   0  0  0  0  0  0  0  0  0  0  0  0
   17.6318   20.0984   20.8675 H   0  0  0  0  0  0  0  0  0  0  0  0
   19.1610   20.6438   20.1771 H   0  0  0  0  0  0  0  0  0  0  0  0
   19.3264   18.8220   21.3579 C   0  0  0  0  0  0  0  0  0  0  0  0
   18.7211   17.9290   21.5668 H   0  0  0  0  0  0  0  0  0  0  0  0
   20.2499   18.4740   20.8747 H   0  0  0  0  0  0  0  0  0  0  0  0
   19.6726   19.5335   22.6856 C   0  0  0  0  0  0  0  0  0  0  0  0
   18.7442   19.8842   23.1550 H   0  0  0  0  0  0  0  0  0  0  0  0
   20.2820   20.4237   22.4762 H   0  0  0  0  0  0  0  0  0  0  0  0
   20.4384   18.5996   23.6549 C   0  0  0  0  0  0  0  0  0  0  0  0
   19.8068   17.7407   23.9181 H   0  0  0  0  0  0  0  0  0  0  0  0
   21.3132   18.1931   23.1302 H   0  0  0  0  0  0  0  0  0  0  0  0
   20.9245   19.3019   24.9434 C   0  0  1  0  0  0  0  0  0  0  0  0
   21.5156   20.1767   24.6552 H   0  0  0  0  0  0  0  0  0  0  0  0
   19.7538   19.7739   25.8245 C   0  0  0  0  0  0  0  0  0  0  0  0
   19.0933   18.9384   26.0879 H   0  0  0  0  0  0  0  0  0  0  0  0
   19.1552   20.5389   25.3168 H   0  0  0  0  0  0  0  0  0  0  0  0
   20.1261   20.2194   26.7552 H   0  0  0  0  0  0  0  0  0  0  0  0
   21.8433   18.4112   25.7329 N   0  3  0  0  0  0  0  0  0  0  0  0
   21.3643   17.5627   26.0463 H   0  0  0  0  0  0  0  0  0  0  0  0
   22.6542   18.1200   25.1795 H   0  0  0  0  0  0  0  0  0  0  0  0
   22.1996   18.8863   26.5670 H   0  0  0  0  0  0  0  0  0  0  0  0
  1  2  1  0  0  0  0
  1  3  1  0  0  0  0
  1  4  1  0  0  0  0
  1  5  1  0  0  0  0
  5  6  1  0  0  0  0
  5  7  1  0  0  0  0
  5  8  1  0  0  0  0
  8  9  1  0  0  0  0
  8 10  1  0  0  0  0
  8 11  1  0  0  0  0
 11 12  1  0  0  0  0
 11 13  1  0  0  0  0
 11 14  1  0  0  0  0
 14 15  1  0  0  0  0
 14 16  1  0  0  0  0
 14 17  1  0  0  0  0
 17 18  1  0  0  0  0
 17 19  1  0  0  0  0
 19 20  1  0  0  0  0
 19 21  1  0  0  0  0
 19 22  1  0  0  0  0
 17 23  1  0  0  0  0
 23 24  1  0  0  0  0
 23 25  1  0  0  0  0
 23 26  1  0  0  0  0
M  END
> <VConfSearch Rank>
102

> <Conf_Id>
54

> <Delta U+W>
0.453

> <U+W>
-29.845

> <U>
23.817

> <W>
-53.663

> <W(PB)>
-56.021

> <W(SA)>
2.358

> <Valence>
3.277

> <Coulomb>
19.492

> <VdW>
1.049

> <VdW6>
-6.949

> <VdW12>
7.998

> <Bond>
0.183

> <Angle>
1.152

> <Pdih>
1.942

> <Idih>
0.000

> <Tether>
0.000

$$$$
VeraChem MOL file


 26 25  0  0  0  0  0  0  0  0999 V2000     
   18.6038   15.8927   24.1757 C   0  0  0  0  0  0  0  0  0  0  0  0
   19.6095   15.6266   24.5261 H   0  0  0  0  0  0  0  0  0  0  0  0
   18.1338   16.5323   24.9326 H   0  0  0  0  0  0  0  0  0  0  0  0
   18.0147   14.9685   24.1154 H   0  0  0  0  0  0  0  0  0  0  0  0
   18.6613   16.5869   22.7956 C   0  0  0  0  0  0  0  0  0  0  0  0
   17.6480   16.8743   22.4818 H   0  0  0  0  0  0  0  0  0  0  0  0
   19.0175   15.8594   22.0528 H   0  0  0  0  0  0  0  0  0  0  0  0
   19.5924   17.8233   22.7621 C   0  0  0  0  0  0  0  0  0  0  0  0
   20.5954   17.5349   23.1056 H   0  0  0  0  0  0  0  0  0  0  0  0
   19.6882   18.1338   21.7149 H   0  0  0  0  0  0  0  0  0  0  0  0
   19.0660   19.0140   23.6025 C   0  0  0  0  0  0  0  0  0  0  0  0
   18.8477   18.6708   24.6215 H   0  0  0  0  0  0  0  0  0  0  0  0
   18.1096   19.3597   23.1865 H   0  0  0  0  0  0  0  0  0  0  0  0
   20.0429   20.2143   23.7161 C   0  0  0  0  0  0  0  0  0  0  0  0
   19.5904   20.9309   24.4145 H   0  0  0  0  0  0  0  0  0  0  0  0
   20.9829   19.8943   24.1847 H   0  0  0  0  0  0  0  0  0  0  0  0
   20.3386   20.9428   22.3833 C   0  0  1  0  0  0  0  0  0  0  0  0
   19.4166   20.9742   21.7947 H   0  0  0  0  0  0  0  0  0  0  0  0
   20.7876   22.3890   22.6511 C   0  0  0  0  0  0  0  0  0  0  0  0
   20.9844   22.9158   21.7091 H   0  0  0  0  0  0  0  0  0  0  0  0
   21.7032   22.4148   23.2553 H   0  0  0  0  0  0  0  0  0  0  0  0
   20.0091   22.9476   23.1855 H   0  0  0  0  0  0  0  0  0  0  0  0
   21.3748   20.2381   21.5504 N   0  3  0  0  0  0  0  0  0  0  0  0
   21.1013   19.2743   21.3472 H   0  0  0  0  0  0  0  0  0  0  0  0
   21.5208   20.7131   20.6551 H   0  0  0  0  0  0  0  0  0  0  0  0
   22.2783   20.2068   22.0301 H   0  0  0  0  0  0  0  0  0  0  0  0
  1  2  1  0  0  0  0
  1  3  1  0  0  0  0
  1  4  1  0  0  0  0
  1  5  1  0  0  0  0
  5  6  1  0  0  0  0
  5  7  1  0  0  0  0
  5  8  1  0  0  0  0
  8  9  1  0  0  0  0
  8 10  1  0  0  0  0
  8 11  1  0  0  0  0
 11 12  1  0  0  0  0
 11 13  1  0  0  0  0
 11 14  1  0  0  0  0
 14 15  1  0  0  0  0
 14 16  1  0  0  0  0
 14 17  1  0  0  0  0
 17 18  1  0  0  0  0
 17 19  1  0  0  0  0
 19 20  1  0  0  0  0
 19 21  1  0  0  0  0
 19 22  1  0  0  0  0
 17 23  1  0  0  0  0
 23 24  1  0  0  0  0
 23 25  1  0  0  0  0
 23 26  1  0  0  0  0
M  END
> <VConfSearch Rank>
103

> <Conf_Id>
110

> <Delta U+W>
3.764

> <U+W>
-26.535

> <U>
27.400

> <W>
-53.935

> <W(PB)>
-56.238

> <W(SA)>
2.303

> <Valence>
5.205

> <Coulomb>
21.096

> <VdW>
1.098

> <VdW6>
-8.389

> <VdW12>
9.488

> <Bond>
0.270

> <Angle>
1.912

> <Pdih>
3.023

> <Idih>
0.000

> <Tether>
0.000

$$$$
VeraChem MOL file


 26 25  0  0  0  0  0  0  0  0999 V2000     
   21.9966   22.0218   22.1710 C   0  0  0  0  0  0  0  0  0  0  0  0
   23.0047   22.4528   22.1176 H   0  0  0  0  0  0  0  0  0  0  0  0
   21.7581   21.6176   21.1794 H   0  0  0  0  0  0  0  0  0  0  0  0
   21.2943   22.8369   22.3890 H   0  0  0  0  0  0  0  0  0  0  0  0
   21.9334   20.9274   23.2604 C   0  0  0  0  0  0  0  0  0  0  0  0
   22.2966   21.3495   24.2079 H   0  0  0  0  0  0  0  0  0  0  0  0
   22.6225   20.1107   23.0038 H   0  0  0  0  0  0  0  0  0  0  0  0
   20.5104   20.3604   23.4824 C   0  0  0  0  0  0  0  0  0  0  0  0
   20.5404   19.6811   24.3427 H   0  0  0  0  0  0  0  0  0  0  0  0
   19.8328   21.1776   23.7656 H   0  0  0  0  0  0  0  0  0  0  0  0
   19.9416   19.6232   22.2426 C   0  0  0  0  0  0  0  0  0  0  0  0
   20.6686   18.8924   21.8624 H   0  0  0  0  0  0  0  0  0  0  0  0
   19.7980   20.3560   21.4375 H   0  0  0  0  0  0  0  0  0  0  0  0
   18.5799   18.9294   22.5122 C   0  0  0  0  0  0  0  0  0  0  0  0
   18.0421   19.4455   23.3186 H   0  0  0  0  0  0  0  0  0  0  0  0
   17.9591   19.0499   21.6145 H   0  0  0  0  0  0  0  0  0  0  0  0
   18.6718   17.4140   22.8140 C   0  0  1  0  0  0  0  0  0  0  0  0
   19.1719   16.9294   21.9698 H   0  0  0  0  0  0  0  0  0  0  0  0
   19.4764   17.1060   24.0881 C   0  0  0  0  0  0  0  0  0  0  0  0
   19.0661   17.6372   24.9558 H   0  0  0  0  0  0  0  0  0  0  0  0
   20.5278   17.3923   23.9685 H   0  0  0  0  0  0  0  0  0  0  0  0
   19.4579   16.0313   24.3069 H   0  0  0  0  0  0  0  0  0  0  0  0
   17.3029   16.7981   22.9028 N   0  3  0  0  0  0  0  0  0  0  0  0
   16.7650   16.9482   22.0444 H   0  0  0  0  0  0  0  0  0  0  0  0
   17.3568   15.7870   23.0548 H   0  0  0  0  0  0  0  0  0  0  0  0
   16.7636   17.1946   23.6769 H   0  0  0  0  0  0  0  0  0  0  0  0
  1  2  1  0  0  0  0
  1  3  1  0  0  0  0
  1  4  1  0  0  0  0
  1  5  1  0  0  0  0
  5  6  1  0  0  0  0
  5  7  1  0  0  0  0
  5  8  1  0  0  0  0
  8  9  1  0  0  0  0
  8 10  1  0  0  0  0
  8 11  1  0  0  0  0
 11 12  1  0  0  0  0
 11 13  1  0  0  0  0
 11 14  1  0  0  0  0
 14 15  1  0  0  0  0
 14 16  1  0  0  0  0
 14 17  1  0  0  0  0
 17 18  1  0  0  0  0
 17 19  1  0  0  0  0
 19 20  1  0  0  0  0
 19 21  1  0  0  0  0
 19 22  1  0  0  0  0
 17 23  1  0  0  0  0
 23 24  1  0  0  0  0
 23 25  1  0  0  0  0
 23 26  1  0  0  0  0
M  END
> <VConfSearch Rank>
104

> <Conf_Id>
34

> <Delta U+W>
3.568

> <U+W>
-26.731

> <U>
27.221

> <W>
-53.952

> <W(PB)>
-56.213

> <W(SA)>
2.261

> <Valence>
6.368

> <Coulomb>
19.698

> <VdW>
1.155

> <VdW6>
-8.532

> <VdW12>
9.687

> <Bond>
0.272

> <Angle>
1.847

> <Pdih>
4.248

> <Idih>
0.000

> <Tether>
0.000

$$$$
VeraChem MOL file


 26 25  0  0  0  0  0  0  0  0999 V2000     
   17.0812   19.4631   19.9403 C   0  0  0  0  0  0  0  0  0  0  0  0
   16.2343   19.8183   20.5419 H   0  0  0  0  0  0  0  0  0  0  0  0
   17.5222   20.3274   19.4267 H   0  0  0  0  0  0  0  0  0  0  0  0
   16.6885   18.7808   19.1753 H   0  0  0  0  0  0  0  0  0  0  0  0
   18.1272   18.7489   20.8223 C   0  0  0  0  0  0  0  0  0  0  0  0
   18.9442   18.3756   20.1889 H   0  0  0  0  0  0  0  0  0  0  0  0
   17.6662   17.8705   21.2954 H   0  0  0  0  0  0  0  0  0  0  0  0
   18.6966   19.6881   21.9086 C   0  0  0  0  0  0  0  0  0  0  0  0
   19.1538   20.5654   21.4305 H   0  0  0  0  0  0  0  0  0  0  0  0
   17.8759   20.0604   22.5373 H   0  0  0  0  0  0  0  0  0  0  0  0
   19.7444   18.9765   22.7943 C   0  0  0  0  0  0  0  0  0  0  0  0
   20.5600   18.6057   22.1597 H   0  0  0  0  0  0  0  0  0  0  0  0
   19.2791   18.0995   23.2632 H   0  0  0  0  0  0  0  0  0  0  0  0
   20.3096   19.9240   23.8845 C   0  0  0  0  0  0  0  0  0  0  0  0
   20.7269   20.8185   23.4036 H   0  0  0  0  0  0  0  0  0  0  0  0
   19.4867   20.2788   24.5190 H   0  0  0  0  0  0  0  0  0  0  0  0
   21.4005   19.3014   24.7877 C   0  0  1  0  0  0  0  0  0  0  0  0
   21.7286   20.0795   25.4840 H   0  0  0  0  0  0  0  0  0  0  0  0
   20.8598   18.1280   25.6235 C   0  0  0  0  0  0  0  0  0  0  0  0
   20.5999   17.2679   24.9953 H   0  0  0  0  0  0  0  0  0  0  0  0
   19.9655   18.4279   26.1839 H   0  0  0  0  0  0  0  0  0  0  0  0
   21.6116   17.7966   26.3502 H   0  0  0  0  0  0  0  0  0  0  0  0
   22.6235   18.8930   24.0133 N   0  3  0  0  0  0  0  0  0  0  0  0
   23.3590   18.5420   24.6333 H   0  0  0  0  0  0  0  0  0  0  0  0
   22.4084   18.1515   23.3423 H   0  0  0  0  0  0  0  0  0  0  0  0
   23.0160   19.6798   23.4886 H   0  0  0  0  0  0  0  0  0  0  0  0
  1  2  1  0  0  0  0
  1  3  1  0  0  0  0
  1  4  1  0  0  0  0
  1  5  1  0  0  0  0
  5  6  1  0  0  0  0
  5  7  1  0  0  0  0
  5  8  1  0  0  0  0
  8  9  1  0  0  0  0
  8 10  1  0  0  0  0
  8 11  1  0  0  0  0
 11 12  1  0  0  0  0
 11 13  1  0  0  0  0
 11 14  1  0  0  0  0
 14 15  1  0  0  0  0
 14 16  1  0  0  0  0
 14 17  1  0  0  0  0
 17 18  1  0  0  0  0
 17 19  1  0  0  0  0
 19 20  1  0  0  0  0
 19 21  1  0  0  0  0
 19 22  1  0  0  0  0
 17 23  1  0  0  0  0
 23 24  1  0  0  0  0
 23 25  1  0  0  0  0
 23 26  1  0  0  0  0
M  END
> <VConfSearch Rank>
105

> <Conf_Id>
132

> <Delta U+W>
0.363

> <U+W>
-29.936

> <U>
24.060

> <W>
-53.996

> <W(PB)>
-56.327

> <W(SA)>
2.332

> <Valence>
3.249

> <Coulomb>
19.781

> <VdW>
1.030

> <VdW6>
-7.421

> <VdW12>
8.451

> <Bond>
0.207

> <Angle>
1.205

> <Pdih>
1.837

> <Idih>
0.000

> <Tether>
0.000

$$$$
VeraChem MOL file


 26 25  0  0  0  0  0  0  0  0999 V2000     
   20.2326   20.1913   26.7032 C   0  0  0  0  0  0  0  0  0  0  0  0
   21.1940   20.3807   27.1980 H   0  0  0  0  0  0  0  0  0  0  0  0
   19.5869   21.0617   26.8778 H   0  0  0  0  0  0  0  0  0  0  0  0
   19.7707   19.3204   27.1864 H   0  0  0  0  0  0  0  0  0  0  0  0
   20.4362   19.9444   25.1933 C   0  0  0  0  0  0  0  0  0  0  0  0
   21.1188   19.0947   25.0613 H   0  0  0  0  0  0  0  0  0  0  0  0
   20.9257   20.8199   24.7442 H   0  0  0  0  0  0  0  0  0  0  0  0
   19.0937   19.6702   24.4748 C   0  0  0  0  0  0  0  0  0  0  0  0
   18.6311   18.7628   24.8869 H   0  0  0  0  0  0  0  0  0  0  0  0
   18.4000   20.4944   24.6914 H   0  0  0  0  0  0  0  0  0  0  0  0
   19.2268   19.5341   22.9379 C   0  0  0  0  0  0  0  0  0  0  0  0
   19.6833   20.4470   22.5332 H   0  0  0  0  0  0  0  0  0  0  0  0
   18.2151   19.4795   22.5160 H   0  0  0  0  0  0  0  0  0  0  0  0
   20.0418   18.2870   22.4978 C   0  0  0  0  0  0  0  0  0  0  0  0
   21.0626   18.3561   22.8926 H   0  0  0  0  0  0  0  0  0  0  0  0
   19.6024   17.3875   22.9489 H   0  0  0  0  0  0  0  0  0  0  0  0
   20.1384   18.0797   20.9675 C   0  0  1  0  0  0  0  0  0  0  0  0
   20.7792   17.2087   20.7985 H   0  0  0  0  0  0  0  0  0  0  0  0
   18.7692   17.7763   20.3341 C   0  0  0  0  0  0  0  0  0  0  0  0
   18.1013   18.6448   20.3726 H   0  0  0  0  0  0  0  0  0  0  0  0
   18.2779   16.9409   20.8483 H   0  0  0  0  0  0  0  0  0  0  0  0
   18.8888   17.4936   19.2810 H   0  0  0  0  0  0  0  0  0  0  0  0
   20.8104   19.2323   20.2732 N   0  3  0  0  0  0  0  0  0  0  0  0
   21.7423   19.4109   20.6579 H   0  0  0  0  0  0  0  0  0  0  0  0
   20.9225   19.0518   19.2716 H   0  0  0  0  0  0  0  0  0  0  0  0
   20.2663   20.0929   20.3709 H   0  0  0  0  0  0  0  0  0  0  0  0
  1  2  1  0  0  0  0
  1  3  1  0  0  0  0
  1  4  1  0  0  0  0
  1  5  1  0  0  0  0
  5  6  1  0  0  0  0
  5  7  1  0  0  0  0
  5  8  1  0  0  0  0
  8  9  1  0  0  0  0
  8 10  1  0  0  0  0
  8 11  1  0  0  0  0
 11 12  1  0  0  0  0
 11 13  1  0  0  0  0
 11 14  1  0  0  0  0
 14 15  1  0  0  0  0
 14 16  1  0  0  0  0
 14 17  1  0  0  0  0
 17 18  1  0  0  0  0
 17 19  1  0  0  0  0
 19 20  1  0  0  0  0
 19 21  1  0  0  0  0
 19 22  1  0  0  0  0
 17 23  1  0  0  0  0
 23 24  1  0  0  0  0
 23 25  1  0  0  0  0
 23 26  1  0  0  0  0
M  END
> <VConfSearch Rank>
106

> <Conf_Id>
46

> <Delta U+W>
1.114

> <U+W>
-29.185

> <U>
24.990

> <W>
-54.175

> <W(PB)>
-56.455

> <W(SA)>
2.279

> <Valence>
3.862

> <Coulomb>
19.956

> <VdW>
1.172

> <VdW6>
-8.054

> <VdW12>
9.226

> <Bond>
0.258

> <Angle>
1.499

> <Pdih>
2.106

> <Idih>
0.000

> <Tether>
0.000

$$$$
VeraChem MOL file


 26 25  0  0  0  0  0  0  0  0999 V2000     
   20.0447   22.5166   21.5600 C   0  0  0  0  0  0  0  0  0  0  0  0
   21.0820   22.3721   21.8861 H   0  0  0  0  0  0  0  0  0  0  0  0
   19.9691   22.2148   20.5073 H   0  0  0  0  0  0  0  0  0  0  0  0
   19.8287   23.5913   21.6171 H   0  0  0  0  0  0  0  0  0  0  0  0
   19.0551   21.7191   22.4396 C   0  0  0  0  0  0  0  0  0  0  0  0
   18.0299   21.9964   22.1569 H   0  0  0  0  0  0  0  0  0  0  0  0
   19.1740   22.0147   23.4913 H   0  0  0  0  0  0  0  0  0  0  0  0
   19.2079   20.1846   22.3057 C   0  0  0  0  0  0  0  0  0  0  0  0
   18.3866   19.7119   22.8598 H   0  0  0  0  0  0  0  0  0  0  0  0
   19.0786   19.8945   21.2539 H   0  0  0  0  0  0  0  0  0  0  0  0
   20.5654   19.6524   22.8312 C   0  0  0  0  0  0  0  0  0  0  0  0
   20.7099   19.9659   23.8736 H   0  0  0  0  0  0  0  0  0  0  0  0
   21.3836   20.1101   22.2603 H   0  0  0  0  0  0  0  0  0  0  0  0
   20.7045   18.1125   22.7149 C   0  0  0  0  0  0  0  0  0  0  0  0
   20.6462   17.8321   21.6547 H   0  0  0  0  0  0  0  0  0  0  0  0
   21.7065   17.8182   23.0545 H   0  0  0  0  0  0  0  0  0  0  0  0
   19.6438   17.3140   23.5059 C   0  0  1  0  0  0  0  0  0  0  0  0
   18.6532   17.5982   23.1393 H   0  0  0  0  0  0  0  0  0  0  0  0
   19.8253   15.8060   23.2711 C   0  0  0  0  0  0  0  0  0  0  0  0
   19.0507   15.2351   23.7980 H   0  0  0  0  0  0  0  0  0  0  0  0
   20.8046   15.4632   23.6279 H   0  0  0  0  0  0  0  0  0  0  0  0
   19.7473   15.5658   22.2035 H   0  0  0  0  0  0  0  0  0  0  0  0
   19.6678   17.6281   24.9767 N   0  3  0  0  0  0  0  0  0  0  0  0
   19.5091   18.6250   25.1462 H   0  0  0  0  0  0  0  0  0  0  0  0
   18.9433   17.1108   25.4825 H   0  0  0  0  0  0  0  0  0  0  0  0
   20.5687   17.3832   25.3957 H   0  0  0  0  0  0  0  0  0  0  0  0
  1  2  1  0  0  0  0
  1  3  1  0  0  0  0
  1  4  1  0  0  0  0
  1  5  1  0  0  0  0
  5  6  1  0  0  0  0
  5  7  1  0  0  0  0
  5  8  1  0  0  0  0
  8  9  1  0  0  0  0
  8 10  1  0  0  0  0
  8 11  1  0  0  0  0
 11 12  1  0  0  0  0
 11 13  1  0  0  0  0
 11 14  1  0  0  0  0
 14 15  1  0  0  0  0
 14 16  1  0  0  0  0
 14 17  1  0  0  0  0
 17 18  1  0  0  0  0
 17 19  1  0  0  0  0
 19 20  1  0  0  0  0
 19 21  1  0  0  0  0
 19 22  1  0  0  0  0
 17 23  1  0  0  0  0
 23 24  1  0  0  0  0
 23 25  1  0  0  0  0
 23 26  1  0  0  0  0
M  END
> <VConfSearch Rank>
107

> <Conf_Id>
113

> <Delta U+W>
1.137

> <U+W>
-29.162

> <U>
24.833

> <W>
-53.995

> <W(PB)>
-56.288

> <W(SA)>
2.294

> <Valence>
3.589

> <Coulomb>
20.270

> <VdW>
0.974

> <VdW6>
-8.255

> <VdW12>
9.229

> <Bond>
0.244

> <Angle>
1.377

> <Pdih>
1.967

> <Idih>
0.000

> <Tether>
0.000

$$$$
VeraChem MOL file


 26 25  0  0  0  0  0  0  0  0999 V2000     
   22.6566   16.5724   22.0370 C   0  0  0  0  0  0  0  0  0  0  0  0
   23.4877   16.7780   21.3500 H   0  0  0  0  0  0  0  0  0  0  0  0
   23.0776   16.4210   23.0395 H   0  0  0  0  0  0  0  0  0  0  0  0
   22.1821   15.6345   21.7201 H   0  0  0  0  0  0  0  0  0  0  0  0
   21.6437   17.7370   22.0311 C   0  0  0  0  0  0  0  0  0  0  0  0
   21.2628   17.8829   21.0107 H   0  0  0  0  0  0  0  0  0  0  0  0
   22.1639   18.6621   22.3126 H   0  0  0  0  0  0  0  0  0  0  0  0
   20.4643   17.4714   22.9964 C   0  0  0  0  0  0  0  0  0  0  0  0
   20.0104   16.5025   22.7464 H   0  0  0  0  0  0  0  0  0  0  0  0
   20.8407   17.3786   24.0245 H   0  0  0  0  0  0  0  0  0  0  0  0
   19.3619   18.5576   22.9424 C   0  0  0  0  0  0  0  0  0  0  0  0
   18.5219   18.2223   23.5645 H   0  0  0  0  0  0  0  0  0  0  0  0
   18.9790   18.6286   21.9157 H   0  0  0  0  0  0  0  0  0  0  0  0
   19.8459   19.9506   23.4303 C   0  0  0  0  0  0  0  0  0  0  0  0
   20.3240   19.8435   24.4128 H   0  0  0  0  0  0  0  0  0  0  0  0
   20.6224   20.3298   22.7544 H   0  0  0  0  0  0  0  0  0  0  0  0
   18.7352   21.0219   23.5402 C   0  0  1  0  0  0  0  0  0  0  0  0
   19.2061   21.9421   23.8998 H   0  0  0  0  0  0  0  0  0  0  0  0
   18.0931   21.3300   22.1762 C   0  0  0  0  0  0  0  0  0  0  0  0
   17.5213   20.4755   21.7952 H   0  0  0  0  0  0  0  0  0  0  0  0
   18.8587   21.5899   21.4347 H   0  0  0  0  0  0  0  0  0  0  0  0
   17.4073   22.1820   22.2588 H   0  0  0  0  0  0  0  0  0  0  0  0
   17.6892   20.6644   24.5603 N   0  3  0  0  0  0  0  0  0  0  0  0
   18.1040   20.4994   25.4817 H   0  0  0  0  0  0  0  0  0  0  0  0
   16.9984   21.4129   24.6658 H   0  0  0  0  0  0  0  0  0  0  0  0
   17.1836   19.8163   24.2934 H   0  0  0  0  0  0  0  0  0  0  0  0
  1  2  1  0  0  0  0
  1  3  1  0  0  0  0
  1  4  1  0  0  0  0
  1  5  1  0  0  0  0
  5  6  1  0  0  0  0
  5  7  1  0  0  0  0
  5  8  1  0  0  0  0
  8  9  1  0  0  0  0
  8 10  1  0  0  0  0
  8 11  1  0  0  0  0
 11 12  1  0  0  0  0
 11 13  1  0  0  0  0
 11 14  1  0  0  0  0
 14 15  1  0  0  0  0
 14 16  1  0  0  0  0
 14 17  1  0  0  0  0
 17 18  1  0  0  0  0
 17 19  1  0  0  0  0
 19 20  1  0  0  0  0
 19 21  1  0  0  0  0
 19 22  1  0  0  0  0
 17 23  1  0  0  0  0
 23 24  1  0  0  0  0
 23 25  1  0  0  0  0
 23 26  1  0  0  0  0
M  END
> <VConfSearch Rank>
108

> <Conf_Id>
45

> <Delta U+W>
1.035

> <U+W>
-29.264

> <U>
24.725

> <W>
-53.989

> <W(PB)>
-56.298

> <W(SA)>
2.309

> <Valence>
3.780

> <Coulomb>
19.804

> <VdW>
1.141

> <VdW6>
-8.104

> <VdW12>
9.246

> <Bond>
0.254

> <Angle>
1.437

> <Pdih>
2.089

> <Idih>
0.000

> <Tether>
0.000

$$$$
VeraChem MOL file


 26 25  0  0  0  0  0  0  0  0999 V2000     
   21.7264   21.4370   20.3324 C   0  0  0  0  0  0  0  0  0  0  0  0
   21.5171   22.5049   20.1875 H   0  0  0  0  0  0  0  0  0  0  0  0
   22.8149   21.3143   20.4049 H   0  0  0  0  0  0  0  0  0  0  0  0
   21.3807   20.9015   19.4385 H   0  0  0  0  0  0  0  0  0  0  0  0
   21.0221   20.9108   21.6010 C   0  0  0  0  0  0  0  0  0  0  0  0
   19.9428   21.0893   21.5076 H   0  0  0  0  0  0  0  0  0  0  0  0
   21.3664   21.4845   22.4728 H   0  0  0  0  0  0  0  0  0  0  0  0
   21.2993   19.4050   21.8233 C   0  0  0  0  0  0  0  0  0  0  0  0
   20.9040   18.8263   20.9770 H   0  0  0  0  0  0  0  0  0  0  0  0
   22.3858   19.2407   21.8273 H   0  0  0  0  0  0  0  0  0  0  0  0
   20.7166   18.8530   23.1478 C   0  0  0  0  0  0  0  0  0  0  0  0
   21.1144   19.4316   23.9931 H   0  0  0  0  0  0  0  0  0  0  0  0
   21.0828   17.8260   23.2768 H   0  0  0  0  0  0  0  0  0  0  0  0
   19.1667   18.8598   23.1929 C   0  0  0  0  0  0  0  0  0  0  0  0
   18.8052   19.8901   23.0877 H   0  0  0  0  0  0  0  0  0  0  0  0
   18.7675   18.2973   22.3385 H   0  0  0  0  0  0  0  0  0  0  0  0
   18.5999   18.2787   24.5068 C   0  0  1  0  0  0  0  0  0  0  0  0
   19.0392   18.8308   25.3434 H   0  0  0  0  0  0  0  0  0  0  0  0
   17.0744   18.4607   24.5571 C   0  0  0  0  0  0  0  0  0  0  0  0
   16.5832   17.9241   23.7357 H   0  0  0  0  0  0  0  0  0  0  0  0
   16.8052   19.5216   24.4813 H   0  0  0  0  0  0  0  0  0  0  0  0
   16.6690   18.0819   25.5035 H   0  0  0  0  0  0  0  0  0  0  0  0
   18.9633   16.8320   24.7036 N   0  3  0  0  0  0  0  0  0  0  0  0
   19.9779   16.6994   24.7205 H   0  0  0  0  0  0  0  0  0  0  0  0
   18.5932   16.4702   25.5871 H   0  0  0  0  0  0  0  0  0  0  0  0
   18.5882   16.2472   23.9521 H   0  0  0  0  0  0  0  0  0  0  0  0
  1  2  1  0  0  0  0
  1  3  1  0  0  0  0
  1  4  1  0  0  0  0
  1  5  1  0  0  0  0
  5  6  1  0  0  0  0
  5  7  1  0  0  0  0
  5  8  1  0  0  0  0
  8  9  1  0  0  0  0
  8 10  1  0  0  0  0
  8 11  1  0  0  0  0
 11 12  1  0  0  0  0
 11 13  1  0  0  0  0
 11 14  1  0  0  0  0
 14 15  1  0  0  0  0
 14 16  1  0  0  0  0
 14 17  1  0  0  0  0
 17 18  1  0  0  0  0
 17 19  1  0  0  0  0
 19 20  1  0  0  0  0
 19 21  1  0  0  0  0
 19 22  1  0  0  0  0
 17 23  1  0  0  0  0
 23 24  1  0  0  0  0
 23 25  1  0  0  0  0
 23 26  1  0  0  0  0
M  END
> <VConfSearch Rank>
109

> <Conf_Id>
121

> <Delta U+W>
0.736

> <U+W>
-29.562

> <U>
24.282

> <W>
-53.844

> <W(PB)>
-56.205

> <W(SA)>
2.361

> <Valence>
3.311

> <Coulomb>
19.887

> <VdW>
1.083

> <VdW6>
-7.444

> <VdW12>
8.527

> <Bond>
0.219

> <Angle>
1.167

> <Pdih>
1.926

> <Idih>
0.000

> <Tether>
0.000

$$$$
VeraChem MOL file


 26 25  0  0  0  0  0  0  0  0999 V2000     
   20.6284   21.6468   25.5365 C   0  0  0  0  0  0  0  0  0  0  0  0
   21.2803   22.0265   26.3338 H   0  0  0  0  0  0  0  0  0  0  0  0
   20.2346   22.5106   24.9854 H   0  0  0  0  0  0  0  0  0  0  0  0
   19.7873   21.1320   26.0168 H   0  0  0  0  0  0  0  0  0  0  0  0
   21.4148   20.7014   24.6000 C   0  0  0  0  0  0  0  0  0  0  0  0
   21.7688   19.8291   25.1671 H   0  0  0  0  0  0  0  0  0  0  0  0
   22.3149   21.2238   24.2467 H   0  0  0  0  0  0  0  0  0  0  0  0
   20.6002   20.2316   23.3706 C   0  0  0  0  0  0  0  0  0  0  0  0
   20.2559   21.1070   22.8028 H   0  0  0  0  0  0  0  0  0  0  0  0
   21.2769   19.6781   22.7065 H   0  0  0  0  0  0  0  0  0  0  0  0
   19.3890   19.3375   23.7389 C   0  0  0  0  0  0  0  0  0  0  0  0
   18.7054   19.8970   24.3904 H   0  0  0  0  0  0  0  0  0  0  0  0
   19.7279   18.4746   24.3270 H   0  0  0  0  0  0  0  0  0  0  0  0
   18.5844   18.8579   22.5027 C   0  0  0  0  0  0  0  0  0  0  0  0
   17.7313   18.2571   22.8447 H   0  0  0  0  0  0  0  0  0  0  0  0
   18.1562   19.7383   22.0057 H   0  0  0  0  0  0  0  0  0  0  0  0
   19.3933   18.0465   21.4629 C   0  0  1  0  0  0  0  0  0  0  0  0
   20.2318   18.6603   21.1214 H   0  0  0  0  0  0  0  0  0  0  0  0
   19.9546   16.7419   22.0560 C   0  0  0  0  0  0  0  0  0  0  0  0
   19.1528   16.1149   22.4655 H   0  0  0  0  0  0  0  0  0  0  0  0
   20.6743   16.9467   22.8571 H   0  0  0  0  0  0  0  0  0  0  0  0
   20.4808   16.1627   21.2873 H   0  0  0  0  0  0  0  0  0  0  0  0
   18.5650   17.7510   20.2433 N   0  3  0  0  0  0  0  0  0  0  0  0
   18.2159   18.6092   19.8071 H   0  0  0  0  0  0  0  0  0  0  0  0
   19.1076   17.2488   19.5349 H   0  0  0  0  0  0  0  0  0  0  0  0
   17.7536   17.1712   20.4734 H   0  0  0  0  0  0  0  0  0  0  0  0
  1  2  1  0  0  0  0
  1  3  1  0  0  0  0
  1  4  1  0  0  0  0
  1  5  1  0  0  0  0
  5  6  1  0  0  0  0
  5  7  1  0  0  0  0
  5  8  1  0  0  0  0
  8  9  1  0  0  0  0
  8 10  1  0  0  0  0
  8 11  1  0  0  0  0
 11 12  1  0  0  0  0
 11 13  1  0  0  0  0
 11 14  1  0  0  0  0
 14 15  1  0  0  0  0
 14 16  1  0  0  0  0
 14 17  1  0  0  0  0
 17 18  1  0  0  0  0
 17 19  1  0  0  0  0
 19 20  1  0  0  0  0
 19 21  1  0  0  0  0
 19 22  1  0  0  0  0
 17 23  1  0  0  0  0
 23 24  1  0  0  0  0
 23 25  1  0  0  0  0
 23 26  1  0  0  0  0
M  END
> <VConfSearch Rank>
110

> <Conf_Id>
5

> <Delta U+W>
1.233

> <U+W>
-29.065

> <U>
25.023

> <W>
-54.088

> <W(PB)>
-56.383

> <W(SA)>
2.296

> <Valence>
4.083

> <Coulomb>
19.893

> <VdW>
1.047

> <VdW6>
-8.479

> <VdW12>
9.527

> <Bond>
0.256

> <Angle>
1.716

> <Pdih>
2.112

> <Idih>
0.000

> <Tether>
0.000

$$$$
VeraChem MOL file


 26 25  0  0  0  0  0  0  0  0999 V2000     
   20.0910   18.0347   26.4446 C   0  0  0  0  0  0  0  0  0  0  0  0
   20.3036   17.2872   27.2198 H   0  0  0  0  0  0  0  0  0  0  0  0
   20.9237   18.7487   26.4398 H   0  0  0  0  0  0  0  0  0  0  0  0
   19.1789   18.5710   26.7372 H   0  0  0  0  0  0  0  0  0  0  0  0
   19.9174   17.3517   25.0689 C   0  0  0  0  0  0  0  0  0  0  0  0
   19.1623   16.5587   25.1628 H   0  0  0  0  0  0  0  0  0  0  0  0
   20.8534   16.8519   24.7826 H   0  0  0  0  0  0  0  0  0  0  0  0
   19.4773   18.3234   23.9471 C   0  0  0  0  0  0  0  0  0  0  0  0
   19.2466   17.7258   23.0557 H   0  0  0  0  0  0  0  0  0  0  0  0
   18.5443   18.8237   24.2409 H   0  0  0  0  0  0  0  0  0  0  0  0
   20.5512   19.3815   23.5908 C   0  0  0  0  0  0  0  0  0  0  0  0
   21.4716   18.8743   23.2701 H   0  0  0  0  0  0  0  0  0  0  0  0
   20.8131   19.9558   24.4887 H   0  0  0  0  0  0  0  0  0  0  0  0
   20.1099   20.3850   22.4951 C   0  0  0  0  0  0  0  0  0  0  0  0
   19.2405   20.9603   22.8406 H   0  0  0  0  0  0  0  0  0  0  0  0
   20.9191   21.1176   22.3756 H   0  0  0  0  0  0  0  0  0  0  0  0
   19.8140   19.7260   21.1259 C   0  0  1  0  0  0  0  0  0  0  0  0
   20.2739   18.7330   21.1186 H   0  0  0  0  0  0  0  0  0  0  0  0
   18.3009   19.5711   20.8869 C   0  0  0  0  0  0  0  0  0  0  0  0
   17.8076   20.5497   20.8328 H   0  0  0  0  0  0  0  0  0  0  0  0
   17.8237   18.9979   21.6895 H   0  0  0  0  0  0  0  0  0  0  0  0
   18.1108   19.0432   19.9443 H   0  0  0  0  0  0  0  0  0  0  0  0
   20.4407   20.4856   19.9887 N   0  3  0  0  0  0  0  0  0  0  0  0
   21.4559   20.5612   20.1005 H   0  0  0  0  0  0  0  0  0  0  0  0
   20.2672   20.0252   19.0907 H   0  0  0  0  0  0  0  0  0  0  0  0
   20.0664   21.4359   19.9218 H   0  0  0  0  0  0  0  0  0  0  0  0
  1  2  1  0  0  0  0
  1  3  1  0  0  0  0
  1  4  1  0  0  0  0
  1  5  1  0  0  0  0
  5  6  1  0  0  0  0
  5  7  1  0  0  0  0
  5  8  1  0  0  0  0
  8  9  1  0  0  0  0
  8 10  1  0  0  0  0
  8 11  1  0  0  0  0
 11 12  1  0  0  0  0
 11 13  1  0  0  0  0
 11 14  1  0  0  0  0
 14 15  1  0  0  0  0
 14 16  1  0  0  0  0
 14 17  1  0  0  0  0
 17 18  1  0  0  0  0
 17 19  1  0  0  0  0
 19 20  1  0  0  0  0
 19 21  1  0  0  0  0
 19 22  1  0  0  0  0
 17 23  1  0  0  0  0
 23 24  1  0  0  0  0
 23 25  1  0  0  0  0
 23 26  1  0  0  0  0
M  END
> <VConfSearch Rank>
111

> <Conf_Id>
100

> <Delta U+W>
3.818

> <U+W>
-26.481

> <U>
27.496

> <W>
-53.977

> <W(PB)>
-56.267

> <W(SA)>
2.290

> <Valence>
6.472

> <Coulomb>
19.839

> <VdW>
1.185

> <VdW6>
-8.405

> <VdW12>
9.590

> <Bond>
0.248

> <Angle>
1.619

> <Pdih>
4.604

> <Idih>
0.000

> <Tether>
0.000

$$$$
VeraChem MOL file


 26 25  0  0  0  0  0  0  0  0999 V2000     
   21.9228   17.9481   20.0668 C   0  0  0  0  0  0  0  0  0  0  0  0
   22.7976   18.2675   19.4856 H   0  0  0  0  0  0  0  0  0  0  0  0
   22.2487   17.1644   20.7631 H   0  0  0  0  0  0  0  0  0  0  0  0
   21.1982   17.5068   19.3699 H   0  0  0  0  0  0  0  0  0  0  0  0
   21.3064   19.1429   20.8250 C   0  0  0  0  0  0  0  0  0  0  0  0
   21.0226   19.9238   20.1055 H   0  0  0  0  0  0  0  0  0  0  0  0
   22.0640   19.5832   21.4883 H   0  0  0  0  0  0  0  0  0  0  0  0
   20.0717   18.7205   21.6515 C   0  0  0  0  0  0  0  0  0  0  0  0
   19.3196   18.2808   20.9819 H   0  0  0  0  0  0  0  0  0  0  0  0
   20.3630   17.9319   22.3552 H   0  0  0  0  0  0  0  0  0  0  0  0
   19.4489   19.9202   22.4071 C   0  0  0  0  0  0  0  0  0  0  0  0
   19.1516   20.6722   21.6631 H   0  0  0  0  0  0  0  0  0  0  0  0
   20.2048   20.4048   23.0384 H   0  0  0  0  0  0  0  0  0  0  0  0
   18.1950   19.5428   23.2448 C   0  0  0  0  0  0  0  0  0  0  0  0
   17.4858   20.3798   23.1991 H   0  0  0  0  0  0  0  0  0  0  0  0
   17.6735   18.6974   22.7770 H   0  0  0  0  0  0  0  0  0  0  0  0
   18.4445   19.2284   24.7410 C   0  0  1  0  0  0  0  0  0  0  0  0
   17.4753   18.9737   25.1809 H   0  0  0  0  0  0  0  0  0  0  0  0
   19.3773   18.0251   24.9531 C   0  0  0  0  0  0  0  0  0  0  0  0
   20.4050   18.2546   24.6473 H   0  0  0  0  0  0  0  0  0  0  0  0
   19.0286   17.1552   24.3830 H   0  0  0  0  0  0  0  0  0  0  0  0
   19.4004   17.7409   26.0122 H   0  0  0  0  0  0  0  0  0  0  0  0
   18.9388   20.4289   25.5010 N   0  3  0  0  0  0  0  0  0  0  0  0
   18.2957   21.2207   25.4123 H   0  0  0  0  0  0  0  0  0  0  0  0
   19.0359   20.2250   26.4997 H   0  0  0  0  0  0  0  0  0  0  0  0
   19.8531   20.7354   25.1603 H   0  0  0  0  0  0  0  0  0  0  0  0
  1  2  1  0  0  0  0
  1  3  1  0  0  0  0
  1  4  1  0  0  0  0
  1  5  1  0  0  0  0
  5  6  1  0  0  0  0
  5  7  1  0  0  0  0
  5  8  1  0  0  0  0
  8  9  1  0  0  0  0
  8 10  1  0  0  0  0
  8 11  1  0  0  0  0
 11 12  1  0  0  0  0
 11 13  1  0  0  0  0
 11 14  1  0  0  0  0
 14 15  1  0  0  0  0
 14 16  1  0  0  0  0
 14 17  1  0  0  0  0
 17 18  1  0  0  0  0
 17 19  1  0  0  0  0
 19 20  1  0  0  0  0
 19 21  1  0  0  0  0
 19 22  1  0  0  0  0
 17 23  1  0  0  0  0
 23 24  1  0  0  0  0
 23 25  1  0  0  0  0
 23 26  1  0  0  0  0
M  END
> <VConfSearch Rank>
112

> <Conf_Id>
142

> <Delta U+W>
2.978

> <U+W>
-27.320

> <U>
26.848

> <W>
-54.168

> <W(PB)>
-56.427

> <W(SA)>
2.259

> <Valence>
5.823

> <Coulomb>
20.057

> <VdW>
0.968

> <VdW6>
-8.367

> <VdW12>
9.335

> <Bond>
0.267

> <Angle>
1.799

> <Pdih>
3.758

> <Idih>
0.000

> <Tether>
0.000

$$$$
VeraChem MOL file


 26 25  0  0  0  0  0  0  0  0999 V2000     
   20.0217   20.7800   25.9932 C   0  0  0  0  0  0  0  0  0  0  0  0
   19.3136   21.5668   25.7024 H   0  0  0  0  0  0  0  0  0  0  0  0
   20.0634   20.7554   27.0898 H   0  0  0  0  0  0  0  0  0  0  0  0
   21.0182   21.0636   25.6333 H   0  0  0  0  0  0  0  0  0  0  0  0
   19.5837   19.4050   25.4389 C   0  0  0  0  0  0  0  0  0  0  0  0
   18.6458   19.1117   25.9311 H   0  0  0  0  0  0  0  0  0  0  0  0
   20.3253   18.6414   25.7120 H   0  0  0  0  0  0  0  0  0  0  0  0
   19.3611   19.3968   23.9069 C   0  0  0  0  0  0  0  0  0  0  0  0
   18.9072   18.4341   23.6451 H   0  0  0  0  0  0  0  0  0  0  0  0
   18.6352   20.1766   23.6383 H   0  0  0  0  0  0  0  0  0  0  0  0
   20.6662   19.5869   23.0934 C   0  0  0  0  0  0  0  0  0  0  0  0
   21.3634   18.7687   23.3177 H   0  0  0  0  0  0  0  0  0  0  0  0
   21.1681   20.5035   23.4276 H   0  0  0  0  0  0  0  0  0  0  0  0
   20.4623   19.7083   21.5565 C   0  0  0  0  0  0  0  0  0  0  0  0
   19.8621   20.6017   21.3401 H   0  0  0  0  0  0  0  0  0  0  0  0
   21.4445   19.9027   21.1058 H   0  0  0  0  0  0  0  0  0  0  0  0
   19.8437   18.4950   20.8157 C   0  0  1  0  0  0  0  0  0  0  0  0
   19.9978   18.6683   19.7461 H   0  0  0  0  0  0  0  0  0  0  0  0
   20.5416   17.1701   21.1692 C   0  0  0  0  0  0  0  0  0  0  0  0
   20.3546   16.8786   22.2096 H   0  0  0  0  0  0  0  0  0  0  0  0
   21.6259   17.2514   21.0239 H   0  0  0  0  0  0  0  0  0  0  0  0
   20.1791   16.3608   20.5237 H   0  0  0  0  0  0  0  0  0  0  0  0
   18.3528   18.3933   20.9868 N   0  3  0  0  0  0  0  0  0  0  0  0
   17.8818   19.2502   20.6830 H   0  0  0  0  0  0  0  0  0  0  0  0
   17.9658   17.6215   20.4363 H   0  0  0  0  0  0  0  0  0  0  0  0
   18.0994   18.2324   21.9635 H   0  0  0  0  0  0  0  0  0  0  0  0
  1  2  1  0  0  0  0
  1  3  1  0  0  0  0
  1  4  1  0  0  0  0
  1  5  1  0  0  0  0
  5  6  1  0  0  0  0
  5  7  1  0  0  0  0
  5  8  1  0  0  0  0
  8  9  1  0  0  0  0
  8 10  1  0  0  0  0
  8 11  1  0  0  0  0
 11 12  1  0  0  0  0
 11 13  1  0  0  0  0
 11 14  1  0  0  0  0
 14 15  1  0  0  0  0
 14 16  1  0  0  0  0
 14 17  1  0  0  0  0
 17 18  1  0  0  0  0
 17 19  1  0  0  0  0
 19 20  1  0  0  0  0
 19 21  1  0  0  0  0
 19 22  1  0  0  0  0
 17 23  1  0  0  0  0
 23 24  1  0  0  0  0
 23 25  1  0  0  0  0
 23 26  1  0  0  0  0
M  END
> <VConfSearch Rank>
113

> <Conf_Id>
119

> <Delta U+W>
3.538

> <U+W>
-26.761

> <U>
27.482

> <W>
-54.243

> <W(PB)>
-56.494

> <W(SA)>
2.251

> <Valence>
5.284

> <Coulomb>
21.247

> <VdW>
0.951

> <VdW6>
-9.416

> <VdW12>
10.367

> <Bond>
0.323

> <Angle>
2.522

> <Pdih>
2.439

> <Idih>
0.000

> <Tether>
0.000

$$$$
VeraChem MOL file


 26 25  0  0  0  0  0  0  0  0999 V2000     
   16.5471   17.9807   22.4177 C   0  0  0  0  0  0  0  0  0  0  0  0
   16.1340   17.9594   23.4345 H   0  0  0  0  0  0  0  0  0  0  0  0
   16.5550   19.0215   22.0708 H   0  0  0  0  0  0  0  0  0  0  0  0
   15.8635   17.4214   21.7659 H   0  0  0  0  0  0  0  0  0  0  0  0
   17.9613   17.3585   22.3791 C   0  0  0  0  0  0  0  0  0  0  0  0
   18.3643   17.4203   21.3585 H   0  0  0  0  0  0  0  0  0  0  0  0
   17.8833   16.2878   22.6141 H   0  0  0  0  0  0  0  0  0  0  0  0
   18.9508   18.0139   23.3726 C   0  0  0  0  0  0  0  0  0  0  0  0
   18.5545   17.9248   24.3935 H   0  0  0  0  0  0  0  0  0  0  0  0
   19.8835   17.4378   23.3582 H   0  0  0  0  0  0  0  0  0  0  0  0
   19.2420   19.5040   23.0583 C   0  0  0  0  0  0  0  0  0  0  0  0
   18.3143   20.0749   23.1960 H   0  0  0  0  0  0  0  0  0  0  0  0
   19.5155   19.6219   22.0020 H   0  0  0  0  0  0  0  0  0  0  0  0
   20.3281   20.1276   23.9791 C   0  0  0  0  0  0  0  0  0  0  0  0
   20.0441   21.1664   24.1928 H   0  0  0  0  0  0  0  0  0  0  0  0
   20.3269   19.6220   24.9538 H   0  0  0  0  0  0  0  0  0  0  0  0
   21.7694   20.1483   23.4118 C   0  0  1  0  0  0  0  0  0  0  0  0
   22.4084   20.6041   24.1745 H   0  0  0  0  0  0  0  0  0  0  0  0
   22.3211   18.7417   23.1283 C   0  0  0  0  0  0  0  0  0  0  0  0
   21.7944   18.2639   22.2936 H   0  0  0  0  0  0  0  0  0  0  0  0
   22.2278   18.1004   24.0134 H   0  0  0  0  0  0  0  0  0  0  0  0
   23.3850   18.7931   22.8663 H   0  0  0  0  0  0  0  0  0  0  0  0
   21.8904   21.0255   22.1956 N   0  3  0  0  0  0  0  0  0  0  0  0
   21.5768   21.9809   22.3888 H   0  0  0  0  0  0  0  0  0  0  0  0
   22.8596   21.0823   21.8704 H   0  0  0  0  0  0  0  0  0  0  0  0
   21.3273   20.6677   21.4204 H   0  0  0  0  0  0  0  0  0  0  0  0
  1  2  1  0  0  0  0
  1  3  1  0  0  0  0
  1  4  1  0  0  0  0
  1  5  1  0  0  0  0
  5  6  1  0  0  0  0
  5  7  1  0  0  0  0
  5  8  1  0  0  0  0
  8  9  1  0  0  0  0
  8 10  1  0  0  0  0
  8 11  1  0  0  0  0
 11 12  1  0  0  0  0
 11 13  1  0  0  0  0
 11 14  1  0  0  0  0
 14 15  1  0  0  0  0
 14 16  1  0  0  0  0
 14 17  1  0  0  0  0
 17 18  1  0  0  0  0
 17 19  1  0  0  0  0
 19 20  1  0  0  0  0
 19 21  1  0  0  0  0
 19 22  1  0  0  0  0
 17 23  1  0  0  0  0
 23 24  1  0  0  0  0
 23 25  1  0  0  0  0
 23 26  1  0  0  0  0
M  END
> <VConfSearch Rank>
114

> <Conf_Id>
127

> <Delta U+W>
3.544

> <U+W>
-26.754

> <U>
27.509

> <W>
-54.263

> <W(PB)>
-56.496

> <W(SA)>
2.232

> <Valence>
6.375

> <Coulomb>
20.014

> <VdW>
1.120

> <VdW6>
-8.976

> <VdW12>
10.096

> <Bond>
0.304

> <Angle>
1.986

> <Pdih>
4.086

> <Idih>
0.000

> <Tether>
0.000

$$$$
VeraChem MOL file


 26 25  0  0  0  0  0  0  0  0999 V2000     
   22.7096   18.0312   23.8677 C   0  0  0  0  0  0  0  0  0  0  0  0
   23.2402   17.0709   23.8326 H   0  0  0  0  0  0  0  0  0  0  0  0
   23.3513   18.7465   24.3985 H   0  0  0  0  0  0  0  0  0  0  0  0
   21.8016   17.8871   24.4635 H   0  0  0  0  0  0  0  0  0  0  0  0
   22.3957   18.5283   22.4373 C   0  0  0  0  0  0  0  0  0  0  0  0
   21.8165   17.7727   21.8884 H   0  0  0  0  0  0  0  0  0  0  0  0
   23.3480   18.6288   21.8978 H   0  0  0  0  0  0  0  0  0  0  0  0
   21.6648   19.8954   22.4077 C   0  0  0  0  0  0  0  0  0  0  0  0
   21.9372   20.4915   23.2896 H   0  0  0  0  0  0  0  0  0  0  0  0
   22.0362   20.4622   21.5427 H   0  0  0  0  0  0  0  0  0  0  0  0
   20.1220   19.8076   22.2793 C   0  0  0  0  0  0  0  0  0  0  0  0
   19.8698   19.3017   21.3379 H   0  0  0  0  0  0  0  0  0  0  0  0
   19.7364   20.8312   22.1915 H   0  0  0  0  0  0  0  0  0  0  0  0
   19.4263   19.0877   23.4653 C   0  0  0  0  0  0  0  0  0  0  0  0
   19.7436   18.0381   23.4854 H   0  0  0  0  0  0  0  0  0  0  0  0
   19.7639   19.5310   24.4113 H   0  0  0  0  0  0  0  0  0  0  0  0
   17.8798   19.1114   23.4260 C   0  0  1  0  0  0  0  0  0  0  0  0
   17.5255   18.5079   24.2675 H   0  0  0  0  0  0  0  0  0  0  0  0
   17.3151   20.5315   23.6069 C   0  0  0  0  0  0  0  0  0  0  0  0
   17.7274   21.0036   24.5072 H   0  0  0  0  0  0  0  0  0  0  0  0
   16.2246   20.4981   23.7196 H   0  0  0  0  0  0  0  0  0  0  0  0
   17.5419   21.1731   22.7474 H   0  0  0  0  0  0  0  0  0  0  0  0
   17.3261   18.4641   22.1864 N   0  3  0  0  0  0  0  0  0  0  0  0
   17.6594   17.5013   22.0845 H   0  0  0  0  0  0  0  0  0  0  0  0
   16.3029   18.4332   22.2055 H   0  0  0  0  0  0  0  0  0  0  0  0
   17.6021   18.9767   21.3453 H   0  0  0  0  0  0  0  0  0  0  0  0
  1  2  1  0  0  0  0
  1  3  1  0  0  0  0
  1  4  1  0  0  0  0
  1  5  1  0  0  0  0
  5  6  1  0  0  0  0
  5  7  1  0  0  0  0
  5  8  1  0  0  0  0
  8  9  1  0  0  0  0
  8 10  1  0  0  0  0
  8 11  1  0  0  0  0
 11 12  1  0  0  0  0
 11 13  1  0  0  0  0
 11 14  1  0  0  0  0
 14 15  1  0  0  0  0
 14 16  1  0  0  0  0
 14 17  1  0  0  0  0
 17 18  1  0  0  0  0
 17 19  1  0  0  0  0
 19 20  1  0  0  0  0
 19 21  1  0  0  0  0
 19 22  1  0  0  0  0
 17 23  1  0  0  0  0
 23 24  1  0  0  0  0
 23 25  1  0  0  0  0
 23 26  1  0  0  0  0
M  END
> <VConfSearch Rank>
115

> <Conf_Id>
131

> <Delta U+W>
3.589

> <U+W>
-26.710

> <U>
27.573

> <W>
-54.283

> <W(PB)>
-56.537

> <W(SA)>
2.254

> <Valence>
6.363

> <Coulomb>
20.026

> <VdW>
1.184

> <VdW6>
-8.939

> <VdW12>
10.123

> <Bond>
0.298

> <Angle>
2.018

> <Pdih>
4.047

> <Idih>
0.000

> <Tether>
0.000

$$$$
VeraChem MOL file


 26 25  0  0  0  0  0  0  0  0999 V2000     
   18.9353   18.0418   20.4932 C   0  0  0  0  0  0  0  0  0  0  0  0
   19.3056   18.9859   20.0730 H   0  0  0  0  0  0  0  0  0  0  0  0
   19.7068   17.6241   21.1515 H   0  0  0  0  0  0  0  0  0  0  0  0
   18.7965   17.3364   19.6637 H   0  0  0  0  0  0  0  0  0  0  0  0
   17.6061   18.2518   21.2505 C   0  0  0  0  0  0  0  0  0  0  0  0
   17.3011   17.3058   21.7195 H   0  0  0  0  0  0  0  0  0  0  0  0
   16.8206   18.4967   20.5219 H   0  0  0  0  0  0  0  0  0  0  0  0
   17.6494   19.3723   22.3208 C   0  0  0  0  0  0  0  0  0  0  0  0
   17.8434   20.3425   21.8432 H   0  0  0  0  0  0  0  0  0  0  0  0
   16.6429   19.4529   22.7544 H   0  0  0  0  0  0  0  0  0  0  0  0
   18.6546   19.1278   23.4767 C   0  0  0  0  0  0  0  0  0  0  0  0
   18.7663   18.0486   23.6422 H   0  0  0  0  0  0  0  0  0  0  0  0
   18.2248   19.5356   24.4022 H   0  0  0  0  0  0  0  0  0  0  0  0
   20.0325   19.8038   23.2481 C   0  0  0  0  0  0  0  0  0  0  0  0
   20.5115   19.4117   22.3441 H   0  0  0  0  0  0  0  0  0  0  0  0
   19.8663   20.8739   23.0673 H   0  0  0  0  0  0  0  0  0  0  0  0
   21.0000   19.6574   24.4445 C   0  0  1  0  0  0  0  0  0  0  0  0
   20.4861   20.0039   25.3465 H   0  0  0  0  0  0  0  0  0  0  0  0
   21.4357   18.1969   24.6609 C   0  0  0  0  0  0  0  0  0  0  0  0
   21.9023   17.7840   23.7579 H   0  0  0  0  0  0  0  0  0  0  0  0
   20.5842   17.5612   24.9289 H   0  0  0  0  0  0  0  0  0  0  0  0
   22.1615   18.1278   25.4805 H   0  0  0  0  0  0  0  0  0  0  0  0
   22.2062   20.5399   24.2786 N   0  3  0  0  0  0  0  0  0  0  0  0
   22.7498   20.2797   23.4514 H   0  0  0  0  0  0  0  0  0  0  0  0
   21.9425   21.5241   24.1765 H   0  0  0  0  0  0  0  0  0  0  0  0
   22.8310   20.4751   25.0872 H   0  0  0  0  0  0  0  0  0  0  0  0
  1  2  1  0  0  0  0
  1  3  1  0  0  0  0
  1  4  1  0  0  0  0
  1  5  1  0  0  0  0
  5  6  1  0  0  0  0
  5  7  1  0  0  0  0
  5  8  1  0  0  0  0
  8  9  1  0  0  0  0
  8 10  1  0  0  0  0
  8 11  1  0  0  0  0
 11 12  1  0  0  0  0
 11 13  1  0  0  0  0
 11 14  1  0  0  0  0
 14 15  1  0  0  0  0
 14 16  1  0  0  0  0
 14 17  1  0  0  0  0
 17 18  1  0  0  0  0
 17 19  1  0  0  0  0
 19 20  1  0  0  0  0
 19 21  1  0  0  0  0
 19 22  1  0  0  0  0
 17 23  1  0  0  0  0
 23 24  1  0  0  0  0
 23 25  1  0  0  0  0
 23 26  1  0  0  0  0
M  END
> <VConfSearch Rank>
116

> <Conf_Id>
80

> <Delta U+W>
3.351

> <U+W>
-26.948

> <U>
27.261

> <W>
-54.209

> <W(PB)>
-56.471

> <W(SA)>
2.263

> <Valence>
6.230

> <Coulomb>
19.945

> <VdW>
1.087

> <VdW6>
-8.618

> <VdW12>
9.704

> <Bond>
0.277

> <Angle>
1.928

> <Pdih>
4.025

> <Idih>
0.000

> <Tether>
0.000

$$$$
VeraChem MOL file


 26 25  0  0  0  0  0  0  0  0999 V2000     
   17.1794   18.1752   21.2533 C   0  0  0  0  0  0  0  0  0  0  0  0
   16.4223   18.6903   20.6480 H   0  0  0  0  0  0  0  0  0  0  0  0
   17.1078   17.1011   21.0386 H   0  0  0  0  0  0  0  0  0  0  0  0
   16.9222   18.3345   22.3080 H   0  0  0  0  0  0  0  0  0  0  0  0
   18.5906   18.7144   20.9281 C   0  0  0  0  0  0  0  0  0  0  0  0
   18.6446   19.7822   21.1762 H   0  0  0  0  0  0  0  0  0  0  0  0
   18.7486   18.6543   19.8422 H   0  0  0  0  0  0  0  0  0  0  0  0
   19.7320   17.9355   21.6324 C   0  0  0  0  0  0  0  0  0  0  0  0
   19.7442   16.9099   21.2386 H   0  0  0  0  0  0  0  0  0  0  0  0
   20.6903   18.3741   21.3318 H   0  0  0  0  0  0  0  0  0  0  0  0
   19.6392   17.8576   23.1827 C   0  0  0  0  0  0  0  0  0  0  0  0
   20.4498   17.2211   23.5633 H   0  0  0  0  0  0  0  0  0  0  0  0
   18.7151   17.3271   23.4474 H   0  0  0  0  0  0  0  0  0  0  0  0
   19.6600   19.2193   23.9325 C   0  0  0  0  0  0  0  0  0  0  0  0
   19.1826   20.0053   23.3368 H   0  0  0  0  0  0  0  0  0  0  0  0
   19.0323   19.1098   24.8267 H   0  0  0  0  0  0  0  0  0  0  0  0
   21.0559   19.6884   24.4091 C   0  0  1  0  0  0  0  0  0  0  0  0
   21.4754   18.9101   25.0541 H   0  0  0  0  0  0  0  0  0  0  0  0
   22.0370   19.9297   23.2501 C   0  0  0  0  0  0  0  0  0  0  0  0
   22.3091   18.9855   22.7654 H   0  0  0  0  0  0  0  0  0  0  0  0
   22.9675   20.3799   23.6171 H   0  0  0  0  0  0  0  0  0  0  0  0
   21.6068   20.6011   22.4966 H   0  0  0  0  0  0  0  0  0  0  0  0
   20.9446   20.9238   25.2592 N   0  3  0  0  0  0  0  0  0  0  0  0
   20.3329   20.7729   26.0664 H   0  0  0  0  0  0  0  0  0  0  0  0
   21.8582   21.2129   25.6201 H   0  0  0  0  0  0  0  0  0  0  0  0
   20.5638   21.7108   24.7273 H   0  0  0  0  0  0  0  0  0  0  0  0
  1  2  1  0  0  0  0
  1  3  1  0  0  0  0
  1  4  1  0  0  0  0
  1  5  1  0  0  0  0
  5  6  1  0  0  0  0
  5  7  1  0  0  0  0
  5  8  1  0  0  0  0
  8  9  1  0  0  0  0
  8 10  1  0  0  0  0
  8 11  1  0  0  0  0
 11 12  1  0  0  0  0
 11 13  1  0  0  0  0
 11 14  1  0  0  0  0
 14 15  1  0  0  0  0
 14 16  1  0  0  0  0
 14 17  1  0  0  0  0
 17 18  1  0  0  0  0
 17 19  1  0  0  0  0
 19 20  1  0  0  0  0
 19 21  1  0  0  0  0
 19 22  1  0  0  0  0
 17 23  1  0  0  0  0
 23 24  1  0  0  0  0
 23 25  1  0  0  0  0
 23 26  1  0  0  0  0
M  END
> <VConfSearch Rank>
117

> <Conf_Id>
136

> <Delta U+W>
4.272

> <U+W>
-26.026

> <U>
28.262

> <W>
-54.288

> <W(PB)>
-56.488

> <W(SA)>
2.200

> <Valence>
7.096

> <Coulomb>
19.990

> <VdW>
1.175

> <VdW6>
-9.404

> <VdW12>
10.580

> <Bond>
0.360

> <Angle>
2.785

> <Pdih>
3.951

> <Idih>
0.000

> <Tether>
0.000

$$$$
VeraChem MOL file


 26 25  0  0  0  0  0  0  0  0999 V2000     
   19.7033   18.3187   25.8295 C   0  0  0  0  0  0  0  0  0  0  0  0
   19.3006   19.2733   25.4689 H   0  0  0  0  0  0  0  0  0  0  0  0
   19.4160   18.2196   26.8842 H   0  0  0  0  0  0  0  0  0  0  0  0
   20.7991   18.3603   25.7825 H   0  0  0  0  0  0  0  0  0  0  0  0
   19.1549   17.1319   25.0075 C   0  0  0  0  0  0  0  0  0  0  0  0
   18.0563   17.1511   25.0284 H   0  0  0  0  0  0  0  0  0  0  0  0
   19.4518   16.1954   25.5000 H   0  0  0  0  0  0  0  0  0  0  0  0
   19.6456   17.0914   23.5376 C   0  0  0  0  0  0  0  0  0  0  0  0
   20.7371   16.9695   23.5067 H   0  0  0  0  0  0  0  0  0  0  0  0
   19.2336   16.1827   23.0771 H   0  0  0  0  0  0  0  0  0  0  0  0
   19.2143   18.3076   22.6772 C   0  0  0  0  0  0  0  0  0  0  0  0
   18.2714   18.7225   23.0596 H   0  0  0  0  0  0  0  0  0  0  0  0
   19.0007   17.9484   21.6617 H   0  0  0  0  0  0  0  0  0  0  0  0
   20.2973   19.4147   22.5938 C   0  0  0  0  0  0  0  0  0  0  0  0
   20.6011   19.7123   23.6037 H   0  0  0  0  0  0  0  0  0  0  0  0
   21.1967   19.0136   22.1081 H   0  0  0  0  0  0  0  0  0  0  0  0
   19.8157   20.6697   21.8340 C   0  0  1  0  0  0  0  0  0  0  0  0
   18.9064   21.0364   22.3204 H   0  0  0  0  0  0  0  0  0  0  0  0
   20.8793   21.7773   21.9029 C   0  0  0  0  0  0  0  0  0  0  0  0
   21.8149   21.4596   21.4259 H   0  0  0  0  0  0  0  0  0  0  0  0
   21.0996   22.0424   22.9445 H   0  0  0  0  0  0  0  0  0  0  0  0
   20.5283   22.6848   21.3962 H   0  0  0  0  0  0  0  0  0  0  0  0
   19.4530   20.3748   20.4040 N   0  3  0  0  0  0  0  0  0  0  0  0
   20.2579   20.0219   19.8799 H   0  0  0  0  0  0  0  0  0  0  0  0
   18.7126   19.6708   20.3436 H   0  0  0  0  0  0  0  0  0  0  0  0
   19.1174   21.2137   19.9224 H   0  0  0  0  0  0  0  0  0  0  0  0
  1  2  1  0  0  0  0
  1  3  1  0  0  0  0
  1  4  1  0  0  0  0
  1  5  1  0  0  0  0
  5  6  1  0  0  0  0
  5  7  1  0  0  0  0
  5  8  1  0  0  0  0
  8  9  1  0  0  0  0
  8 10  1  0  0  0  0
  8 11  1  0  0  0  0
 11 12  1  0  0  0  0
 11 13  1  0  0  0  0
 11 14  1  0  0  0  0
 14 15  1  0  0  0  0
 14 16  1  0  0  0  0
 14 17  1  0  0  0  0
 17 18  1  0  0  0  0
 17 19  1  0  0  0  0
 19 20  1  0  0  0  0
 19 21  1  0  0  0  0
 19 22  1  0  0  0  0
 17 23  1  0  0  0  0
 23 24  1  0  0  0  0
 23 25  1  0  0  0  0
 23 26  1  0  0  0  0
M  END
> <VConfSearch Rank>
118

> <Conf_Id>
124

> <Delta U+W>
3.001

> <U+W>
-27.298

> <U>
26.787

> <W>
-54.085

> <W(PB)>
-56.347

> <W(SA)>
2.262

> <Valence>
5.742

> <Coulomb>
20.023

> <VdW>
1.022

> <VdW6>
-8.392

> <VdW12>
9.414

> <Bond>
0.261

> <Angle>
1.576

> <Pdih>
3.904

> <Idih>
0.000

> <Tether>
0.000

$$$$
VeraChem MOL file


 26 25  0  0  0  0  0  0  0  0999 V2000     
   17.5373   21.3436   23.4414 C   0  0  0  0  0  0  0  0  0  0  0  0
   17.7346   22.0309   24.2743 H   0  0  0  0  0  0  0  0  0  0  0  0
   16.5461   21.5868   23.0374 H   0  0  0  0  0  0  0  0  0  0  0  0
   17.4893   20.3273   23.8470 H   0  0  0  0  0  0  0  0  0  0  0  0
   18.6174   21.4833   22.3433 C   0  0  0  0  0  0  0  0  0  0  0  0
   18.5839   22.5151   21.9661 H   0  0  0  0  0  0  0  0  0  0  0  0
   18.3756   20.8405   21.4855 H   0  0  0  0  0  0  0  0  0  0  0  0
   20.0534   21.1901   22.8494 C   0  0  0  0  0  0  0  0  0  0  0  0
   20.7443   21.8630   22.3228 H   0  0  0  0  0  0  0  0  0  0  0  0
   20.1424   21.4497   23.9133 H   0  0  0  0  0  0  0  0  0  0  0  0
   20.5450   19.7390   22.6105 C   0  0  0  0  0  0  0  0  0  0  0  0
   21.5931   19.6807   22.9313 H   0  0  0  0  0  0  0  0  0  0  0  0
   20.5420   19.5355   21.5314 H   0  0  0  0  0  0  0  0  0  0  0  0
   19.7151   18.6573   23.3515 C   0  0  0  0  0  0  0  0  0  0  0  0
   19.5972   18.9474   24.4037 H   0  0  0  0  0  0  0  0  0  0  0  0
   18.7050   18.6201   22.9254 H   0  0  0  0  0  0  0  0  0  0  0  0
   20.3119   17.2310   23.2986 C   0  0  1  0  0  0  0  0  0  0  0  0
   19.6325   16.5739   23.8504 H   0  0  0  0  0  0  0  0  0  0  0  0
   20.4077   16.6983   21.8583 C   0  0  0  0  0  0  0  0  0  0  0  0
   21.1440   17.2568   21.2680 H   0  0  0  0  0  0  0  0  0  0  0  0
   19.4370   16.7672   21.3518 H   0  0  0  0  0  0  0  0  0  0  0  0
   20.7087   15.6435   21.8584 H   0  0  0  0  0  0  0  0  0  0  0  0
   21.6402   17.1364   23.9981 N   0  3  0  0  0  0  0  0  0  0  0  0
   21.9894   16.1740   24.0093 H   0  0  0  0  0  0  0  0  0  0  0  0
   22.3466   17.7133   23.5353 H   0  0  0  0  0  0  0  0  0  0  0  0
   21.5755   17.4492   24.9710 H   0  0  0  0  0  0  0  0  0  0  0  0
  1  2  1  0  0  0  0
  1  3  1  0  0  0  0
  1  4  1  0  0  0  0
  1  5  1  0  0  0  0
  5  6  1  0  0  0  0
  5  7  1  0  0  0  0
  5  8  1  0  0  0  0
  8  9  1  0  0  0  0
  8 10  1  0  0  0  0
  8 11  1  0  0  0  0
 11 12  1  0  0  0  0
 11 13  1  0  0  0  0
 11 14  1  0  0  0  0
 14 15  1  0  0  0  0
 14 16  1  0  0  0  0
 14 17  1  0  0  0  0
 17 18  1  0  0  0  0
 17 19  1  0  0  0  0
 19 20  1  0  0  0  0
 19 21  1  0  0  0  0
 19 22  1  0  0  0  0
 17 23  1  0  0  0  0
 23 24  1  0  0  0  0
 23 25  1  0  0  0  0
 23 26  1  0  0  0  0
M  END
> <VConfSearch Rank>
119

> <Conf_Id>
105

> <Delta U+W>
3.442

> <U+W>
-26.857

> <U>
27.313

> <W>
-54.169

> <W(PB)>
-56.414

> <W(SA)>
2.245

> <Valence>
6.229

> <Coulomb>
19.943

> <VdW>
1.140

> <VdW6>
-9.001

> <VdW12>
10.140

> <Bond>
0.294

> <Angle>
1.969

> <Pdih>
3.967

> <Idih>
0.000

> <Tether>
0.000

$$$$
VeraChem MOL file


 26 25  0  0  0  0  0  0  0  0999 V2000     
   21.8697   20.8532   21.5738 C   0  0  0  0  0  0  0  0  0  0  0  0
   21.5033   21.5398   20.7996 H   0  0  0  0  0  0  0  0  0  0  0  0
   22.9668   20.8770   21.5471 H   0  0  0  0  0  0  0  0  0  0  0  0
   21.5541   19.8399   21.3027 H   0  0  0  0  0  0  0  0  0  0  0  0
   21.3542   21.2711   22.9708 C   0  0  0  0  0  0  0  0  0  0  0  0
   21.7385   22.2783   23.1849 H   0  0  0  0  0  0  0  0  0  0  0  0
   21.7764   20.6160   23.7455 H   0  0  0  0  0  0  0  0  0  0  0  0
   19.8075   21.3020   23.0750 C   0  0  0  0  0  0  0  0  0  0  0  0
   19.5275   22.1245   23.7477 H   0  0  0  0  0  0  0  0  0  0  0  0
   19.3657   21.5540   22.1011 H   0  0  0  0  0  0  0  0  0  0  0  0
   19.1663   20.0054   23.6336 C   0  0  0  0  0  0  0  0  0  0  0  0
   18.0846   20.1725   23.7326 H   0  0  0  0  0  0  0  0  0  0  0  0
   19.5447   19.8280   24.6491 H   0  0  0  0  0  0  0  0  0  0  0  0
   19.4022   18.7503   22.7578 C   0  0  0  0  0  0  0  0  0  0  0  0
   19.1552   18.9912   21.7153 H   0  0  0  0  0  0  0  0  0  0  0  0
   20.4636   18.4737   22.7811 H   0  0  0  0  0  0  0  0  0  0  0  0
   18.5541   17.5400   23.2043 C   0  0  1  0  0  0  0  0  0  0  0  0
   17.5007   17.8366   23.1927 H   0  0  0  0  0  0  0  0  0  0  0  0
   18.7364   16.3693   22.2251 C   0  0  0  0  0  0  0  0  0  0  0  0
   19.7798   16.0305   22.2008 H   0  0  0  0  0  0  0  0  0  0  0  0
   18.4490   16.6635   21.2080 H   0  0  0  0  0  0  0  0  0  0  0  0
   18.1075   15.5187   22.5155 H   0  0  0  0  0  0  0  0  0  0  0  0
   18.8662   17.1065   24.6107 N   0  3  0  0  0  0  0  0  0  0  0  0
   18.7083   17.8652   25.2792 H   0  0  0  0  0  0  0  0  0  0  0  0
   18.2795   16.3181   24.8982 H   0  0  0  0  0  0  0  0  0  0  0  0
   19.8419   16.8121   24.7029 H   0  0  0  0  0  0  0  0  0  0  0  0
  1  2  1  0  0  0  0
  1  3  1  0  0  0  0
  1  4  1  0  0  0  0
  1  5  1  0  0  0  0
  5  6  1  0  0  0  0
  5  7  1  0  0  0  0
  5  8  1  0  0  0  0
  8  9  1  0  0  0  0
  8 10  1  0  0  0  0
  8 11  1  0  0  0  0
 11 12  1  0  0  0  0
 11 13  1  0  0  0  0
 11 14  1  0  0  0  0
 14 15  1  0  0  0  0
 14 16  1  0  0  0  0
 14 17  1  0  0  0  0
 17 18  1  0  0  0  0
 17 19  1  0  0  0  0
 19 20  1  0  0  0  0
 19 21  1  0  0  0  0
 19 22  1  0  0  0  0
 17 23  1  0  0  0  0
 23 24  1  0  0  0  0
 23 25  1  0  0  0  0
 23 26  1  0  0  0  0
M  END
> <VConfSearch Rank>
120

> <Conf_Id>
107

> <Delta U+W>
2.995

> <U+W>
-27.304

> <U>
26.796

> <W>
-54.100

> <W(PB)>
-56.404

> <W(SA)>
2.304

> <Valence>
5.706

> <Coulomb>
20.107

> <VdW>
0.982

> <VdW6>
-8.396

> <VdW12>
9.378

> <Bond>
0.254

> <Angle>
1.644

> <Pdih>
3.808

> <Idih>
0.000

> <Tether>
0.000

$$$$
VeraChem MOL file


 26 25  0  0  0  0  0  0  0  0999 V2000     
   23.0738   17.0135   21.3353 C   0  0  0  0  0  0  0  0  0  0  0  0
   23.4593   17.8128   20.6890 H   0  0  0  0  0  0  0  0  0  0  0  0
   23.9310   16.4350   21.7034 H   0  0  0  0  0  0  0  0  0  0  0  0
   22.4552   16.3459   20.7214 H   0  0  0  0  0  0  0  0  0  0  0  0
   22.2626   17.5948   22.5127 C   0  0  0  0  0  0  0  0  0  0  0  0
   22.9159   18.2304   23.1268 H   0  0  0  0  0  0  0  0  0  0  0  0
   21.9197   16.7746   23.1590 H   0  0  0  0  0  0  0  0  0  0  0  0
   21.0489   18.4146   22.0216 C   0  0  0  0  0  0  0  0  0  0  0  0
   21.3971   19.2308   21.3735 H   0  0  0  0  0  0  0  0  0  0  0  0
   20.3999   17.7756   21.4069 H   0  0  0  0  0  0  0  0  0  0  0  0
   20.2344   18.9991   23.1979 C   0  0  0  0  0  0  0  0  0  0  0  0
   20.8838   19.6407   23.8097 H   0  0  0  0  0  0  0  0  0  0  0  0
   19.8961   18.1780   23.8438 H   0  0  0  0  0  0  0  0  0  0  0  0
   19.0181   19.8189   22.7025 C   0  0  0  0  0  0  0  0  0  0  0  0
   19.3724   20.5994   22.0159 H   0  0  0  0  0  0  0  0  0  0  0  0
   18.3459   19.1727   22.1224 H   0  0  0  0  0  0  0  0  0  0  0  0
   18.2327   20.4868   23.8521 C   0  0  1  0  0  0  0  0  0  0  0  0
   18.9280   21.1052   24.4283 H   0  0  0  0  0  0  0  0  0  0  0  0
   17.1309   21.3980   23.2877 C   0  0  0  0  0  0  0  0  0  0  0  0
   16.4031   20.8241   22.7004 H   0  0  0  0  0  0  0  0  0  0  0  0
   17.5593   22.1719   22.6387 H   0  0  0  0  0  0  0  0  0  0  0  0
   16.5927   21.9044   24.0984 H   0  0  0  0  0  0  0  0  0  0  0  0
   17.6488   19.4843   24.8099 N   0  3  0  0  0  0  0  0  0  0  0  0
   16.9851   18.8624   24.3409 H   0  0  0  0  0  0  0  0  0  0  0  0
   18.3764   18.8995   25.2293 H   0  0  0  0  0  0  0  0  0  0  0  0
   17.1484   19.9454   25.5751 H   0  0  0  0  0  0  0  0  0  0  0  0
  1  2  1  0  0  0  0
  1  3  1  0  0  0  0
  1  4  1  0  0  0  0
  1  5  1  0  0  0  0
  5  6  1  0  0  0  0
  5  7  1  0  0  0  0
  5  8  1  0  0  0  0
  8  9  1  0  0  0  0
  8 10  1  0  0  0  0
  8 11  1  0  0  0  0
 11 12  1  0  0  0  0
 11 13  1  0  0  0  0
 11 14  1  0  0  0  0
 14 15  1  0  0  0  0
 14 16  1  0  0  0  0
 14 17  1  0  0  0  0
 17 18  1  0  0  0  0
 17 19  1  0  0  0  0
 19 20  1  0  0  0  0
 19 21  1  0  0  0  0
 19 22  1  0  0  0  0
 17 23  1  0  0  0  0
 23 24  1  0  0  0  0
 23 25  1  0  0  0  0
 23 26  1  0  0  0  0
M  END
> <VConfSearch Rank>
121

> <Conf_Id>
122

> <Delta U+W>
0.000

> <U+W>
-30.299

> <U>
23.517

> <W>
-53.816

> <W(PB)>
-56.162

> <W(SA)>
2.346

> <Valence>
2.737

> <Coulomb>
19.862

> <VdW>
0.919

> <VdW6>
-6.793

> <VdW12>
7.712

> <Bond>
0.171

> <Angle>
0.873

> <Pdih>
1.693

> <Idih>
0.000

> <Tether>
0.000

$$$$
VeraChem MOL file


 26 25  0  0  0  0  0  0  0  0999 V2000     
   21.2299   22.9025   21.7403 C   0  0  0  0  0  0  0  0  0  0  0  0
   20.9585   23.9570   21.8799 H   0  0  0  0  0  0  0  0  0  0  0  0
   22.2681   22.7749   22.0733 H   0  0  0  0  0  0  0  0  0  0  0  0
   21.1860   22.6828   20.6655 H   0  0  0  0  0  0  0  0  0  0  0  0
   20.2759   21.9846   22.5336 C   0  0  0  0  0  0  0  0  0  0  0  0
   19.2426   22.1594   22.2023 H   0  0  0  0  0  0  0  0  0  0  0  0
   20.3164   22.2506   23.5992 H   0  0  0  0  0  0  0  0  0  0  0  0
   20.6362   20.4932   22.3542 C   0  0  0  0  0  0  0  0  0  0  0  0
   20.5961   20.2325   21.2875 H   0  0  0  0  0  0  0  0  0  0  0  0
   21.6709   20.3250   22.6838 H   0  0  0  0  0  0  0  0  0  0  0  0
   19.6832   19.5706   23.1477 C   0  0  0  0  0  0  0  0  0  0  0  0
   18.6524   19.7531   22.8167 H   0  0  0  0  0  0  0  0  0  0  0  0
   19.7274   19.8288   24.2149 H   0  0  0  0  0  0  0  0  0  0  0  0
   20.0442   18.0761   22.9623 C   0  0  0  0  0  0  0  0  0  0  0  0
   19.9378   17.7977   21.9054 H   0  0  0  0  0  0  0  0  0  0  0  0
   21.1040   17.9389   23.2149 H   0  0  0  0  0  0  0  0  0  0  0  0
   19.2051   17.1187   23.8393 C   0  0  1  0  0  0  0  0  0  0  0  0
   19.2937   17.4416   24.8812 H   0  0  0  0  0  0  0  0  0  0  0  0
   17.7156   17.1305   23.4506 C   0  0  0  0  0  0  0  0  0  0  0  0
   17.5795   16.8743   22.3926 H   0  0  0  0  0  0  0  0  0  0  0  0
   17.2647   18.1137   23.6274 H   0  0  0  0  0  0  0  0  0  0  0  0
   17.1541   16.4043   24.0512 H   0  0  0  0  0  0  0  0  0  0  0  0
   19.7462   15.7170   23.7826 N   0  3  0  0  0  0  0  0  0  0  0  0
   19.6976   15.3348   22.8344 H   0  0  0  0  0  0  0  0  0  0  0  0
   20.7253   15.6780   24.0801 H   0  0  0  0  0  0  0  0  0  0  0  0
   19.2180   15.0870   24.3930 H   0  0  0  0  0  0  0  0  0  0  0  0
  1  2  1  0  0  0  0
  1  3  1  0  0  0  0
  1  4  1  0  0  0  0
  1  5  1  0  0  0  0
  5  6  1  0  0  0  0
  5  7  1  0  0  0  0
  5  8  1  0  0  0  0
  8  9  1  0  0  0  0
  8 10  1  0  0  0  0
  8 11  1  0  0  0  0
 11 12  1  0  0  0  0
 11 13  1  0  0  0  0
 11 14  1  0  0  0  0
 14 15  1  0  0  0  0
 14 16  1  0  0  0  0
 14 17  1  0  0  0  0
 17 18  1  0  0  0  0
 17 19  1  0  0  0  0
 19 20  1  0  0  0  0
 19 21  1  0  0  0  0
 19 22  1  0  0  0  0
 17 23  1  0  0  0  0
 23 24  1  0  0  0  0
 23 25  1  0  0  0  0
 23 26  1  0  0  0  0
M  END
> <VConfSearch Rank>
122

> <Conf_Id>
54

> <Delta U+W>
0.453

> <U+W>
-29.845

> <U>
23.817

> <W>
-53.663

> <W(PB)>
-56.021

> <W(SA)>
2.358

> <Valence>
3.277

> <Coulomb>
19.492

> <VdW>
1.049

> <VdW6>
-6.949

> <VdW12>
7.998

> <Bond>
0.183

> <Angle>
1.152

> <Pdih>
1.942

> <Idih>
0.000

> <Tether>
0.000

$$$$
VeraChem MOL file


 26 25  0  0  0  0  0  0  0  0999 V2000     
   18.1219   15.9551   23.6359 C   0  0  0  0  0  0  0  0  0  0  0  0
   18.6468   15.8616   24.5954 H   0  0  0  0  0  0  0  0  0  0  0  0
   17.2662   16.6268   23.7758 H   0  0  0  0  0  0  0  0  0  0  0  0
   17.7235   14.9662   23.3745 H   0  0  0  0  0  0  0  0  0  0  0  0
   19.0734   16.4634   22.5286 C   0  0  0  0  0  0  0  0  0  0  0  0
   18.5185   16.5817   21.5874 H   0  0  0  0  0  0  0  0  0  0  0  0
   19.8348   15.6933   22.3410 H   0  0  0  0  0  0  0  0  0  0  0  0
   19.7892   17.7886   22.8868 C   0  0  0  0  0  0  0  0  0  0  0  0
   20.3167   17.6721   23.8436 H   0  0  0  0  0  0  0  0  0  0  0  0
   20.5513   17.9680   22.1193 H   0  0  0  0  0  0  0  0  0  0  0  0
   18.8335   19.0067   22.9531 C   0  0  0  0  0  0  0  0  0  0  0  0
   17.9982   18.7765   23.6262 H   0  0  0  0  0  0  0  0  0  0  0  0
   18.3887   19.1757   21.9628 H   0  0  0  0  0  0  0  0  0  0  0  0
   19.4867   20.3212   23.4563 C   0  0  0  0  0  0  0  0  0  0  0  0
   18.6824   21.0631   23.5505 H   0  0  0  0  0  0  0  0  0  0  0  0
   19.8845   20.1824   24.4703 H   0  0  0  0  0  0  0  0  0  0  0  0
   20.5857   20.8985   22.5325 C   0  0  1  0  0  0  0  0  0  0  0  0
   20.2820   20.7399   21.4932 H   0  0  0  0  0  0  0  0  0  0  0  0
   20.7395   22.4112   22.7629 C   0  0  0  0  0  0  0  0  0  0  0  0
   21.5070   22.8294   22.1000 H   0  0  0  0  0  0  0  0  0  0  0  0
   21.0278   22.6274   23.7993 H   0  0  0  0  0  0  0  0  0  0  0  0
   19.7995   22.9364   22.5526 H   0  0  0  0  0  0  0  0  0  0  0  0
   21.9170   20.2217   22.7157 N   0  3  0  0  0  0  0  0  0  0  0  0
   21.8500   19.2135   22.5605 H   0  0  0  0  0  0  0  0  0  0  0  0
   22.6158   20.5889   22.0635 H   0  0  0  0  0  0  0  0  0  0  0  0
   22.2787   20.3639   23.6624 H   0  0  0  0  0  0  0  0  0  0  0  0
  1  2  1  0  0  0  0
  1  3  1  0  0  0  0
  1  4  1  0  0  0  0
  1  5  1  0  0  0  0
  5  6  1  0  0  0  0
  5  7  1  0  0  0  0
  5  8  1  0  0  0  0
  8  9  1  0  0  0  0
  8 10  1  0  0  0  0
  8 11  1  0  0  0  0
 11 12  1  0  0  0  0
 11 13  1  0  0  0  0
 11 14  1  0  0  0  0
 14 15  1  0  0  0  0
 14 16  1  0  0  0  0
 14 17  1  0  0  0  0
 17 18  1  0  0  0  0
 17 19  1  0  0  0  0
 19 20  1  0  0  0  0
 19 21  1  0  0  0  0
 19 22  1  0  0  0  0
 17 23  1  0  0  0  0
 23 24  1  0  0  0  0
 23 25  1  0  0  0  0
 23 26  1  0  0  0  0
M  END
> <VConfSearch Rank>
123

> <Conf_Id>
110

> <Delta U+W>
3.764

> <U+W>
-26.535

> <U>
27.400

> <W>
-53.935

> <W(PB)>
-56.238

> <W(SA)>
2.303

> <Valence>
5.205

> <Coulomb>
21.096

> <VdW>
1.098

> <VdW6>
-8.389

> <VdW12>
9.488

> <Bond>
0.270

> <Angle>
1.912

> <Pdih>
3.023

> <Idih>
0.000

> <Tether>
0.000

$$$$
VeraChem MOL file


 26 25  0  0  0  0  0  0  0  0999 V2000     
   19.7872   16.8207   20.1047 C   0  0  0  0  0  0  0  0  0  0  0  0
   20.1451   16.5502   19.1029 H   0  0  0  0  0  0  0  0  0  0  0  0
   20.4308   16.3120   20.8330 H   0  0  0  0  0  0  0  0  0  0  0  0
   18.7673   16.4297   20.2138 H   0  0  0  0  0  0  0  0  0  0  0  0
   19.8177   18.3543   20.2940 C   0  0  0  0  0  0  0  0  0  0  0  0
   19.2601   18.8238   19.4715 H   0  0  0  0  0  0  0  0  0  0  0  0
   20.8519   18.7163   20.2099 H   0  0  0  0  0  0  0  0  0  0  0  0
   19.2080   18.8216   21.6377 C   0  0  0  0  0  0  0  0  0  0  0  0
   19.1672   19.9174   21.6352 H   0  0  0  0  0  0  0  0  0  0  0  0
   18.1657   18.4801   21.7031 H   0  0  0  0  0  0  0  0  0  0  0  0
   19.9944   18.3218   22.8770 C   0  0  0  0  0  0  0  0  0  0  0  0
   21.0662   18.5359   22.7645 H   0  0  0  0  0  0  0  0  0  0  0  0
   19.9067   17.2284   22.9272 H   0  0  0  0  0  0  0  0  0  0  0  0
   19.4710   18.9099   24.2143 C   0  0  0  0  0  0  0  0  0  0  0  0
   18.4074   19.1685   24.1267 H   0  0  0  0  0  0  0  0  0  0  0  0
   19.5240   18.1172   24.9723 H   0  0  0  0  0  0  0  0  0  0  0  0
   20.2741   20.1199   24.7500 C   0  0  1  0  0  0  0  0  0  0  0  0
   21.3173   19.8103   24.8664 H   0  0  0  0  0  0  0  0  0  0  0  0
   20.2368   21.3295   23.8007 C   0  0  0  0  0  0  0  0  0  0  0  0
   19.2051   21.6313   23.5814 H   0  0  0  0  0  0  0  0  0  0  0  0
   20.7431   21.1036   22.8551 H   0  0  0  0  0  0  0  0  0  0  0  0
   20.7549   22.1874   24.2467 H   0  0  0  0  0  0  0  0  0  0  0  0
   19.7979   20.5194   26.1191 N   0  3  0  0  0  0  0  0  0  0  0  0
   19.8601   19.7417   26.7823 H   0  0  0  0  0  0  0  0  0  0  0  0
   20.3563   21.2887   26.4997 H   0  0  0  0  0  0  0  0  0  0  0  0
   18.8230   20.8303   26.1003 H   0  0  0  0  0  0  0  0  0  0  0  0
  1  2  1  0  0  0  0
  1  3  1  0  0  0  0
  1  4  1  0  0  0  0
  1  5  1  0  0  0  0
  5  6  1  0  0  0  0
  5  7  1  0  0  0  0
  5  8  1  0  0  0  0
  8  9  1  0  0  0  0
  8 10  1  0  0  0  0
  8 11  1  0  0  0  0
 11 12  1  0  0  0  0
 11 13  1  0  0  0  0
 11 14  1  0  0  0  0
 14 15  1  0  0  0  0
 14 16  1  0  0  0  0
 14 17  1  0  0  0  0
 17 18  1  0  0  0  0
 17 19  1  0  0  0  0
 19 20  1  0  0  0  0
 19 21  1  0  0  0  0
 19 22  1  0  0  0  0
 17 23  1  0  0  0  0
 23 24  1  0  0  0  0
 23 25  1  0  0  0  0
 23 26  1  0  0  0  0
M  END
> <VConfSearch Rank>
124

> <Conf_Id>
34

> <Delta U+W>
3.568

> <U+W>
-26.731

> <U>
27.221

> <W>
-53.952

> <W(PB)>
-56.213

> <W(SA)>
2.261

> <Valence>
6.368

> <Coulomb>
19.698

> <VdW>
1.155

> <VdW6>
-8.532

> <VdW12>
9.687

> <Bond>
0.272

> <Angle>
1.847

> <Pdih>
4.248

> <Idih>
0.000

> <Tether>
0.000

$$$$
VeraChem MOL file


 26 25  0  0  0  0  0  0  0  0999 V2000     
   18.4404   18.2548   26.6704 C   0  0  0  0  0  0  0  0  0  0  0  0
   19.3540   17.8105   27.0865 H   0  0  0  0  0  0  0  0  0  0  0  0
   18.3603   19.2843   27.0434 H   0  0  0  0  0  0  0  0  0  0  0  0
   17.5836   17.6885   27.0578 H   0  0  0  0  0  0  0  0  0  0  0  0
   18.4614   18.2239   25.1274 C   0  0  0  0  0  0  0  0  0  0  0  0
   17.5216   18.6432   24.7417 H   0  0  0  0  0  0  0  0  0  0  0  0
   18.5076   17.1807   24.7845 H   0  0  0  0  0  0  0  0  0  0  0  0
   19.6591   19.0146   24.5557 C   0  0  0  0  0  0  0  0  0  0  0  0
   19.6095   20.0558   24.9036 H   0  0  0  0  0  0  0  0  0  0  0  0
   20.5957   18.5933   24.9464 H   0  0  0  0  0  0  0  0  0  0  0  0
   19.6840   18.9859   23.0106 C   0  0  0  0  0  0  0  0  0  0  0  0
   18.7448   19.4063   22.6276 H   0  0  0  0  0  0  0  0  0  0  0  0
   19.7287   17.9419   22.6736 H   0  0  0  0  0  0  0  0  0  0  0  0
   20.8902   19.7789   22.4435 C   0  0  0  0  0  0  0  0  0  0  0  0
   20.8591   20.8067   22.8285 H   0  0  0  0  0  0  0  0  0  0  0  0
   21.8230   19.3422   22.8243 H   0  0  0  0  0  0  0  0  0  0  0  0
   20.9637   19.8381   20.8992 C   0  0  1  0  0  0  0  0  0  0  0  0
   21.8352   20.4467   20.6387 H   0  0  0  0  0  0  0  0  0  0  0  0
   21.1660   18.4460   20.2756 C   0  0  0  0  0  0  0  0  0  0  0  0
   20.2854   17.8075   20.4135 H   0  0  0  0  0  0  0  0  0  0  0  0
   22.0312   17.9405   20.7222 H   0  0  0  0  0  0  0  0  0  0  0  0
   21.3513   18.5321   19.1979 H   0  0  0  0  0  0  0  0  0  0  0  0
   19.7749   20.5324   20.2936 N   0  3  0  0  0  0  0  0  0  0  0  0
   19.8696   20.6189   19.2777 H   0  0  0  0  0  0  0  0  0  0  0  0
   18.9101   20.0183   20.4783 H   0  0  0  0  0  0  0  0  0  0  0  0
   19.6590   21.4771   20.6712 H   0  0  0  0  0  0  0  0  0  0  0  0
  1  2  1  0  0  0  0
  1  3  1  0  0  0  0
  1  4  1  0  0  0  0
  1  5  1  0  0  0  0
  5  6  1  0  0  0  0
  5  7  1  0  0  0  0
  5  8  1  0  0  0  0
  8  9  1  0  0  0  0
  8 10  1  0  0  0  0
  8 11  1  0  0  0  0
 11 12  1  0  0  0  0
 11 13  1  0  0  0  0
 11 14  1  0  0  0  0
 14 15  1  0  0  0  0
 14 16  1  0  0  0  0
 14 17  1  0  0  0  0
 17 18  1  0  0  0  0
 17 19  1  0  0  0  0
 19 20  1  0  0  0  0
 19 21  1  0  0  0  0
 19 22  1  0  0  0  0
 17 23  1  0  0  0  0
 23 24  1  0  0  0  0
 23 25  1  0  0  0  0
 23 26  1  0  0  0  0
M  END
> <VConfSearch Rank>
125

> <Conf_Id>
132

> <Delta U+W>
0.363

> <U+W>
-29.936

> <U>
24.060

> <W>
-53.996

> <W(PB)>
-56.327

> <W(SA)>
2.332

> <Valence>
3.249

> <Coulomb>
19.781

> <VdW>
1.030

> <VdW6>
-7.421

> <VdW12>
8.451

> <Bond>
0.207

> <Angle>
1.205

> <Pdih>
1.837

> <Idih>
0.000

> <Tether>
0.000

$$$$
VeraChem MOL file


 26 25  0  0  0  0  0  0  0  0999 V2000     
   19.9171   21.8009   25.8155 C   0  0  0  0  0  0  0  0  0  0  0  0
   19.4292   21.6783   26.7912 H   0  0  0  0  0  0  0  0  0  0  0  0
   20.9641   22.0780   25.9951 H   0  0  0  0  0  0  0  0  0  0  0  0
   19.4270   22.6346   25.2960 H   0  0  0  0  0  0  0  0  0  0  0  0
   19.8203   20.5000   24.9905 C   0  0  0  0  0  0  0  0  0  0  0  0
   18.7620   20.2348   24.8685 H   0  0  0  0  0  0  0  0  0  0  0  0
   20.2929   19.6795   25.5482 H   0  0  0  0  0  0  0  0  0  0  0  0
   20.4980   20.6507   23.6078 C   0  0  0  0  0  0  0  0  0  0  0  0
   19.9896   21.4341   23.0290 H   0  0  0  0  0  0  0  0  0  0  0  0
   21.5303   20.9975   23.7539 H   0  0  0  0  0  0  0  0  0  0  0  0
   20.5346   19.3383   22.7864 C   0  0  0  0  0  0  0  0  0  0  0  0
   21.0500   18.5628   23.3685 H   0  0  0  0  0  0  0  0  0  0  0  0
   21.1488   19.5165   21.8945 H   0  0  0  0  0  0  0  0  0  0  0  0
   19.1272   18.8398   22.3576 C   0  0  0  0  0  0  0  0  0  0  0  0
   18.5232   18.6312   23.2489 H   0  0  0  0  0  0  0  0  0  0  0  0
   18.6057   19.6420   21.8189 H   0  0  0  0  0  0  0  0  0  0  0  0
   19.1279   17.5677   21.4769 C   0  0  1  0  0  0  0  0  0  0  0  0
   18.0826   17.2979   21.2969 H   0  0  0  0  0  0  0  0  0  0  0  0
   19.7857   17.8092   20.1069 C   0  0  0  0  0  0  0  0  0  0  0  0
   20.8639   17.9850   20.1983 H   0  0  0  0  0  0  0  0  0  0  0  0
   19.3366   18.6756   19.6057 H   0  0  0  0  0  0  0  0  0  0  0  0
   19.6436   16.9383   19.4553 H   0  0  0  0  0  0  0  0  0  0  0  0
   19.7487   16.3878   22.1729 N   0  3  0  0  0  0  0  0  0  0  0  0
   19.2856   16.1912   23.0647 H   0  0  0  0  0  0  0  0  0  0  0  0
   19.6848   15.5403   21.6019 H   0  0  0  0  0  0  0  0  0  0  0  0
   20.7392   16.5514   22.3693 H   0  0  0  0  0  0  0  0  0  0  0  0
  1  2  1  0  0  0  0
  1  3  1  0  0  0  0
  1  4  1  0  0  0  0
  1  5  1  0  0  0  0
  5  6  1  0  0  0  0
  5  7  1  0  0  0  0
  5  8  1  0  0  0  0
  8  9  1  0  0  0  0
  8 10  1  0  0  0  0
  8 11  1  0  0  0  0
 11 12  1  0  0  0  0
 11 13  1  0  0  0  0
 11 14  1  0  0  0  0
 14 15  1  0  0  0  0
 14 16  1  0  0  0  0
 14 17  1  0  0  0  0
 17 18  1  0  0  0  0
 17 19  1  0  0  0  0
 19 20  1  0  0  0  0
 19 21  1  0  0  0  0
 19 22  1  0  0  0  0
 17 23  1  0  0  0  0
 23 24  1  0  0  0  0
 23 25  1  0  0  0  0
 23 26  1  0  0  0  0
M  END
> <VConfSearch Rank>
126

> <Conf_Id>
46

> <Delta U+W>
1.114

> <U+W>
-29.185

> <U>
24.990

> <W>
-54.175

> <W(PB)>
-56.455

> <W(SA)>
2.279

> <Valence>
3.862

> <Coulomb>
19.956

> <VdW>
1.172

> <VdW6>
-8.054

> <VdW12>
9.226

> <Bond>
0.258

> <Angle>
1.499

> <Pdih>
2.106

> <Idih>
0.000

> <Tether>
0.000

$$$$
VeraChem MOL file


 26 25  0  0  0  0  0  0  0  0999 V2000     
   23.0310   17.4777   22.2030 C   0  0  0  0  0  0  0  0  0  0  0  0
   22.9853   18.2109   21.3883 H   0  0  0  0  0  0  0  0  0  0  0  0
   23.5965   17.9199   23.0334 H   0  0  0  0  0  0  0  0  0  0  0  0
   23.5969   16.6121   21.8351 H   0  0  0  0  0  0  0  0  0  0  0  0
   21.6190   17.0455   22.6596 C   0  0  0  0  0  0  0  0  0  0  0  0
   21.7184   16.2225   23.3811 H   0  0  0  0  0  0  0  0  0  0  0  0
   21.0621   16.6382   21.8042 H   0  0  0  0  0  0  0  0  0  0  0  0
   20.8067   18.1865   23.3187 C   0  0  0  0  0  0  0  0  0  0  0  0
   19.8815   17.7553   23.7225 H   0  0  0  0  0  0  0  0  0  0  0  0
   21.3641   18.5830   24.1785 H   0  0  0  0  0  0  0  0  0  0  0  0
   20.4615   19.3403   22.3430 C   0  0  0  0  0  0  0  0  0  0  0  0
   19.9297   18.9421   21.4689 H   0  0  0  0  0  0  0  0  0  0  0  0
   21.3889   19.7838   21.9582 H   0  0  0  0  0  0  0  0  0  0  0  0
   19.6293   20.4701   23.0027 C   0  0  0  0  0  0  0  0  0  0  0  0
   20.2184   20.9128   23.8170 H   0  0  0  0  0  0  0  0  0  0  0  0
   19.4711   21.2716   22.2688 H   0  0  0  0  0  0  0  0  0  0  0  0
   18.2623   20.0137   23.5607 C   0  0  1  0  0  0  0  0  0  0  0  0
   18.4372   19.2344   24.3082 H   0  0  0  0  0  0  0  0  0  0  0  0
   17.5485   21.1864   24.2515 C   0  0  0  0  0  0  0  0  0  0  0  0
   16.5952   20.8597   24.6849 H   0  0  0  0  0  0  0  0  0  0  0  0
   17.3415   21.9985   23.5433 H   0  0  0  0  0  0  0  0  0  0  0  0
   18.1626   21.5913   25.0655 H   0  0  0  0  0  0  0  0  0  0  0  0
   17.3831   19.4079   22.5012 N   0  3  0  0  0  0  0  0  0  0  0  0
   17.8338   18.6012   22.0611 H   0  0  0  0  0  0  0  0  0  0  0  0
   16.4922   19.0878   22.8912 H   0  0  0  0  0  0  0  0  0  0  0  0
   17.1696   20.0834   21.7627 H   0  0  0  0  0  0  0  0  0  0  0  0
  1  2  1  0  0  0  0
  1  3  1  0  0  0  0
  1  4  1  0  0  0  0
  1  5  1  0  0  0  0
  5  6  1  0  0  0  0
  5  7  1  0  0  0  0
  5  8  1  0  0  0  0
  8  9  1  0  0  0  0
  8 10  1  0  0  0  0
  8 11  1  0  0  0  0
 11 12  1  0  0  0  0
 11 13  1  0  0  0  0
 11 14  1  0  0  0  0
 14 15  1  0  0  0  0
 14 16  1  0  0  0  0
 14 17  1  0  0  0  0
 17 18  1  0  0  0  0
 17 19  1  0  0  0  0
 19 20  1  0  0  0  0
 19 21  1  0  0  0  0
 19 22  1  0  0  0  0
 17 23  1  0  0  0  0
 23 24  1  0  0  0  0
 23 25  1  0  0  0  0
 23 26  1  0  0  0  0
M  END
> <VConfSearch Rank>
127

> <Conf_Id>
113

> <Delta U+W>
1.137

> <U+W>
-29.162

> <U>
24.833

> <W>
-53.995

> <W(PB)>
-56.288

> <W(SA)>
2.294

> <Valence>
3.589

> <Coulomb>
20.270

> <VdW>
0.974

> <VdW6>
-8.255

> <VdW12>
9.229

> <Bond>
0.244

> <Angle>
1.377

> <Pdih>
1.967

> <Idih>
0.000

> <Tether>
0.000

$$$$
VeraChem MOL file


 26 25  0  0  0  0  0  0  0  0999 V2000     
   15.9054   19.4468   23.1489 C   0  0  0  0  0  0  0  0  0  0  0  0
   15.2628   19.8008   22.3323 H   0  0  0  0  0  0  0  0  0  0  0  0
   15.6581   18.3945   23.3405 H   0  0  0  0  0  0  0  0  0  0  0  0
   15.6570   20.0257   24.0480 H   0  0  0  0  0  0  0  0  0  0  0  0
   17.3952   19.6076   22.7787 C   0  0  0  0  0  0  0  0  0  0  0  0
   17.6050   20.6648   22.5644 H   0  0  0  0  0  0  0  0  0  0  0  0
   17.5942   19.0492   21.8544 H   0  0  0  0  0  0  0  0  0  0  0  0
   18.3213   19.1105   23.9138 C   0  0  0  0  0  0  0  0  0  0  0  0
   18.0496   19.6245   24.8463 H   0  0  0  0  0  0  0  0  0  0  0  0
   18.1483   18.0401   24.0912 H   0  0  0  0  0  0  0  0  0  0  0  0
   19.8255   19.3557   23.6393 C   0  0  0  0  0  0  0  0  0  0  0  0
   20.3860   19.0836   24.5432 H   0  0  0  0  0  0  0  0  0  0  0  0
   19.9907   20.4299   23.4832 H   0  0  0  0  0  0  0  0  0  0  0  0
   20.3696   18.5491   22.4285 C   0  0  0  0  0  0  0  0  0  0  0  0
   20.1009   17.4915   22.5484 H   0  0  0  0  0  0  0  0  0  0  0  0
   19.8758   18.8855   21.5084 H   0  0  0  0  0  0  0  0  0  0  0  0
   21.8994   18.6451   22.2192 C   0  0  1  0  0  0  0  0  0  0  0  0
   22.1474   18.0297   21.3488 H   0  0  0  0  0  0  0  0  0  0  0  0
   22.3515   20.0843   21.9157 C   0  0  0  0  0  0  0  0  0  0  0  0
   22.2182   20.7423   22.7826 H   0  0  0  0  0  0  0  0  0  0  0  0
   21.7833   20.5024   21.0756 H   0  0  0  0  0  0  0  0  0  0  0  0
   23.4133   20.1029   21.6410 H   0  0  0  0  0  0  0  0  0  0  0  0
   22.6756   18.0676   23.3710 N   0  3  0  0  0  0  0  0  0  0  0  0
   22.4110   17.0953   23.5524 H   0  0  0  0  0  0  0  0  0  0  0  0
   23.6829   18.0809   23.1873 H   0  0  0  0  0  0  0  0  0  0  0  0
   22.5141   18.5967   24.2313 H   0  0  0  0  0  0  0  0  0  0  0  0
  1  2  1  0  0  0  0
  1  3  1  0  0  0  0
  1  4  1  0  0  0  0
  1  5  1  0  0  0  0
  5  6  1  0  0  0  0
  5  7  1  0  0  0  0
  5  8  1  0  0  0  0
  8  9  1  0  0  0  0
  8 10  1  0  0  0  0
  8 11  1  0  0  0  0
 11 12  1  0  0  0  0
 11 13  1  0  0  0  0
 11 14  1  0  0  0  0
 14 15  1  0  0  0  0
 14 16  1  0  0  0  0
 14 17  1  0  0  0  0
 17 18  1  0  0  0  0
 17 19  1  0  0  0  0
 19 20  1  0  0  0  0
 19 21  1  0  0  0  0
 19 22  1  0  0  0  0
 17 23  1  0  0  0  0
 23 24  1  0  0  0  0
 23 25  1  0  0  0  0
 23 26  1  0  0  0  0
M  END
> <VConfSearch Rank>
128

> <Conf_Id>
45

> <Delta U+W>
1.035

> <U+W>
-29.264

> <U>
24.725

> <W>
-53.989

> <W(PB)>
-56.298

> <W(SA)>
2.309

> <Valence>
3.780

> <Coulomb>
19.804

> <VdW>
1.141

> <VdW6>
-8.104

> <VdW12>
9.246

> <Bond>
0.254

> <Angle>
1.437

> <Pdih>
2.089

> <Idih>
0.000

> <Tether>
0.000

$$$$
VeraChem MOL file


 26 25  0  0  0  0  0  0  0  0999 V2000     
   17.0461   17.9511   25.5595 C   0  0  0  0  0  0  0  0  0  0  0  0
   16.0804   18.4540   25.6992 H   0  0  0  0  0  0  0  0  0  0  0  0
   16.8565   16.8721   25.4888 H   0  0  0  0  0  0  0  0  0  0  0  0
   17.6539   18.1336   26.4554 H   0  0  0  0  0  0  0  0  0  0  0  0
   17.7551   18.4748   24.2925 C   0  0  0  0  0  0  0  0  0  0  0  0
   17.8885   19.5608   24.3837 H   0  0  0  0  0  0  0  0  0  0  0  0
   17.1109   18.3046   23.4185 H   0  0  0  0  0  0  0  0  0  0  0  0
   19.1220   17.7828   24.0773 C   0  0  0  0  0  0  0  0  0  0  0  0
   19.7854   18.0005   24.9257 H   0  0  0  0  0  0  0  0  0  0  0  0
   18.9725   16.6942   24.0754 H   0  0  0  0  0  0  0  0  0  0  0  0
   19.8215   18.1825   22.7546 C   0  0  0  0  0  0  0  0  0  0  0  0
   19.1575   17.9624   21.9071 H   0  0  0  0  0  0  0  0  0  0  0  0
   20.7036   17.5407   22.6307 H   0  0  0  0  0  0  0  0  0  0  0  0
   20.2532   19.6710   22.7077 C   0  0  0  0  0  0  0  0  0  0  0  0
   19.3667   20.3092   22.8077 H   0  0  0  0  0  0  0  0  0  0  0  0
   20.9022   19.8971   23.5641 H   0  0  0  0  0  0  0  0  0  0  0  0
   20.9761   20.0472   21.3957 C   0  0  1  0  0  0  0  0  0  0  0  0
   20.3257   19.7799   20.5571 H   0  0  0  0  0  0  0  0  0  0  0  0
   21.2329   21.5619   21.3427 C   0  0  0  0  0  0  0  0  0  0  0  0
   21.8831   21.8834   22.1659 H   0  0  0  0  0  0  0  0  0  0  0  0
   20.2910   22.1201   21.4133 H   0  0  0  0  0  0  0  0  0  0  0  0
   21.7145   21.8413   20.3975 H   0  0  0  0  0  0  0  0  0  0  0  0
   22.2619   19.2893   21.2059 N   0  3  0  0  0  0  0  0  0  0  0  0
   22.1023   18.2786   21.1909 H   0  0  0  0  0  0  0  0  0  0  0  0
   22.7171   19.5399   20.3236 H   0  0  0  0  0  0  0  0  0  0  0  0
   22.9258   19.4857   21.9596 H   0  0  0  0  0  0  0  0  0  0  0  0
  1  2  1  0  0  0  0
  1  3  1  0  0  0  0
  1  4  1  0  0  0  0
  1  5  1  0  0  0  0
  5  6  1  0  0  0  0
  5  7  1  0  0  0  0
  5  8  1  0  0  0  0
  8  9  1  0  0  0  0
  8 10  1  0  0  0  0
  8 11  1  0  0  0  0
 11 12  1  0  0  0  0
 11 13  1  0  0  0  0
 11 14  1  0  0  0  0
 14 15  1  0  0  0  0
 14 16  1  0  0  0  0
 14 17  1  0  0  0  0
 17 18  1  0  0  0  0
 17 19  1  0  0  0  0
 19 20  1  0  0  0  0
 19 21  1  0  0  0  0
 19 22  1  0  0  0  0
 17 23  1  0  0  0  0
 23 24  1  0  0  0  0
 23 25  1  0  0  0  0
 23 26  1  0  0  0  0
M  END
> <VConfSearch Rank>
129

> <Conf_Id>
121

> <Delta U+W>
0.736

> <U+W>
-29.562

> <U>
24.282

> <W>
-53.844

> <W(PB)>
-56.205

> <W(SA)>
2.361

> <Valence>
3.311

> <Coulomb>
19.887

> <VdW>
1.083

> <VdW6>
-7.444

> <VdW12>
8.527

> <Bond>
0.219

> <Angle>
1.167

> <Pdih>
1.926

> <Idih>
0.000

> <Tether>
0.000

$$$$
VeraChem MOL file


 26 25  0  0  0  0  0  0  0  0999 V2000     
   20.9571   16.0151   24.4848 C   0  0  0  0  0  0  0  0  0  0  0  0
   21.3626   14.9985   24.4011 H   0  0  0  0  0  0  0  0  0  0  0  0
   21.3916   16.4767   25.3810 H   0  0  0  0  0  0  0  0  0  0  0  0
   19.8741   15.9258   24.6340 H   0  0  0  0  0  0  0  0  0  0  0  0
   21.2917   16.8360   23.2186 C   0  0  0  0  0  0  0  0  0  0  0  0
   20.8178   16.3733   22.3417 H   0  0  0  0  0  0  0  0  0  0  0  0
   22.3755   16.7876   23.0433 H   0  0  0  0  0  0  0  0  0  0  0  0
   20.8720   18.3227   23.3175 C   0  0  0  0  0  0  0  0  0  0  0  0
   21.3549   18.7824   24.1908 H   0  0  0  0  0  0  0  0  0  0  0  0
   21.2643   18.8454   22.4354 H   0  0  0  0  0  0  0  0  0  0  0  0
   19.3378   18.5256   23.4008 C   0  0  0  0  0  0  0  0  0  0  0  0
   18.9486   18.0155   24.2914 H   0  0  0  0  0  0  0  0  0  0  0  0
   18.8512   18.0461   22.5414 H   0  0  0  0  0  0  0  0  0  0  0  0
   18.9219   20.0174   23.4854 C   0  0  0  0  0  0  0  0  0  0  0  0
   17.8287   20.0777   23.5699 H   0  0  0  0  0  0  0  0  0  0  0  0
   19.3223   20.4359   24.4183 H   0  0  0  0  0  0  0  0  0  0  0  0
   19.3900   20.9013   22.3050 C   0  0  1  0  0  0  0  0  0  0  0  0
   20.4803   20.8423   22.2398 H   0  0  0  0  0  0  0  0  0  0  0  0
   18.7962   20.4370   20.9630 C   0  0  0  0  0  0  0  0  0  0  0  0
   17.6998   20.4240   20.9976 H   0  0  0  0  0  0  0  0  0  0  0  0
   19.1441   19.4310   20.7011 H   0  0  0  0  0  0  0  0  0  0  0  0
   19.1034   21.1081   20.1515 H   0  0  0  0  0  0  0  0  0  0  0  0
   19.0614   22.3482   22.5481 N   0  3  0  0  0  0  0  0  0  0  0  0
   19.4830   22.6903   23.4163 H   0  0  0  0  0  0  0  0  0  0  0  0
   19.4046   22.9428   21.7885 H   0  0  0  0  0  0  0  0  0  0  0  0
   18.0510   22.4959   22.6181 H   0  0  0  0  0  0  0  0  0  0  0  0
  1  2  1  0  0  0  0
  1  3  1  0  0  0  0
  1  4  1  0  0  0  0
  1  5  1  0  0  0  0
  5  6  1  0  0  0  0
  5  7  1  0  0  0  0
  5  8  1  0  0  0  0
  8  9  1  0  0  0  0
  8 10  1  0  0  0  0
  8 11  1  0  0  0  0
 11 12  1  0  0  0  0
 11 13  1  0  0  0  0
 11 14  1  0  0  0  0
 14 15  1  0  0  0  0
 14 16  1  0  0  0  0
 14 17  1  0  0  0  0
 17 18  1  0  0  0  0
 17 19  1  0  0  0  0
 19 20  1  0  0  0  0
 19 21  1  0  0  0  0
 19 22  1  0  0  0  0
 17 23  1  0  0  0  0
 23 24  1  0  0  0  0
 23 25  1  0  0  0  0
 23 26  1  0  0  0  0
M  END
> <VConfSearch Rank>
130

> <Conf_Id>
5

> <Delta U+W>
1.233

> <U+W>
-29.065

> <U>
25.023

> <W>
-54.088

> <W(PB)>
-56.383

> <W(SA)>
2.296

> <Valence>
4.083

> <Coulomb>
19.893

> <VdW>
1.047

> <VdW6>
-8.479

> <VdW12>
9.527

> <Bond>
0.256

> <Angle>
1.716

> <Pdih>
2.112

> <Idih>
0.000

> <Tether>
0.000

$$$$
VeraChem MOL file


 26 25  0  0  0  0  0  0  0  0999 V2000     
   17.2031   21.6415   22.2384 C   0  0  0  0  0  0  0  0  0  0  0  0
   16.3591   22.0367   21.6583 H   0  0  0  0  0  0  0  0  0  0  0  0
   16.8002   21.2543   23.1822 H   0  0  0  0  0  0  0  0  0  0  0  0
   17.8738   22.4796   22.4680 H   0  0  0  0  0  0  0  0  0  0  0  0
   17.9398   20.5424   21.4393 C   0  0  0  0  0  0  0  0  0  0  0  0
   18.2081   20.9452   20.4526 H   0  0  0  0  0  0  0  0  0  0  0  0
   17.2586   19.7006   21.2522 H   0  0  0  0  0  0  0  0  0  0  0  0
   19.2268   20.0319   22.1317 C   0  0  0  0  0  0  0  0  0  0  0  0
   19.7455   19.3668   21.4293 H   0  0  0  0  0  0  0  0  0  0  0  0
   19.9015   20.8781   22.3207 H   0  0  0  0  0  0  0  0  0  0  0  0
   18.9558   19.2706   23.4533 C   0  0  0  0  0  0  0  0  0  0  0  0
   18.3044   18.4090   23.2518 H   0  0  0  0  0  0  0  0  0  0  0  0
   18.4029   19.9196   24.1444 H   0  0  0  0  0  0  0  0  0  0  0  0
   20.2378   18.7861   24.1773 C   0  0  0  0  0  0  0  0  0  0  0  0
   20.8572   19.6473   24.4614 H   0  0  0  0  0  0  0  0  0  0  0  0
   19.9259   18.3230   25.1228 H   0  0  0  0  0  0  0  0  0  0  0  0
   21.0694   17.7664   23.3615 C   0  0  1  0  0  0  0  0  0  0  0  0
   20.4293   17.3559   22.5745 H   0  0  0  0  0  0  0  0  0  0  0  0
   22.2943   18.4299   22.7057 C   0  0  0  0  0  0  0  0  0  0  0  0
   22.9913   18.8085   23.4639 H   0  0  0  0  0  0  0  0  0  0  0  0
   22.0023   19.2713   22.0675 H   0  0  0  0  0  0  0  0  0  0  0  0
   22.8342   17.7098   22.0786 H   0  0  0  0  0  0  0  0  0  0  0  0
   21.5042   16.5958   24.2001 N   0  3  0  0  0  0  0  0  0  0  0  0
   20.7026   16.1076   24.6099 H   0  0  0  0  0  0  0  0  0  0  0  0
   22.0257   15.9112   23.6452 H   0  0  0  0  0  0  0  0  0  0  0  0
   22.1113   16.8911   24.9694 H   0  0  0  0  0  0  0  0  0  0  0  0
  1  2  1  0  0  0  0
  1  3  1  0  0  0  0
  1  4  1  0  0  0  0
  1  5  1  0  0  0  0
  5  6  1  0  0  0  0
  5  7  1  0  0  0  0
  5  8  1  0  0  0  0
  8  9  1  0  0  0  0
  8 10  1  0  0  0  0
  8 11  1  0  0  0  0
 11 12  1  0  0  0  0
 11 13  1  0  0  0  0
 11 14  1  0  0  0  0
 14 15  1  0  0  0  0
 14 16  1  0  0  0  0
 14 17  1  0  0  0  0
 17 18  1  0  0  0  0
 17 19  1  0  0  0  0
 19 20  1  0  0  0  0
 19 21  1  0  0  0  0
 19 22  1  0  0  0  0
 17 23  1  0  0  0  0
 23 24  1  0  0  0  0
 23 25  1  0  0  0  0
 23 26  1  0  0  0  0
M  END
> <VConfSearch Rank>
131

> <Conf_Id>
100

> <Delta U+W>
3.818

> <U+W>
-26.481

> <U>
27.496

> <W>
-53.977

> <W(PB)>
-56.267

> <W(SA)>
2.290

> <Valence>
6.472

> <Coulomb>
19.839

> <VdW>
1.185

> <VdW6>
-8.405

> <VdW12>
9.590

> <Bond>
0.248

> <Angle>
1.619

> <Pdih>
4.604

> <Idih>
0.000

> <Tether>
0.000

$$$$
VeraChem MOL file


 26 25  0  0  0  0  0  0  0  0999 V2000     
   21.6551   17.6370   20.0206 C   0  0  0  0  0  0  0  0  0  0  0  0
   22.6619   17.6247   19.5834 H   0  0  0  0  0  0  0  0  0  0  0  0
   21.5006   16.6810   20.5377 H   0  0  0  0  0  0  0  0  0  0  0  0
   20.9312   17.7017   19.1978 H   0  0  0  0  0  0  0  0  0  0  0  0
   21.4977   18.8255   20.9927 C   0  0  0  0  0  0  0  0  0  0  0  0
   21.6921   19.7642   20.4550 H   0  0  0  0  0  0  0  0  0  0  0  0
   22.2558   18.7510   21.7849 H   0  0  0  0  0  0  0  0  0  0  0  0
   20.0877   18.8667   21.6224 C   0  0  0  0  0  0  0  0  0  0  0  0
   19.3358   18.9404   20.8247 H   0  0  0  0  0  0  0  0  0  0  0  0
   19.8991   17.9207   22.1434 H   0  0  0  0  0  0  0  0  0  0  0  0
   19.9271   20.0630   22.5926 C   0  0  0  0  0  0  0  0  0  0  0  0
   20.1011   20.9868   22.0237 H   0  0  0  0  0  0  0  0  0  0  0  0
   20.7077   20.0336   23.3637 H   0  0  0  0  0  0  0  0  0  0  0  0
   18.5176   20.1501   23.2423 C   0  0  0  0  0  0  0  0  0  0  0  0
   18.2512   21.2103   23.3457 H   0  0  0  0  0  0  0  0  0  0  0  0
   17.7656   19.7292   22.5620 H   0  0  0  0  0  0  0  0  0  0  0  0
   18.3697   19.4971   24.6392 C   0  0  1  0  0  0  0  0  0  0  0  0
   17.3287   19.6338   24.9483 H   0  0  0  0  0  0  0  0  0  0  0  0
   18.6524   17.9862   24.6275 C   0  0  0  0  0  0  0  0  0  0  0  0
   19.7134   17.7773   24.4466 H   0  0  0  0  0  0  0  0  0  0  0  0
   18.0598   17.4839   23.8528 H   0  0  0  0  0  0  0  0  0  0  0  0
   18.3845   17.5393   25.5927 H   0  0  0  0  0  0  0  0  0  0  0  0
   19.2031   20.1891   25.6832 N   0  3  0  0  0  0  0  0  0  0  0  0
   18.9830   21.1876   25.7385 H   0  0  0  0  0  0  0  0  0  0  0  0
   19.0451   19.7898   26.6127 H   0  0  0  0  0  0  0  0  0  0  0  0
   20.2017   20.1049   25.4790 H   0  0  0  0  0  0  0  0  0  0  0  0
  1  2  1  0  0  0  0
  1  3  1  0  0  0  0
  1  4  1  0  0  0  0
  1  5  1  0  0  0  0
  5  6  1  0  0  0  0
  5  7  1  0  0  0  0
  5  8  1  0  0  0  0
  8  9  1  0  0  0  0
  8 10  1  0  0  0  0
  8 11  1  0  0  0  0
 11 12  1  0  0  0  0
 11 13  1  0  0  0  0
 11 14  1  0  0  0  0
 14 15  1  0  0  0  0
 14 16  1  0  0  0  0
 14 17  1  0  0  0  0
 17 18  1  0  0  0  0
 17 19  1  0  0  0  0
 19 20  1  0  0  0  0
 19 21  1  0  0  0  0
 19 22  1  0  0  0  0
 17 23  1  0  0  0  0
 23 24  1  0  0  0  0
 23 25  1  0  0  0  0
 23 26  1  0  0  0  0
M  END
> <VConfSearch Rank>
132

> <Conf_Id>
142

> <Delta U+W>
2.978

> <U+W>
-27.320

> <U>
26.848

> <W>
-54.168

> <W(PB)>
-56.427

> <W(SA)>
2.259

> <Valence>
5.823

> <Coulomb>
20.057

> <VdW>
0.968

> <VdW6>
-8.367

> <VdW12>
9.335

> <Bond>
0.267

> <Angle>
1.799

> <Pdih>
3.758

> <Idih>
0.000

> <Tether>
0.000

$$$$
VeraChem MOL file


 26 25  0  0  0  0  0  0  0  0999 V2000     
   20.8139   22.0765   24.4932 C   0  0  0  0  0  0  0  0  0  0  0  0
   21.6137   21.6034   25.0777 H   0  0  0  0  0  0  0  0  0  0  0  0
   21.0258   23.1525   24.4451 H   0  0  0  0  0  0  0  0  0  0  0  0
   19.8700   21.9521   25.0377 H   0  0  0  0  0  0  0  0  0  0  0  0
   20.7362   21.4776   23.0703 C   0  0  0  0  0  0  0  0  0  0  0  0
   21.6537   21.7446   22.5273 H   0  0  0  0  0  0  0  0  0  0  0  0
   19.9069   21.9407   22.5174 H   0  0  0  0  0  0  0  0  0  0  0  0
   20.5830   19.9372   23.0538 C   0  0  0  0  0  0  0  0  0  0  0  0
   20.6961   19.6060   22.0150 H   0  0  0  0  0  0  0  0  0  0  0  0
   21.4028   19.4817   23.6261 H   0  0  0  0  0  0  0  0  0  0  0  0
   19.2193   19.4475   23.6029 C   0  0  0  0  0  0  0  0  0  0  0  0
   18.4059   19.8544   22.9874 H   0  0  0  0  0  0  0  0  0  0  0  0
   19.0662   19.8617   24.6073 H   0  0  0  0  0  0  0  0  0  0  0  0
   19.0811   17.9026   23.7164 C   0  0  0  0  0  0  0  0  0  0  0  0
   19.8250   17.5238   24.4295 H   0  0  0  0  0  0  0  0  0  0  0  0
   18.1061   17.6895   24.1741 H   0  0  0  0  0  0  0  0  0  0  0  0
   19.1709   17.0751   22.4085 C   0  0  1  0  0  0  0  0  0  0  0  0
   18.8207   16.0668   22.6503 H   0  0  0  0  0  0  0  0  0  0  0  0
   18.2553   17.6234   21.3001 C   0  0  0  0  0  0  0  0  0  0  0  0
   18.5988   18.5993   20.9366 H   0  0  0  0  0  0  0  0  0  0  0  0
   17.2268   17.7344   21.6654 H   0  0  0  0  0  0  0  0  0  0  0  0
   18.2327   16.9362   20.4456 H   0  0  0  0  0  0  0  0  0  0  0  0
   20.5809   16.8944   21.9170 N   0  3  0  0  0  0  0  0  0  0  0  0
   21.1738   16.4621   22.6312 H   0  0  0  0  0  0  0  0  0  0  0  0
   20.6133   16.2925   21.0892 H   0  0  0  0  0  0  0  0  0  0  0  0
   21.0055   17.7888   21.6644 H   0  0  0  0  0  0  0  0  0  0  0  0
  1  2  1  0  0  0  0
  1  3  1  0  0  0  0
  1  4  1  0  0  0  0
  1  5  1  0  0  0  0
  5  6  1  0  0  0  0
  5  7  1  0  0  0  0
  5  8  1  0  0  0  0
  8  9  1  0  0  0  0
  8 10  1  0  0  0  0
  8 11  1  0  0  0  0
 11 12  1  0  0  0  0
 11 13  1  0  0  0  0
 11 14  1  0  0  0  0
 14 15  1  0  0  0  0
 14 16  1  0  0  0  0
 14 17  1  0  0  0  0
 17 18  1  0  0  0  0
 17 19  1  0  0  0  0
 19 20  1  0  0  0  0
 19 21  1  0  0  0  0
 19 22  1  0  0  0  0
 17 23  1  0  0  0  0
 23 24  1  0  0  0  0
 23 25  1  0  0  0  0
 23 26  1  0  0  0  0
M  END
> <VConfSearch Rank>
133

> <Conf_Id>
119

> <Delta U+W>
3.538

> <U+W>
-26.761

> <U>
27.482

> <W>
-54.243

> <W(PB)>
-56.494

> <W(SA)>
2.251

> <Valence>
5.284

> <Coulomb>
21.247

> <VdW>
0.951

> <VdW6>
-9.416

> <VdW12>
10.367

> <Bond>
0.323

> <Angle>
2.522

> <Pdih>
2.439

> <Idih>
0.000

> <Tether>
0.000

$$$$
VeraChem MOL file


 26 25  0  0  0  0  0  0  0  0999 V2000     
   19.8593   21.8919   20.8038 C   0  0  0  0  0  0  0  0  0  0  0  0
   19.5113   21.4749   19.8498 H   0  0  0  0  0  0  0  0  0  0  0  0
   18.9885   22.0340   21.4557 H   0  0  0  0  0  0  0  0  0  0  0  0
   20.2848   22.8833   20.6015 H   0  0  0  0  0  0  0  0  0  0  0  0
   20.9156   20.9737   21.4594 C   0  0  0  0  0  0  0  0  0  0  0  0
   21.2240   21.3967   22.4257 H   0  0  0  0  0  0  0  0  0  0  0  0
   21.8151   20.9621   20.8281 H   0  0  0  0  0  0  0  0  0  0  0  0
   20.4295   19.5176   21.6573 C   0  0  0  0  0  0  0  0  0  0  0  0
   20.1483   19.0921   20.6841 H   0  0  0  0  0  0  0  0  0  0  0  0
   21.2751   18.9194   22.0166 H   0  0  0  0  0  0  0  0  0  0  0  0
   19.2367   19.3952   22.6403 C   0  0  0  0  0  0  0  0  0  0  0  0
   18.3699   19.9040   22.1984 H   0  0  0  0  0  0  0  0  0  0  0  0
   19.4580   19.9299   23.5728 H   0  0  0  0  0  0  0  0  0  0  0  0
   18.8286   17.9245   22.9347 C   0  0  0  0  0  0  0  0  0  0  0  0
   17.7352   17.8813   23.0248 H   0  0  0  0  0  0  0  0  0  0  0  0
   19.0721   17.2894   22.0727 H   0  0  0  0  0  0  0  0  0  0  0  0
   19.4249   17.2984   24.2201 C   0  0  1  0  0  0  0  0  0  0  0  0
   19.0540   16.2704   24.2786 H   0  0  0  0  0  0  0  0  0  0  0  0
   20.9607   17.2343   24.1975 C   0  0  0  0  0  0  0  0  0  0  0  0
   21.4057   18.2351   24.2487 H   0  0  0  0  0  0  0  0  0  0  0  0
   21.3171   16.7395   23.2856 H   0  0  0  0  0  0  0  0  0  0  0  0
   21.3326   16.6591   25.0542 H   0  0  0  0  0  0  0  0  0  0  0  0
   18.9363   17.9837   25.4670 N   0  3  0  0  0  0  0  0  0  0  0  0
   17.9138   17.9835   25.5197 H   0  0  0  0  0  0  0  0  0  0  0  0
   19.2855   17.5194   26.3101 H   0  0  0  0  0  0  0  0  0  0  0  0
   19.2461   18.9578   25.5027 H   0  0  0  0  0  0  0  0  0  0  0  0
  1  2  1  0  0  0  0
  1  3  1  0  0  0  0
  1  4  1  0  0  0  0
  1  5  1  0  0  0  0
  5  6  1  0  0  0  0
  5  7  1  0  0  0  0
  5  8  1  0  0  0  0
  8  9  1  0  0  0  0
  8 10  1  0  0  0  0
  8 11  1  0  0  0  0
 11 12  1  0  0  0  0
 11 13  1  0  0  0  0
 11 14  1  0  0  0  0
 14 15  1  0  0  0  0
 14 16  1  0  0  0  0
 14 17  1  0  0  0  0
 17 18  1  0  0  0  0
 17 19  1  0  0  0  0
 19 20  1  0  0  0  0
 19 21  1  0  0  0  0
 19 22  1  0  0  0  0
 17 23  1  0  0  0  0
 23 24  1  0  0  0  0
 23 25  1  0  0  0  0
 23 26  1  0  0  0  0
M  END
> <VConfSearch Rank>
134

> <Conf_Id>
127

> <Delta U+W>
3.544

> <U+W>
-26.754

> <U>
27.509

> <W>
-54.263

> <W(PB)>
-56.496

> <W(SA)>
2.232

> <Valence>
6.375

> <Coulomb>
20.014

> <VdW>
1.120

> <VdW6>
-8.976

> <VdW12>
10.096

> <Bond>
0.304

> <Angle>
1.986

> <Pdih>
4.086

> <Idih>
0.000

> <Tether>
0.000

$$$$
VeraChem MOL file


 26 25  0  0  0  0  0  0  0  0999 V2000     
   19.4804   17.4057   25.6259 C   0  0  0  0  0  0  0  0  0  0  0  0
   18.8704   17.4440   26.5376 H   0  0  0  0  0  0  0  0  0  0  0  0
   20.1576   16.5462   25.7147 H   0  0  0  0  0  0  0  0  0  0  0  0
   20.0917   18.3143   25.5970 H   0  0  0  0  0  0  0  0  0  0  0  0
   18.5783   17.2699   24.3770 C   0  0  0  0  0  0  0  0  0  0  0  0
   17.8536   18.0950   24.3372 H   0  0  0  0  0  0  0  0  0  0  0  0
   17.9843   16.3518   24.4872 H   0  0  0  0  0  0  0  0  0  0  0  0
   19.3747   17.1862   23.0492 C   0  0  0  0  0  0  0  0  0  0  0  0
   20.3626   16.7387   23.2257 H   0  0  0  0  0  0  0  0  0  0  0  0
   18.8507   16.4895   22.3804 H   0  0  0  0  0  0  0  0  0  0  0  0
   19.5263   18.5318   22.2936 C   0  0  0  0  0  0  0  0  0  0  0  0
   18.5288   18.9096   22.0327 H   0  0  0  0  0  0  0  0  0  0  0  0
   20.0351   18.3247   21.3436 H   0  0  0  0  0  0  0  0  0  0  0  0
   20.3098   19.6165   23.0799 C   0  0  0  0  0  0  0  0  0  0  0  0
   19.7442   19.8881   23.9793 H   0  0  0  0  0  0  0  0  0  0  0  0
   21.2633   19.1986   23.4285 H   0  0  0  0  0  0  0  0  0  0  0  0
   20.5928   20.9171   22.2910 C   0  0  1  0  0  0  0  0  0  0  0  0
   21.0753   21.6158   22.9815 H   0  0  0  0  0  0  0  0  0  0  0  0
   21.5607   20.6863   21.1170 C   0  0  0  0  0  0  0  0  0  0  0  0
   22.4751   20.1853   21.4579 H   0  0  0  0  0  0  0  0  0  0  0  0
   21.8542   21.6437   20.6693 H   0  0  0  0  0  0  0  0  0  0  0  0
   21.1069   20.0748   20.3285 H   0  0  0  0  0  0  0  0  0  0  0  0
   19.3323   21.5936   21.8265 N   0  3  0  0  0  0  0  0  0  0  0  0
   18.7034   21.7944   22.6092 H   0  0  0  0  0  0  0  0  0  0  0  0
   19.5346   22.4827   21.3607 H   0  0  0  0  0  0  0  0  0  0  0  0
   18.8205   21.0084   21.1617 H   0  0  0  0  0  0  0  0  0  0  0  0
  1  2  1  0  0  0  0
  1  3  1  0  0  0  0
  1  4  1  0  0  0  0
  1  5  1  0  0  0  0
  5  6  1  0  0  0  0
  5  7  1  0  0  0  0
  5  8  1  0  0  0  0
  8  9  1  0  0  0  0
  8 10  1  0  0  0  0
  8 11  1  0  0  0  0
 11 12  1  0  0  0  0
 11 13  1  0  0  0  0
 11 14  1  0  0  0  0
 14 15  1  0  0  0  0
 14 16  1  0  0  0  0
 14 17  1  0  0  0  0
 17 18  1  0  0  0  0
 17 19  1  0  0  0  0
 19 20  1  0  0  0  0
 19 21  1  0  0  0  0
 19 22  1  0  0  0  0
 17 23  1  0  0  0  0
 23 24  1  0  0  0  0
 23 25  1  0  0  0  0
 23 26  1  0  0  0  0
M  END
> <VConfSearch Rank>
135

> <Conf_Id>
131

> <Delta U+W>
3.589

> <U+W>
-26.710

> <U>
27.573

> <W>
-54.283

> <W(PB)>
-56.537

> <W(SA)>
2.254

> <Valence>
6.363

> <Coulomb>
20.026

> <VdW>
1.184

> <VdW6>
-8.939

> <VdW12>
10.123

> <Bond>
0.298

> <Angle>
2.018

> <Pdih>
4.047

> <Idih>
0.000

> <Tether>
0.000

$$$$
VeraChem MOL file


 26 25  0  0  0  0  0  0  0  0999 V2000     
   22.0369   19.0870   21.3009 C   0  0  0  0  0  0  0  0  0  0  0  0
   21.3308   18.8526   20.4938 H   0  0  0  0  0  0  0  0  0  0  0  0
   21.6460   19.9371   21.8733 H   0  0  0  0  0  0  0  0  0  0  0  0
   22.9794   19.4092   20.8397 H   0  0  0  0  0  0  0  0  0  0  0  0
   22.2728   17.8607   22.2093 C   0  0  0  0  0  0  0  0  0  0  0  0
   22.9244   18.1479   23.0464 H   0  0  0  0  0  0  0  0  0  0  0  0
   22.8269   17.1018   21.6395 H   0  0  0  0  0  0  0  0  0  0  0  0
   20.9763   17.2123   22.7586 C   0  0  0  0  0  0  0  0  0  0  0  0
   20.3703   16.8211   21.9299 H   0  0  0  0  0  0  0  0  0  0  0  0
   21.2717   16.3337   23.3486 H   0  0  0  0  0  0  0  0  0  0  0  0
   20.1213   18.1367   23.6647 C   0  0  0  0  0  0  0  0  0  0  0  0
   20.7763   18.8495   24.1818 H   0  0  0  0  0  0  0  0  0  0  0  0
   19.6593   17.5219   24.4495 H   0  0  0  0  0  0  0  0  0  0  0  0
   18.9884   18.8717   22.9003 C   0  0  0  0  0  0  0  0  0  0  0  0
   19.4036   19.5167   22.1180 H   0  0  0  0  0  0  0  0  0  0  0  0
   18.3758   18.1204   22.3850 H   0  0  0  0  0  0  0  0  0  0  0  0
   18.0649   19.7072   23.8159 C   0  0  1  0  0  0  0  0  0  0  0  0
   17.7025   19.0604   24.6208 H   0  0  0  0  0  0  0  0  0  0  0  0
   18.8022   20.9034   24.4446 C   0  0  0  0  0  0  0  0  0  0  0  0
   19.2387   21.5504   23.6735 H   0  0  0  0  0  0  0  0  0  0  0  0
   19.6068   20.5720   25.1107 H   0  0  0  0  0  0  0  0  0  0  0  0
   18.1130   21.5089   25.0461 H   0  0  0  0  0  0  0  0  0  0  0  0
   16.8470   20.1807   23.0719 N   0  3  0  0  0  0  0  0  0  0  0  0
   17.0986   20.7992   22.2963 H   0  0  0  0  0  0  0  0  0  0  0  0
   16.3154   19.3975   22.6810 H   0  0  0  0  0  0  0  0  0  0  0  0
   16.2135   20.7018   23.6848 H   0  0  0  0  0  0  0  0  0  0  0  0
  1  2  1  0  0  0  0
  1  3  1  0  0  0  0
  1  4  1  0  0  0  0
  1  5  1  0  0  0  0
  5  6  1  0  0  0  0
  5  7  1  0  0  0  0
  5  8  1  0  0  0  0
  8  9  1  0  0  0  0
  8 10  1  0  0  0  0
  8 11  1  0  0  0  0
 11 12  1  0  0  0  0
 11 13  1  0  0  0  0
 11 14  1  0  0  0  0
 14 15  1  0  0  0  0
 14 16  1  0  0  0  0
 14 17  1  0  0  0  0
 17 18  1  0  0  0  0
 17 19  1  0  0  0  0
 19 20  1  0  0  0  0
 19 21  1  0  0  0  0
 19 22  1  0  0  0  0
 17 23  1  0  0  0  0
 23 24  1  0  0  0  0
 23 25  1  0  0  0  0
 23 26  1  0  0  0  0
M  END
> <VConfSearch Rank>
136

> <Conf_Id>
80

> <Delta U+W>
3.351

> <U+W>
-26.948

> <U>
27.261

> <W>
-54.209

> <W(PB)>
-56.471

> <W(SA)>
2.263

> <Valence>
6.230

> <Coulomb>
19.945

> <VdW>
1.087

> <VdW6>
-8.618

> <VdW12>
9.704

> <Bond>
0.277

> <Angle>
1.928

> <Pdih>
4.025

> <Idih>
0.000

> <Tether>
0.000

$$$$
VeraChem MOL file


 26 25  0  0  0  0  0  0  0  0999 V2000     
   19.3738   16.5564   24.9918 C   0  0  0  0  0  0  0  0  0  0  0  0
   20.0232   15.8106   25.4680 H   0  0  0  0  0  0  0  0  0  0  0  0
   18.4018   16.5302   25.5012 H   0  0  0  0  0  0  0  0  0  0  0  0
   19.2260   16.2472   23.9496 H   0  0  0  0  0  0  0  0  0  0  0  0
   20.0095   17.9622   25.0794 C   0  0  0  0  0  0  0  0  0  0  0  0
   20.9659   17.9696   24.5407 H   0  0  0  0  0  0  0  0  0  0  0  0
   20.2594   18.1706   26.1291 H   0  0  0  0  0  0  0  0  0  0  0  0
   19.0866   19.0961   24.5618 C   0  0  0  0  0  0  0  0  0  0  0  0
   18.2129   19.1599   25.2249 H   0  0  0  0  0  0  0  0  0  0  0  0
   19.6102   20.0518   24.6774 H   0  0  0  0  0  0  0  0  0  0  0  0
   18.5754   18.9365   23.1018 C   0  0  0  0  0  0  0  0  0  0  0  0
   17.8734   19.7499   22.8721 H   0  0  0  0  0  0  0  0  0  0  0  0
   17.9742   18.0196   23.0444 H   0  0  0  0  0  0  0  0  0  0  0  0
   19.6724   18.8785   22.0018 C   0  0  0  0  0  0  0  0  0  0  0  0
   20.5845   18.4026   22.3786 H   0  0  0  0  0  0  0  0  0  0  0  0
   19.3046   18.2154   21.2078 H   0  0  0  0  0  0  0  0  0  0  0  0
   20.0158   20.2354   21.3409 C   0  0  1  0  0  0  0  0  0  0  0  0
   19.0962   20.6511   20.9177 H   0  0  0  0  0  0  0  0  0  0  0  0
   20.5912   21.2589   22.3336 C   0  0  0  0  0  0  0  0  0  0  0  0
   19.8263   21.5836   23.0475 H   0  0  0  0  0  0  0  0  0  0  0  0
   20.9383   22.1566   21.8074 H   0  0  0  0  0  0  0  0  0  0  0  0
   21.4386   20.8409   22.8912 H   0  0  0  0  0  0  0  0  0  0  0  0
   20.9610   20.0453   20.1868 N   0  3  0  0  0  0  0  0  0  0  0  0
   20.5781   19.4033   19.4870 H   0  0  0  0  0  0  0  0  0  0  0  0
   21.1549   20.9317   19.7123 H   0  0  0  0  0  0  0  0  0  0  0  0
   21.8581   19.6628   20.4972 H   0  0  0  0  0  0  0  0  0  0  0  0
  1  2  1  0  0  0  0
  1  3  1  0  0  0  0
  1  4  1  0  0  0  0
  1  5  1  0  0  0  0
  5  6  1  0  0  0  0
  5  7  1  0  0  0  0
  5  8  1  0  0  0  0
  8  9  1  0  0  0  0
  8 10  1  0  0  0  0
  8 11  1  0  0  0  0
 11 12  1  0  0  0  0
 11 13  1  0  0  0  0
 11 14  1  0  0  0  0
 14 15  1  0  0  0  0
 14 16  1  0  0  0  0
 14 17  1  0  0  0  0
 17 18  1  0  0  0  0
 17 19  1  0  0  0  0
 19 20  1  0  0  0  0
 19 21  1  0  0  0  0
 19 22  1  0  0  0  0
 17 23  1  0  0  0  0
 23 24  1  0  0  0  0
 23 25  1  0  0  0  0
 23 26  1  0  0  0  0
M  END
> <VConfSearch Rank>
137

> <Conf_Id>
136

> <Delta U+W>
4.272

> <U+W>
-26.026

> <U>
28.262

> <W>
-54.288

> <W(PB)>
-56.488

> <W(SA)>
2.200

> <Valence>
7.096

> <Coulomb>
19.990

> <VdW>
1.175

> <VdW6>
-9.404

> <VdW12>
10.580

> <Bond>
0.360

> <Angle>
2.785

> <Pdih>
3.951

> <Idih>
0.000

> <Tether>
0.000

$$$$
VeraChem MOL file


 26 25  0  0  0  0  0  0  0  0999 V2000     
   17.4575   20.8289   22.1549 C   0  0  0  0  0  0  0  0  0  0  0  0
   17.3769   19.8325   22.6067 H   0  0  0  0  0  0  0  0  0  0  0  0
   16.4408   21.2340   22.0718 H   0  0  0  0  0  0  0  0  0  0  0  0
   17.8602   20.7220   21.1394 H   0  0  0  0  0  0  0  0  0  0  0  0
   18.3419   21.7628   23.0097 C   0  0  0  0  0  0  0  0  0  0  0  0
   17.9446   21.8042   24.0334 H   0  0  0  0  0  0  0  0  0  0  0  0
   18.2630   22.7841   22.6115 H   0  0  0  0  0  0  0  0  0  0  0  0
   19.8396   21.3649   23.0497 C   0  0  0  0  0  0  0  0  0  0  0  0
   20.2723   21.4194   22.0412 H   0  0  0  0  0  0  0  0  0  0  0  0
   20.3678   22.1270   23.6395 H   0  0  0  0  0  0  0  0  0  0  0  0
   20.1246   19.9788   23.6845 C   0  0  0  0  0  0  0  0  0  0  0  0
   19.3448   19.7348   24.4192 H   0  0  0  0  0  0  0  0  0  0  0  0
   21.0645   20.0487   24.2482 H   0  0  0  0  0  0  0  0  0  0  0  0
   20.2571   18.8409   22.6390 C   0  0  0  0  0  0  0  0  0  0  0  0
   19.3702   18.8242   21.9957 H   0  0  0  0  0  0  0  0  0  0  0  0
   21.1111   19.0449   21.9796 H   0  0  0  0  0  0  0  0  0  0  0  0
   20.4238   17.4484   23.2850 C   0  0  1  0  0  0  0  0  0  0  0  0
   19.5756   17.2781   23.9552 H   0  0  0  0  0  0  0  0  0  0  0  0
   20.4129   16.3538   22.2059 C   0  0  0  0  0  0  0  0  0  0  0  0
   21.2480   16.4785   21.5053 H   0  0  0  0  0  0  0  0  0  0  0  0
   19.4783   16.3812   21.6319 H   0  0  0  0  0  0  0  0  0  0  0  0
   20.4942   15.3590   22.6611 H   0  0  0  0  0  0  0  0  0  0  0  0
   21.6672   17.3476   24.1261 N   0  3  0  0  0  0  0  0  0  0  0  0
   22.5101   17.4992   23.5660 H   0  0  0  0  0  0  0  0  0  0  0  0
   21.6673   18.0419   24.8780 H   0  0  0  0  0  0  0  0  0  0  0  0
   21.7505   16.4248   24.5617 H   0  0  0  0  0  0  0  0  0  0  0  0
  1  2  1  0  0  0  0
  1  3  1  0  0  0  0
  1  4  1  0  0  0  0
  1  5  1  0  0  0  0
  5  6  1  0  0  0  0
  5  7  1  0  0  0  0
  5  8  1  0  0  0  0
  8  9  1  0  0  0  0
  8 10  1  0  0  0  0
  8 11  1  0  0  0  0
 11 12  1  0  0  0  0
 11 13  1  0  0  0  0
 11 14  1  0  0  0  0
 14 15  1  0  0  0  0
 14 16  1  0  0  0  0
 14 17  1  0  0  0  0
 17 18  1  0  0  0  0
 17 19  1  0  0  0  0
 19 20  1  0  0  0  0
 19 21  1  0  0  0  0
 19 22  1  0  0  0  0
 17 23  1  0  0  0  0
 23 24  1  0  0  0  0
 23 25  1  0  0  0  0
 23 26  1  0  0  0  0
M  END
> <VConfSearch Rank>
138

> <Conf_Id>
124

> <Delta U+W>
3.001

> <U+W>
-27.298

> <U>
26.787

> <W>
-54.085

> <W(PB)>
-56.347

> <W(SA)>
2.262

> <Valence>
5.742

> <Coulomb>
20.023

> <VdW>
1.022

> <VdW6>
-8.392

> <VdW12>
9.414

> <Bond>
0.261

> <Angle>
1.576

> <Pdih>
3.904

> <Idih>
0.000

> <Tether>
0.000

$$$$
VeraChem MOL file


 26 25  0  0  0  0  0  0  0  0999 V2000     
   20.3079   16.5027   24.6665 C   0  0  0  0  0  0  0  0  0  0  0  0
   19.7280   16.4550   25.5973 H   0  0  0  0  0  0  0  0  0  0  0  0
   20.9400   15.6063   24.6223 H   0  0  0  0  0  0  0  0  0  0  0  0
   20.9707   17.3727   24.7264 H   0  0  0  0  0  0  0  0  0  0  0  0
   19.3725   16.5654   23.4364 C   0  0  0  0  0  0  0  0  0  0  0  0
   18.7643   15.6500   23.4278 H   0  0  0  0  0  0  0  0  0  0  0  0
   19.9602   16.5460   22.5081 H   0  0  0  0  0  0  0  0  0  0  0  0
   18.4206   17.7893   23.4468 C   0  0  0  0  0  0  0  0  0  0  0  0
   17.4628   17.4797   23.0062 H   0  0  0  0  0  0  0  0  0  0  0  0
   18.1890   18.0825   24.4800 H   0  0  0  0  0  0  0  0  0  0  0  0
   18.9270   19.0156   22.6441 C   0  0  0  0  0  0  0  0  0  0  0  0
   18.1364   19.7770   22.6568 H   0  0  0  0  0  0  0  0  0  0  0  0
   19.0564   18.7241   21.5933 H   0  0  0  0  0  0  0  0  0  0  0  0
   20.2457   19.6285   23.1856 C   0  0  0  0  0  0  0  0  0  0  0  0
   20.1582   19.7786   24.2696 H   0  0  0  0  0  0  0  0  0  0  0  0
   21.0653   18.9148   23.0369 H   0  0  0  0  0  0  0  0  0  0  0  0
   20.6535   20.9713   22.5346 C   0  0  1  0  0  0  0  0  0  0  0  0
   21.5925   21.2861   23.0004 H   0  0  0  0  0  0  0  0  0  0  0  0
   20.9083   20.8267   21.0241 C   0  0  0  0  0  0  0  0  0  0  0  0
   19.9852   20.5994   20.4776 H   0  0  0  0  0  0  0  0  0  0  0  0
   21.6317   20.0262   20.8257 H   0  0  0  0  0  0  0  0  0  0  0  0
   21.3205   21.7567   20.6137 H   0  0  0  0  0  0  0  0  0  0  0  0
   19.6639   22.0696   22.8120 N   0  3  0  0  0  0  0  0  0  0  0  0
   19.9812   22.9646   22.4289 H   0  0  0  0  0  0  0  0  0  0  0  0
   18.7528   21.8638   22.3953 H   0  0  0  0  0  0  0  0  0  0  0  0
   19.5207   22.2011   23.8173 H   0  0  0  0  0  0  0  0  0  0  0  0
  1  2  1  0  0  0  0
  1  3  1  0  0  0  0
  1  4  1  0  0  0  0
  1  5  1  0  0  0  0
  5  6  1  0  0  0  0
  5  7  1  0  0  0  0
  5  8  1  0  0  0  0
  8  9  1  0  0  0  0
  8 10  1  0  0  0  0
  8 11  1  0  0  0  0
 11 12  1  0  0  0  0
 11 13  1  0  0  0  0
 11 14  1  0  0  0  0
 14 15  1  0  0  0  0
 14 16  1  0  0  0  0
 14 17  1  0  0  0  0
 17 18  1  0  0  0  0
 17 19  1  0  0  0  0
 19 20  1  0  0  0  0
 19 21  1  0  0  0  0
 19 22  1  0  0  0  0
 17 23  1  0  0  0  0
 23 24  1  0  0  0  0
 23 25  1  0  0  0  0
 23 26  1  0  0  0  0
M  END
> <VConfSearch Rank>
139

> <Conf_Id>
105

> <Delta U+W>
3.442

> <U+W>
-26.857

> <U>
27.313

> <W>
-54.169

> <W(PB)>
-56.414

> <W(SA)>
2.245

> <Valence>
6.229

> <Coulomb>
19.943

> <VdW>
1.140

> <VdW6>
-9.001

> <VdW12>
10.140

> <Bond>
0.294

> <Angle>
1.969

> <Pdih>
3.967

> <Idih>
0.000

> <Tether>
0.000

$$$$
VeraChem MOL file


 26 25  0  0  0  0  0  0  0  0999 V2000     
   19.4117   22.0772   23.6326 C   0  0  0  0  0  0  0  0  0  0  0  0
   18.5680   22.3423   24.2829 H   0  0  0  0  0  0  0  0  0  0  0  0
   19.8476   23.0117   23.2561 H   0  0  0  0  0  0  0  0  0  0  0  0
   19.0148   21.5273   22.7724 H   0  0  0  0  0  0  0  0  0  0  0  0
   20.4716   21.2611   24.4088 C   0  0  0  0  0  0  0  0  0  0  0  0
   20.8454   21.8884   25.2302 H   0  0  0  0  0  0  0  0  0  0  0  0
   21.3397   21.0546   23.7676 H   0  0  0  0  0  0  0  0  0  0  0  0
   19.9185   19.9426   25.0088 C   0  0  0  0  0  0  0  0  0  0  0  0
   20.4270   19.7642   25.9664 H   0  0  0  0  0  0  0  0  0  0  0  0
   18.8539   20.0545   25.2563 H   0  0  0  0  0  0  0  0  0  0  0  0
   20.1332   18.6854   24.1270 C   0  0  0  0  0  0  0  0  0  0  0  0
   19.7729   17.8095   24.6844 H   0  0  0  0  0  0  0  0  0  0  0  0
   21.2104   18.5332   23.9771 H   0  0  0  0  0  0  0  0  0  0  0  0
   19.4140   18.7388   22.7566 C   0  0  0  0  0  0  0  0  0  0  0  0
   18.3686   19.0358   22.9137 H   0  0  0  0  0  0  0  0  0  0  0  0
   19.8748   19.5072   22.1235 H   0  0  0  0  0  0  0  0  0  0  0  0
   19.4418   17.3866   22.0121 C   0  0  1  0  0  0  0  0  0  0  0  0
   18.9953   16.6280   22.6624 H   0  0  0  0  0  0  0  0  0  0  0  0
   18.6079   17.4687   20.7235 C   0  0  0  0  0  0  0  0  0  0  0  0
   19.0168   18.2167   20.0327 H   0  0  0  0  0  0  0  0  0  0  0  0
   17.5695   17.7427   20.9480 H   0  0  0  0  0  0  0  0  0  0  0  0
   18.5923   16.5002   20.2086 H   0  0  0  0  0  0  0  0  0  0  0  0
   20.8414   16.9263   21.7077 N   0  3  0  0  0  0  0  0  0  0  0  0
   21.3960   16.8266   22.5621 H   0  0  0  0  0  0  0  0  0  0  0  0
   20.8421   16.0183   21.2346 H   0  0  0  0  0  0  0  0  0  0  0  0
   21.3285   17.5893   21.0992 H   0  0  0  0  0  0  0  0  0  0  0  0
  1  2  1  0  0  0  0
  1  3  1  0  0  0  0
  1  4  1  0  0  0  0
  1  5  1  0  0  0  0
  5  6  1  0  0  0  0
  5  7  1  0  0  0  0
  5  8  1  0  0  0  0
  8  9  1  0  0  0  0
  8 10  1  0  0  0  0
  8 11  1  0  0  0  0
 11 12  1  0  0  0  0
 11 13  1  0  0  0  0
 11 14  1  0  0  0  0
 14 15  1  0  0  0  0
 14 16  1  0  0  0  0
 14 17  1  0  0  0  0
 17 18  1  0  0  0  0
 17 19  1  0  0  0  0
 19 20  1  0  0  0  0
 19 21  1  0  0  0  0
 19 22  1  0  0  0  0
 17 23  1  0  0  0  0
 23 24  1  0  0  0  0
 23 25  1  0  0  0  0
 23 26  1  0  0  0  0
M  END
> <VConfSearch Rank>
140

> <Conf_Id>
107

> <Delta U+W>
2.995

> <U+W>
-27.304

> <U>
26.796

> <W>
-54.100

> <W(PB)>
-56.404

> <W(SA)>
2.304

> <Valence>
5.706

> <Coulomb>
20.107

> <VdW>
0.982

> <VdW6>
-8.396

> <VdW12>
9.378

> <Bond>
0.254

> <Angle>
1.644

> <Pdih>
3.808

> <Idih>
0.000

> <Tether>
0.000

$$$$
VeraChem MOL file


 26 25  0  0  0  0  0  0  0  0999 V2000     
   20.2873   16.9849   26.5265 C   0  0  0  0  0  0  0  0  0  0  0  0
   19.3442   17.2892   26.9989 H   0  0  0  0  0  0  0  0  0  0  0  0
   20.5013   15.9534   26.8352 H   0  0  0  0  0  0  0  0  0  0  0  0
   21.0879   17.6265   26.9172 H   0  0  0  0  0  0  0  0  0  0  0  0
   20.1957   17.0859   24.9891 C   0  0  0  0  0  0  0  0  0  0  0  0
   19.4103   16.4086   24.6255 H   0  0  0  0  0  0  0  0  0  0  0  0
   21.1406   16.7433   24.5445 H   0  0  0  0  0  0  0  0  0  0  0  0
   19.8949   18.5291   24.5276 C   0  0  0  0  0  0  0  0  0  0  0  0
   18.9513   18.8677   24.9776 H   0  0  0  0  0  0  0  0  0  0  0  0
   20.6817   19.2025   24.8949 H   0  0  0  0  0  0  0  0  0  0  0  0
   19.8016   18.6342   22.9885 C   0  0  0  0  0  0  0  0  0  0  0  0
   19.0120   17.9629   22.6229 H   0  0  0  0  0  0  0  0  0  0  0  0
   20.7454   18.2879   22.5468 H   0  0  0  0  0  0  0  0  0  0  0  0
   19.5015   20.0819   22.5291 C   0  0  0  0  0  0  0  0  0  0  0  0
   18.5843   20.4282   23.0242 H   0  0  0  0  0  0  0  0  0  0  0  0
   20.3074   20.7510   22.8589 H   0  0  0  0  0  0  0  0  0  0  0  0
   19.3180   20.2036   21.0007 C   0  0  1  0  0  0  0  0  0  0  0  0
   18.5277   19.5114   20.6941 H   0  0  0  0  0  0  0  0  0  0  0  0
   18.8821   21.6294   20.6268 C   0  0  0  0  0  0  0  0  0  0  0  0
   19.6440   22.3654   20.9125 H   0  0  0  0  0  0  0  0  0  0  0  0
   17.9444   21.8953   21.1305 H   0  0  0  0  0  0  0  0  0  0  0  0
   18.7141   21.7132   19.5460 H   0  0  0  0  0  0  0  0  0  0  0  0
   20.5551   19.8135   20.2387 N   0  3  0  0  0  0  0  0  0  0  0  0
   21.3459   20.4184   20.4756 H   0  0  0  0  0  0  0  0  0  0  0  0
   20.8320   18.8496   20.4428 H   0  0  0  0  0  0  0  0  0  0  0  0
   20.4090   19.8820   19.2276 H   0  0  0  0  0  0  0  0  0  0  0  0
  1  2  1  0  0  0  0
  1  3  1  0  0  0  0
  1  4  1  0  0  0  0
  1  5  1  0  0  0  0
  5  6  1  0  0  0  0
  5  7  1  0  0  0  0
  5  8  1  0  0  0  0
  8  9  1  0  0  0  0
  8 10  1  0  0  0  0
  8 11  1  0  0  0  0
 11 12  1  0  0  0  0
 11 13  1  0  0  0  0
 11 14  1  0  0  0  0
 14 15  1  0  0  0  0
 14 16  1  0  0  0  0
 14 17  1  0  0  0  0
 17 18  1  0  0  0  0
 17 19  1  0  0  0  0
 19 20  1  0  0  0  0
 19 21  1  0  0  0  0
 19 22  1  0  0  0  0
 17 23  1  0  0  0  0
 23 24  1  0  0  0  0
 23 25  1  0  0  0  0
 23 26  1  0  0  0  0
M  END
> <VConfSearch Rank>
141

> <Conf_Id>
122

> <Delta U+W>
0.000

> <U+W>
-30.299

> <U>
23.517

> <W>
-53.816

> <W(PB)>
-56.162

> <W(SA)>
2.346

> <Valence>
2.737

> <Coulomb>
19.862

> <VdW>
0.919

> <VdW6>
-6.793

> <VdW12>
7.712

> <Bond>
0.171

> <Angle>
0.873

> <Pdih>
1.693

> <Idih>
0.000

> <Tether>
0.000

$$$$
VeraChem MOL file


 26 25  0  0  0  0  0  0  0  0999 V2000     
   17.3425   22.5139   22.5779 C   0  0  0  0  0  0  0  0  0  0  0  0
   16.9246   23.1320   21.7727 H   0  0  0  0  0  0  0  0  0  0  0  0
   16.5072   22.1436   23.1865 H   0  0  0  0  0  0  0  0  0  0  0  0
   17.9658   23.1600   23.2098 H   0  0  0  0  0  0  0  0  0  0  0  0
   18.1661   21.3453   21.9964 C   0  0  0  0  0  0  0  0  0  0  0  0
   18.9722   21.7460   21.3659 H   0  0  0  0  0  0  0  0  0  0  0  0
   17.5250   20.7372   21.3429 H   0  0  0  0  0  0  0  0  0  0  0  0
   18.7662   20.4585   23.1099 C   0  0  0  0  0  0  0  0  0  0  0  0
   19.4047   21.0710   23.7616 H   0  0  0  0  0  0  0  0  0  0  0  0
   17.9563   20.0636   23.7389 H   0  0  0  0  0  0  0  0  0  0  0  0
   19.5916   19.2868   22.5314 C   0  0  0  0  0  0  0  0  0  0  0  0
   20.3917   19.6923   21.8985 H   0  0  0  0  0  0  0  0  0  0  0  0
   18.9511   18.6721   21.8837 H   0  0  0  0  0  0  0  0  0  0  0  0
   20.1954   18.4024   23.6501 C   0  0  0  0  0  0  0  0  0  0  0  0
   20.8871   18.9981   24.2605 H   0  0  0  0  0  0  0  0  0  0  0  0
   19.3852   18.0841   24.3194 H   0  0  0  0  0  0  0  0  0  0  0  0
   20.9192   17.1412   23.1252 C   0  0  1  0  0  0  0  0  0  0  0  0
   20.2238   16.5872   22.4871 H   0  0  0  0  0  0  0  0  0  0  0  0
   22.1679   17.4912   22.2959 C   0  0  0  0  0  0  0  0  0  0  0  0
   22.8701   18.1039   22.8749 H   0  0  0  0  0  0  0  0  0  0  0  0
   21.9015   18.0406   21.3856 H   0  0  0  0  0  0  0  0  0  0  0  0
   22.6911   16.5796   21.9821 H   0  0  0  0  0  0  0  0  0  0  0  0
   21.2865   16.2177   24.2536 N   0  3  0  0  0  0  0  0  0  0  0  0
   21.9424   16.6612   24.9021 H   0  0  0  0  0  0  0  0  0  0  0  0
   20.4634   15.9356   24.7936 H   0  0  0  0  0  0  0  0  0  0  0  0
   21.7306   15.3624   23.9076 H   0  0  0  0  0  0  0  0  0  0  0  0
  1  2  1  0  0  0  0
  1  3  1  0  0  0  0
  1  4  1  0  0  0  0
  1  5  1  0  0  0  0
  5  6  1  0  0  0  0
  5  7  1  0  0  0  0
  5  8  1  0  0  0  0
  8  9  1  0  0  0  0
  8 10  1  0  0  0  0
  8 11  1  0  0  0  0
 11 12  1  0  0  0  0
 11 13  1  0  0  0  0
 11 14  1  0  0  0  0
 14 15  1  0  0  0  0
 14 16  1  0  0  0  0
 14 17  1  0  0  0  0
 17 18  1  0  0  0  0
 17 19  1  0  0  0  0
 19 20  1  0  0  0  0
 19 21  1  0  0  0  0
 19 22  1  0  0  0  0
 17 23  1  0  0  0  0
 23 24  1  0  0  0  0
 23 25  1  0  0  0  0
 23 26  1  0  0  0  0
M  END
> <VConfSearch Rank>
142

> <Conf_Id>
54

> <Delta U+W>
0.453

> <U+W>
-29.845

> <U>
23.817

> <W>
-53.663

> <W(PB)>
-56.021

> <W(SA)>
2.358

> <Valence>
3.277

> <Coulomb>
19.492

> <VdW>
1.049

> <VdW6>
-6.949

> <VdW12>
7.998

> <Bond>
0.183

> <Angle>
1.152

> <Pdih>
1.942

> <Idih>
0.000

> <Tether>
0.000

$$$$
VeraChem MOL file


 26 25  0  0  0  0  0  0  0  0999 V2000     
   18.7435   22.5883   22.6542 C   0  0  0  0  0  0  0  0  0  0  0  0
   19.5189   22.9070   23.3629 H   0  0  0  0  0  0  0  0  0  0  0  0
   19.2038   22.4847   21.6642 H   0  0  0  0  0  0  0  0  0  0  0  0
   17.9996   23.3928   22.5877 H   0  0  0  0  0  0  0  0  0  0  0  0
   18.0756   21.2726   23.1153 C   0  0  0  0  0  0  0  0  0  0  0  0
   17.3284   20.9557   22.3743 H   0  0  0  0  0  0  0  0  0  0  0  0
   17.5221   21.4682   24.0445 H   0  0  0  0  0  0  0  0  0  0  0  0
   19.0812   20.1239   23.3720 C   0  0  0  0  0  0  0  0  0  0  0  0
   19.8423   20.4581   24.0906 H   0  0  0  0  0  0  0  0  0  0  0  0
   18.5291   19.3040   23.8465 H   0  0  0  0  0  0  0  0  0  0  0  0
   19.7629   19.6020   22.0819 C   0  0  0  0  0  0  0  0  0  0  0  0
   20.2072   20.4459   21.5393 H   0  0  0  0  0  0  0  0  0  0  0  0
   19.0017   19.1771   21.4132 H   0  0  0  0  0  0  0  0  0  0  0  0
   20.8860   18.5568   22.3149 C   0  0  0  0  0  0  0  0  0  0  0  0
   21.3446   18.3558   21.3375 H   0  0  0  0  0  0  0  0  0  0  0  0
   21.6827   18.9889   22.9348 H   0  0  0  0  0  0  0  0  0  0  0  0
   20.4122   17.2154   22.9237 C   0  0  1  0  0  0  0  0  0  0  0  0
   19.4396   16.9634   22.4899 H   0  0  0  0  0  0  0  0  0  0  0  0
   21.4004   16.0899   22.5750 C   0  0  0  0  0  0  0  0  0  0  0  0
   21.0622   15.1328   22.9912 H   0  0  0  0  0  0  0  0  0  0  0  0
   22.4004   16.3022   22.9737 H   0  0  0  0  0  0  0  0  0  0  0  0
   21.4846   15.9661   21.4881 H   0  0  0  0  0  0  0  0  0  0  0  0
   20.2302   17.2836   24.4157 N   0  3  0  0  0  0  0  0  0  0  0  0
   19.5706   18.0185   24.6803 H   0  0  0  0  0  0  0  0  0  0  0  0
   19.8737   16.3994   24.7895 H   0  0  0  0  0  0  0  0  0  0  0  0
   21.1158   17.4802   24.8893 H   0  0  0  0  0  0  0  0  0  0  0  0
  1  2  1  0  0  0  0
  1  3  1  0  0  0  0
  1  4  1  0  0  0  0
  1  5  1  0  0  0  0
  5  6  1  0  0  0  0
  5  7  1  0  0  0  0
  5  8  1  0  0  0  0
  8  9  1  0  0  0  0
  8 10  1  0  0  0  0
  8 11  1  0  0  0  0
 11 12  1  0  0  0  0
 11 13  1  0  0  0  0
 11 14  1  0  0  0  0
 14 15  1  0  0  0  0
 14 16  1  0  0  0  0
 14 17  1  0  0  0  0
 17 18  1  0  0  0  0
 17 19  1  0  0  0  0
 19 20  1  0  0  0  0
 19 21  1  0  0  0  0
 19 22  1  0  0  0  0
 17 23  1  0  0  0  0
 23 24  1  0  0  0  0
 23 25  1  0  0  0  0
 23 26  1  0  0  0  0
M  END
> <VConfSearch Rank>
143

> <Conf_Id>
110

> <Delta U+W>
3.764

> <U+W>
-26.535

> <U>
27.400

> <W>
-53.935

> <W(PB)>
-56.238

> <W(SA)>
2.303

> <Valence>
5.205

> <Coulomb>
21.096

> <VdW>
1.098

> <VdW6>
-8.389

> <VdW12>
9.488

> <Bond>
0.270

> <Angle>
1.912

> <Pdih>
3.023

> <Idih>
0.000

> <Tether>
0.000

$$$$
VeraChem MOL file


 26 25  0  0  0  0  0  0  0  0999 V2000     
   17.7691   21.7070   24.6338 C   0  0  0  0  0  0  0  0  0  0  0  0
   17.4683   22.7576   24.7366 H   0  0  0  0  0  0  0  0  0  0  0  0
   17.0540   21.2242   23.9563 H   0  0  0  0  0  0  0  0  0  0  0  0
   17.6816   21.2347   25.6208 H   0  0  0  0  0  0  0  0  0  0  0  0
   19.2151   21.6086   24.0968 C   0  0  0  0  0  0  0  0  0  0  0  0
   19.8736   22.2077   24.7412 H   0  0  0  0  0  0  0  0  0  0  0  0
   19.2692   22.0612   23.0969 H   0  0  0  0  0  0  0  0  0  0  0  0
   19.7557   20.1593   24.0446 C   0  0  0  0  0  0  0  0  0  0  0  0
   20.8151   20.1965   23.7642 H   0  0  0  0  0  0  0  0  0  0  0  0
   19.7245   19.7224   25.0523 H   0  0  0  0  0  0  0  0  0  0  0  0
   18.9773   19.2474   23.0615 C   0  0  0  0  0  0  0  0  0  0  0  0
   18.8810   19.7330   22.0806 H   0  0  0  0  0  0  0  0  0  0  0  0
   17.9541   19.1211   23.4397 H   0  0  0  0  0  0  0  0  0  0  0  0
   19.6090   17.8392   22.8992 C   0  0  0  0  0  0  0  0  0  0  0  0
   20.1669   17.5651   23.8045 H   0  0  0  0  0  0  0  0  0  0  0  0
   18.7902   17.1117   22.8215 H   0  0  0  0  0  0  0  0  0  0  0  0
   20.5028   17.6689   21.6470 C   0  0  1  0  0  0  0  0  0  0  0  0
   19.9003   17.9067   20.7649 H   0  0  0  0  0  0  0  0  0  0  0  0
   21.7273   18.5997   21.6556 C   0  0  0  0  0  0  0  0  0  0  0  0
   22.3252   18.4620   22.5649 H   0  0  0  0  0  0  0  0  0  0  0  0
   21.4229   19.6510   21.5935 H   0  0  0  0  0  0  0  0  0  0  0  0
   22.3716   18.3991   20.7908 H   0  0  0  0  0  0  0  0  0  0  0  0
   20.9388   16.2389   21.4864 N   0  3  0  0  0  0  0  0  0  0  0  0
   20.1374   15.6040   21.4287 H   0  0  0  0  0  0  0  0  0  0  0  0
   21.4910   16.1096   20.6338 H   0  0  0  0  0  0  0  0  0  0  0  0
   21.5171   15.9333   22.2736 H   0  0  0  0  0  0  0  0  0  0  0  0
  1  2  1  0  0  0  0
  1  3  1  0  0  0  0
  1  4  1  0  0  0  0
  1  5  1  0  0  0  0
  5  6  1  0  0  0  0
  5  7  1  0  0  0  0
  5  8  1  0  0  0  0
  8  9  1  0  0  0  0
  8 10  1  0  0  0  0
  8 11  1  0  0  0  0
 11 12  1  0  0  0  0
 11 13  1  0  0  0  0
 11 14  1  0  0  0  0
 14 15  1  0  0  0  0
 14 16  1  0  0  0  0
 14 17  1  0  0  0  0
 17 18  1  0  0  0  0
 17 19  1  0  0  0  0
 19 20  1  0  0  0  0
 19 21  1  0  0  0  0
 19 22  1  0  0  0  0
 17 23  1  0  0  0  0
 23 24  1  0  0  0  0
 23 25  1  0  0  0  0
 23 26  1  0  0  0  0
M  END
> <VConfSearch Rank>
144

> <Conf_Id>
34

> <Delta U+W>
3.568

> <U+W>
-26.731

> <U>
27.221

> <W>
-53.952

> <W(PB)>
-56.213

> <W(SA)>
2.261

> <Valence>
6.368

> <Coulomb>
19.698

> <VdW>
1.155

> <VdW6>
-8.532

> <VdW12>
9.687

> <Bond>
0.272

> <Angle>
1.847

> <Pdih>
4.248

> <Idih>
0.000

> <Tether>
0.000

$$$$
VeraChem MOL file


 26 25  0  0  0  0  0  0  0  0999 V2000     
   17.8663   17.8684   26.2850 C   0  0  0  0  0  0  0  0  0  0  0  0
   17.6821   18.8523   26.7359 H   0  0  0  0  0  0  0  0  0  0  0  0
   16.9375   17.5326   25.8057 H   0  0  0  0  0  0  0  0  0  0  0  0
   18.1009   17.1653   27.0948 H   0  0  0  0  0  0  0  0  0  0  0  0
   19.0243   17.9328   25.2666 C   0  0  0  0  0  0  0  0  0  0  0  0
   19.2070   16.9287   24.8586 H   0  0  0  0  0  0  0  0  0  0  0  0
   19.9459   18.2382   25.7816 H   0  0  0  0  0  0  0  0  0  0  0  0
   18.7193   18.9164   24.1152 C   0  0  0  0  0  0  0  0  0  0  0  0
   17.7960   18.6080   23.6056 H   0  0  0  0  0  0  0  0  0  0  0  0
   18.5349   19.9177   24.5285 H   0  0  0  0  0  0  0  0  0  0  0  0
   19.8767   18.9841   23.0932 C   0  0  0  0  0  0  0  0  0  0  0  0
   20.0566   17.9804   22.6860 H   0  0  0  0  0  0  0  0  0  0  0  0
   20.7948   19.2882   23.6130 H   0  0  0  0  0  0  0  0  0  0  0  0
   19.5654   19.9754   21.9417 C   0  0  0  0  0  0  0  0  0  0  0  0
   18.6199   19.6873   21.4637 H   0  0  0  0  0  0  0  0  0  0  0  0
   19.3989   20.9769   22.3602 H   0  0  0  0  0  0  0  0  0  0  0  0
   20.6565   20.0689   20.8488 C   0  0  1  0  0  0  0  0  0  0  0  0
   20.2980   20.7730   20.0915 H   0  0  0  0  0  0  0  0  0  0  0  0
   21.9839   20.6169   21.4014 C   0  0  0  0  0  0  0  0  0  0  0  0
   22.4541   19.9142   22.0994 H   0  0  0  0  0  0  0  0  0  0  0  0
   21.8254   21.5680   21.9248 H   0  0  0  0  0  0  0  0  0  0  0  0
   22.6922   20.8013   20.5844 H   0  0  0  0  0  0  0  0  0  0  0  0
   20.8683   18.7619   20.1352 N   0  3  0  0  0  0  0  0  0  0  0  0
   21.5469   18.8569   19.3743 H   0  0  0  0  0  0  0  0  0  0  0  0
   21.2205   18.0433   20.7722 H   0  0  0  0  0  0  0  0  0  0  0  0
   19.9974   18.4119   19.7260 H   0  0  0  0  0  0  0  0  0  0  0  0
  1  2  1  0  0  0  0
  1  3  1  0  0  0  0
  1  4  1  0  0  0  0
  1  5  1  0  0  0  0
  5  6  1  0  0  0  0
  5  7  1  0  0  0  0
  5  8  1  0  0  0  0
  8  9  1  0  0  0  0
  8 10  1  0  0  0  0
  8 11  1  0  0  0  0
 11 12  1  0  0  0  0
 11 13  1  0  0  0  0
 11 14  1  0  0  0  0
 14 15  1  0  0  0  0
 14 16  1  0  0  0  0
 14 17  1  0  0  0  0
 17 18  1  0  0  0  0
 17 19  1  0  0  0  0
 19 20  1  0  0  0  0
 19 21  1  0  0  0  0
 19 22  1  0  0  0  0
 17 23  1  0  0  0  0
 23 24  1  0  0  0  0
 23 25  1  0  0  0  0
 23 26  1  0  0  0  0
M  END
> <VConfSearch Rank>
145

> <Conf_Id>
132

> <Delta U+W>
0.363

> <U+W>
-29.936

> <U>
24.060

> <W>
-53.996

> <W(PB)>
-56.327

> <W(SA)>
2.332

> <Valence>
3.249

> <Coulomb>
19.781

> <VdW>
1.030

> <VdW6>
-7.421

> <VdW12>
8.451

> <Bond>
0.207

> <Angle>
1.205

> <Pdih>
1.837

> <Idih>
0.000

> <Tether>
0.000

$$$$
VeraChem MOL file


 26 25  0  0  0  0  0  0  0  0999 V2000     
   19.5181   17.5810   19.3437 C   0  0  0  0  0  0  0  0  0  0  0  0
   20.2828   17.6665   18.5608 H   0  0  0  0  0  0  0  0  0  0  0  0
   19.2629   16.5186   19.4503 H   0  0  0  0  0  0  0  0  0  0  0  0
   18.6226   18.1150   19.0000 H   0  0  0  0  0  0  0  0  0  0  0  0
   20.0345   18.1647   20.6759 C   0  0  0  0  0  0  0  0  0  0  0  0
   20.3176   19.2137   20.5179 H   0  0  0  0  0  0  0  0  0  0  0  0
   20.9458   17.6302   20.9784 H   0  0  0  0  0  0  0  0  0  0  0  0
   18.9709   18.0593   21.7944 C   0  0  0  0  0  0  0  0  0  0  0  0
   18.0806   18.6397   21.5155 H   0  0  0  0  0  0  0  0  0  0  0  0
   18.6430   17.0136   21.8756 H   0  0  0  0  0  0  0  0  0  0  0  0
   19.4793   18.5215   23.1823 C   0  0  0  0  0  0  0  0  0  0  0  0
   20.3643   17.9324   23.4567 H   0  0  0  0  0  0  0  0  0  0  0  0
   18.7047   18.2809   23.9217 H   0  0  0  0  0  0  0  0  0  0  0  0
   19.8050   20.0391   23.2455 C   0  0  0  0  0  0  0  0  0  0  0  0
   20.6013   20.2748   22.5292 H   0  0  0  0  0  0  0  0  0  0  0  0
   18.9267   20.6134   22.9225 H   0  0  0  0  0  0  0  0  0  0  0  0
   20.2509   20.5515   24.6356 C   0  0  1  0  0  0  0  0  0  0  0  0
   20.5000   21.6116   24.5254 H   0  0  0  0  0  0  0  0  0  0  0  0
   19.1273   20.4469   25.6819 C   0  0  0  0  0  0  0  0  0  0  0  0
   18.8920   19.4038   25.9236 H   0  0  0  0  0  0  0  0  0  0  0  0
   18.2118   20.9319   25.3212 H   0  0  0  0  0  0  0  0  0  0  0  0
   19.4232   20.9466   26.6125 H   0  0  0  0  0  0  0  0  0  0  0  0
   21.5047   19.8773   25.1212 N   0  3  0  0  0  0  0  0  0  0  0  0
   22.2715   19.9827   24.4510 H   0  0  0  0  0  0  0  0  0  0  0  0
   21.8206   20.2714   26.0118 H   0  0  0  0  0  0  0  0  0  0  0  0
   21.3558   18.8755   25.2645 H   0  0  0  0  0  0  0  0  0  0  0  0
  1  2  1  0  0  0  0
  1  3  1  0  0  0  0
  1  4  1  0  0  0  0
  1  5  1  0  0  0  0
  5  6  1  0  0  0  0
  5  7  1  0  0  0  0
  5  8  1  0  0  0  0
  8  9  1  0  0  0  0
  8 10  1  0  0  0  0
  8 11  1  0  0  0  0
 11 12  1  0  0  0  0
 11 13  1  0  0  0  0
 11 14  1  0  0  0  0
 14 15  1  0  0  0  0
 14 16  1  0  0  0  0
 14 17  1  0  0  0  0
 17 18  1  0  0  0  0
 17 19  1  0  0  0  0
 19 20  1  0  0  0  0
 19 21  1  0  0  0  0
 19 22  1  0  0  0  0
 17 23  1  0  0  0  0
 23 24  1  0  0  0  0
 23 25  1  0  0  0  0
 23 26  1  0  0  0  0
M  END
> <VConfSearch Rank>
146

> <Conf_Id>
46

> <Delta U+W>
1.114

> <U+W>
-29.185

> <U>
24.990

> <W>
-54.175

> <W(PB)>
-56.455

> <W(SA)>
2.279

> <Valence>
3.862

> <Coulomb>
19.956

> <VdW>
1.172

> <VdW6>
-8.054

> <VdW12>
9.226

> <Bond>
0.258

> <Angle>
1.499

> <Pdih>
2.106

> <Idih>
0.000

> <Tether>
0.000

$$$$
VeraChem MOL file


 26 25  0  0  0  0  0  0  0  0999 V2000     
   21.6002   22.2361   23.8262 C   0  0  0  0  0  0  0  0  0  0  0  0
   21.3624   21.8537   24.8264 H   0  0  0  0  0  0  0  0  0  0  0  0
   22.6042   21.8862   23.5531 H   0  0  0  0  0  0  0  0  0  0  0  0
   21.6332   23.3313   23.8920 H   0  0  0  0  0  0  0  0  0  0  0  0
   20.5523   21.7890   22.7818 C   0  0  0  0  0  0  0  0  0  0  0  0
   20.7620   22.2993   21.8313 H   0  0  0  0  0  0  0  0  0  0  0  0
   19.5528   22.1217   23.0948 H   0  0  0  0  0  0  0  0  0  0  0  0
   20.5421   20.2614   22.5319 C   0  0  0  0  0  0  0  0  0  0  0  0
   19.8659   20.0593   21.6910 H   0  0  0  0  0  0  0  0  0  0  0  0
   21.5412   19.9366   22.2102 H   0  0  0  0  0  0  0  0  0  0  0  0
   20.0978   19.4379   23.7675 C   0  0  0  0  0  0  0  0  0  0  0  0
   19.1119   19.7805   24.1084 H   0  0  0  0  0  0  0  0  0  0  0  0
   20.7888   19.6251   24.5996 H   0  0  0  0  0  0  0  0  0  0  0  0
   20.0684   17.9099   23.5053 C   0  0  0  0  0  0  0  0  0  0  0  0
   21.0836   17.5756   23.2533 H   0  0  0  0  0  0  0  0  0  0  0  0
   19.7984   17.3934   24.4360 H   0  0  0  0  0  0  0  0  0  0  0  0
   19.1012   17.4735   22.3817 C   0  0  1  0  0  0  0  0  0  0  0  0
   19.3980   17.9754   21.4561 H   0  0  0  0  0  0  0  0  0  0  0  0
   19.1963   15.9565   22.1539 C   0  0  0  0  0  0  0  0  0  0  0  0
   18.5416   15.6458   21.3304 H   0  0  0  0  0  0  0  0  0  0  0  0
   18.9022   15.4004   23.0529 H   0  0  0  0  0  0  0  0  0  0  0  0
   20.2212   15.6654   21.8921 H   0  0  0  0  0  0  0  0  0  0  0  0
   17.6796   17.8799   22.6580 N   0  3  0  0  0  0  0  0  0  0  0  0
   17.5987   18.8937   22.7730 H   0  0  0  0  0  0  0  0  0  0  0  0
   17.0560   17.6062   21.8934 H   0  0  0  0  0  0  0  0  0  0  0  0
   17.3263   17.4429   23.5133 H   0  0  0  0  0  0  0  0  0  0  0  0
  1  2  1  0  0  0  0
  1  3  1  0  0  0  0
  1  4  1  0  0  0  0
  1  5  1  0  0  0  0
  5  6  1  0  0  0  0
  5  7  1  0  0  0  0
  5  8  1  0  0  0  0
  8  9  1  0  0  0  0
  8 10  1  0  0  0  0
  8 11  1  0  0  0  0
 11 12  1  0  0  0  0
 11 13  1  0  0  0  0
 11 14  1  0  0  0  0
 14 15  1  0  0  0  0
 14 16  1  0  0  0  0
 14 17  1  0  0  0  0
 17 18  1  0  0  0  0
 17 19  1  0  0  0  0
 19 20  1  0  0  0  0
 19 21  1  0  0  0  0
 19 22  1  0  0  0  0
 17 23  1  0  0  0  0
 23 24  1  0  0  0  0
 23 25  1  0  0  0  0
 23 26  1  0  0  0  0
M  END
> <VConfSearch Rank>
147

> <Conf_Id>
113

> <Delta U+W>
1.137

> <U+W>
-29.162

> <U>
24.833

> <W>
-53.995

> <W(PB)>
-56.288

> <W(SA)>
2.294

> <Valence>
3.589

> <Coulomb>
20.270

> <VdW>
0.974

> <VdW6>
-8.255

> <VdW12>
9.229

> <Bond>
0.244

> <Angle>
1.377

> <Pdih>
1.967

> <Idih>
0.000

> <Tether>
0.000

$$$$
VeraChem MOL file


 26 25  0  0  0  0  0  0  0  0999 V2000     
   20.1317   15.5343   24.4807 C   0  0  0  0  0  0  0  0  0  0  0  0
   19.9665   15.2920   25.5385 H   0  0  0  0  0  0  0  0  0  0  0  0
   19.3558   15.0261   23.8933 H   0  0  0  0  0  0  0  0  0  0  0  0
   21.1064   15.1220   24.1891 H   0  0  0  0  0  0  0  0  0  0  0  0
   20.0851   17.0609   24.2576 C   0  0  0  0  0  0  0  0  0  0  0  0
   20.8520   17.5432   24.8796 H   0  0  0  0  0  0  0  0  0  0  0  0
   19.1128   17.4406   24.5984 H   0  0  0  0  0  0  0  0  0  0  0  0
   20.3111   17.4268   22.7715 C   0  0  0  0  0  0  0  0  0  0  0  0
   21.2497   16.9685   22.4305 H   0  0  0  0  0  0  0  0  0  0  0  0
   19.5134   16.9880   22.1565 H   0  0  0  0  0  0  0  0  0  0  0  0
   20.3879   18.9517   22.5130 C   0  0  0  0  0  0  0  0  0  0  0  0
   20.6683   19.1059   21.4629 H   0  0  0  0  0  0  0  0  0  0  0  0
   21.2004   19.3769   23.1169 H   0  0  0  0  0  0  0  0  0  0  0  0
   19.0561   19.6940   22.8093 C   0  0  0  0  0  0  0  0  0  0  0  0
   18.2358   19.1893   22.2823 H   0  0  0  0  0  0  0  0  0  0  0  0
   18.8214   19.6198   23.8784 H   0  0  0  0  0  0  0  0  0  0  0  0
   19.0448   21.1898   22.4144 C   0  0  1  0  0  0  0  0  0  0  0  0
   18.0554   21.5846   22.6657 H   0  0  0  0  0  0  0  0  0  0  0  0
   20.0848   22.0034   23.2044 C   0  0  0  0  0  0  0  0  0  0  0  0
   21.1097   21.7239   22.9325 H   0  0  0  0  0  0  0  0  0  0  0  0
   19.9614   21.8506   24.2837 H   0  0  0  0  0  0  0  0  0  0  0  0
   19.9657   23.0753   23.0046 H   0  0  0  0  0  0  0  0  0  0  0  0
   19.2106   21.3959   20.9337 N   0  3  0  0  0  0  0  0  0  0  0  0
   18.4954   20.8917   20.4019 H   0  0  0  0  0  0  0  0  0  0  0  0
   19.1362   22.3859   20.6832 H   0  0  0  0  0  0  0  0  0  0  0  0
   20.1237   21.0661   20.6119 H   0  0  0  0  0  0  0  0  0  0  0  0
  1  2  1  0  0  0  0
  1  3  1  0  0  0  0
  1  4  1  0  0  0  0
  1  5  1  0  0  0  0
  5  6  1  0  0  0  0
  5  7  1  0  0  0  0
  5  8  1  0  0  0  0
  8  9  1  0  0  0  0
  8 10  1  0  0  0  0
  8 11  1  0  0  0  0
 11 12  1  0  0  0  0
 11 13  1  0  0  0  0
 11 14  1  0  0  0  0
 14 15  1  0  0  0  0
 14 16  1  0  0  0  0
 14 17  1  0  0  0  0
 17 18  1  0  0  0  0
 17 19  1  0  0  0  0
 19 20  1  0  0  0  0
 19 21  1  0  0  0  0
 19 22  1  0  0  0  0
 17 23  1  0  0  0  0
 23 24  1  0  0  0  0
 23 25  1  0  0  0  0
 23 26  1  0  0  0  0
M  END
> <VConfSearch Rank>
148

> <Conf_Id>
45

> <Delta U+W>
1.035

> <U+W>
-29.264

> <U>
24.725

> <W>
-53.989

> <W(PB)>
-56.298

> <W(SA)>
2.309

> <Valence>
3.780

> <Coulomb>
19.804

> <VdW>
1.141

> <VdW6>
-8.104

> <VdW12>
9.246

> <Bond>
0.254

> <Angle>
1.437

> <Pdih>
2.089

> <Idih>
0.000

> <Tether>
0.000

$$$$
VeraChem MOL file


 26 25  0  0  0  0  0  0  0  0999 V2000     
   21.9385   21.8796   24.8895 C   0  0  0  0  0  0  0  0  0  0  0  0
   22.2032   22.8583   24.4685 H   0  0  0  0  0  0  0  0  0  0  0  0
   21.5636   22.0418   25.9085 H   0  0  0  0  0  0  0  0  0  0  0  0
   22.8566   21.2811   24.9541 H   0  0  0  0  0  0  0  0  0  0  0  0
   20.8796   21.1777   24.0129 C   0  0  0  0  0  0  0  0  0  0  0  0
   21.2757   21.0719   22.9944 H   0  0  0  0  0  0  0  0  0  0  0  0
   19.9856   21.8129   23.9436 H   0  0  0  0  0  0  0  0  0  0  0  0
   20.4940   19.7928   24.5849 C   0  0  0  0  0  0  0  0  0  0  0  0
   21.3771   19.1393   24.6010 H   0  0  0  0  0  0  0  0  0  0  0  0
   20.1827   19.9150   25.6316 H   0  0  0  0  0  0  0  0  0  0  0  0
   19.3465   19.0969   23.8118 C   0  0  0  0  0  0  0  0  0  0  0  0
   18.4636   19.7509   23.7981 H   0  0  0  0  0  0  0  0  0  0  0  0
   19.0568   18.1984   24.3722 H   0  0  0  0  0  0  0  0  0  0  0  0
   19.7273   18.7023   22.3613 C   0  0  0  0  0  0  0  0  0  0  0  0
   19.9930   19.6050   21.7977 H   0  0  0  0  0  0  0  0  0  0  0  0
   20.6203   18.0635   22.3721 H   0  0  0  0  0  0  0  0  0  0  0  0
   18.5837   17.9825   21.6133 C   0  0  1  0  0  0  0  0  0  0  0  0
   17.6961   18.6218   21.6472 H   0  0  0  0  0  0  0  0  0  0  0  0
   18.9640   17.7634   20.1400 C   0  0  0  0  0  0  0  0  0  0  0  0
   19.8522   17.1255   20.0498 H   0  0  0  0  0  0  0  0  0  0  0  0
   19.1783   18.7193   19.6460 H   0  0  0  0  0  0  0  0  0  0  0  0
   18.1421   17.2841   19.5939 H   0  0  0  0  0  0  0  0  0  0  0  0
   18.2029   16.6772   22.2573 N   0  3  0  0  0  0  0  0  0  0  0  0
   17.9009   16.8113   23.2259 H   0  0  0  0  0  0  0  0  0  0  0  0
   17.4328   16.2240   21.7573 H   0  0  0  0  0  0  0  0  0  0  0  0
   18.9891   16.0222   22.2672 H   0  0  0  0  0  0  0  0  0  0  0  0
  1  2  1  0  0  0  0
  1  3  1  0  0  0  0
  1  4  1  0  0  0  0
  1  5  1  0  0  0  0
  5  6  1  0  0  0  0
  5  7  1  0  0  0  0
  5  8  1  0  0  0  0
  8  9  1  0  0  0  0
  8 10  1  0  0  0  0
  8 11  1  0  0  0  0
 11 12  1  0  0  0  0
 11 13  1  0  0  0  0
 11 14  1  0  0  0  0
 14 15  1  0  0  0  0
 14 16  1  0  0  0  0
 14 17  1  0  0  0  0
 17 18  1  0  0  0  0
 17 19  1  0  0  0  0
 19 20  1  0  0  0  0
 19 21  1  0  0  0  0
 19 22  1  0  0  0  0
 17 23  1  0  0  0  0
 23 24  1  0  0  0  0
 23 25  1  0  0  0  0
 23 26  1  0  0  0  0
M  END
> <VConfSearch Rank>
149

> <Conf_Id>
121

> <Delta U+W>
0.736

> <U+W>
-29.562

> <U>
24.282

> <W>
-53.844

> <W(PB)>
-56.205

> <W(SA)>
2.361

> <Valence>
3.311

> <Coulomb>
19.887

> <VdW>
1.083

> <VdW6>
-7.444

> <VdW12>
8.527

> <Bond>
0.219

> <Angle>
1.167

> <Pdih>
1.926

> <Idih>
0.000

> <Tether>
0.000

$$$$
VeraChem MOL file


 26 25  0  0  0  0  0  0  0  0999 V2000     
   16.9331   21.4067   22.6551 C   0  0  0  0  0  0  0  0  0  0  0  0
   16.3774   22.1897   22.1231 H   0  0  0  0  0  0  0  0  0  0  0  0
   16.2021   20.7076   23.0816 H   0  0  0  0  0  0  0  0  0  0  0  0
   17.4711   21.8886   23.4807 H   0  0  0  0  0  0  0  0  0  0  0  0
   17.9000   20.6811   21.6920 C   0  0  0  0  0  0  0  0  0  0  0  0
   18.6417   21.3941   21.3057 H   0  0  0  0  0  0  0  0  0  0  0  0
   17.3307   20.3281   20.8207 H   0  0  0  0  0  0  0  0  0  0  0  0
   18.6211   19.4720   22.3354 C   0  0  0  0  0  0  0  0  0  0  0  0
   17.8752   18.7587   22.7123 H   0  0  0  0  0  0  0  0  0  0  0  0
   19.1781   18.9500   21.5464 H   0  0  0  0  0  0  0  0  0  0  0  0
   19.5898   19.8690   23.4782 C   0  0  0  0  0  0  0  0  0  0  0  0
   19.0294   20.3772   24.2734 H   0  0  0  0  0  0  0  0  0  0  0  0
   20.3212   20.6001   23.1097 H   0  0  0  0  0  0  0  0  0  0  0  0
   20.3203   18.6554   24.1100 C   0  0  0  0  0  0  0  0  0  0  0  0
   20.9630   19.0123   24.9257 H   0  0  0  0  0  0  0  0  0  0  0  0
   19.5696   18.0045   24.5772 H   0  0  0  0  0  0  0  0  0  0  0  0
   21.1668   17.8103   23.1285 C   0  0  1  0  0  0  0  0  0  0  0  0
   20.5128   17.4510   22.3286 H   0  0  0  0  0  0  0  0  0  0  0  0
   22.3068   18.6276   22.4952 C   0  0  0  0  0  0  0  0  0  0  0  0
   22.9603   19.0589   23.2637 H   0  0  0  0  0  0  0  0  0  0  0  0
   21.9151   19.4449   21.8785 H   0  0  0  0  0  0  0  0  0  0  0  0
   22.9204   17.9942   21.8428 H   0  0  0  0  0  0  0  0  0  0  0  0
   21.7165   16.5848   23.8042 N   0  3  0  0  0  0  0  0  0  0  0  0
   20.9705   16.0033   24.1965 H   0  0  0  0  0  0  0  0  0  0  0  0
   22.2442   16.0011   23.1490 H   0  0  0  0  0  0  0  0  0  0  0  0
   22.3488   16.8314   24.5702 H   0  0  0  0  0  0  0  0  0  0  0  0
  1  2  1  0  0  0  0
  1  3  1  0  0  0  0
  1  4  1  0  0  0  0
  1  5  1  0  0  0  0
  5  6  1  0  0  0  0
  5  7  1  0  0  0  0
  5  8  1  0  0  0  0
  8  9  1  0  0  0  0
  8 10  1  0  0  0  0
  8 11  1  0  0  0  0
 11 12  1  0  0  0  0
 11 13  1  0  0  0  0
 11 14  1  0  0  0  0
 14 15  1  0  0  0  0
 14 16  1  0  0  0  0
 14 17  1  0  0  0  0
 17 18  1  0  0  0  0
 17 19  1  0  0  0  0
 19 20  1  0  0  0  0
 19 21  1  0  0  0  0
 19 22  1  0  0  0  0
 17 23  1  0  0  0  0
 23 24  1  0  0  0  0
 23 25  1  0  0  0  0
 23 26  1  0  0  0  0
M  END
> <VConfSearch Rank>
150

> <Conf_Id>
5

> <Delta U+W>
1.233

> <U+W>
-29.065

> <U>
25.023

> <W>
-54.088

> <W(PB)>
-56.383

> <W(SA)>
2.296

> <Valence>
4.083

> <Coulomb>
19.893

> <VdW>
1.047

> <VdW6>
-8.479

> <VdW12>
9.527

> <Bond>
0.256

> <Angle>
1.716

> <Pdih>
2.112

> <Idih>
0.000

> <Tether>
0.000

$$$$
VeraChem MOL file


 26 25  0  0  0  0  0  0  0  0999 V2000     
   19.2868   17.8447   26.3481 C   0  0  0  0  0  0  0  0  0  0  0  0
   19.2498   17.0388   27.0925 H   0  0  0  0  0  0  0  0  0  0  0  0
   20.1941   18.4296   26.5422 H   0  0  0  0  0  0  0  0  0  0  0  0
   18.4167   18.4934   26.5129 H   0  0  0  0  0  0  0  0  0  0  0  0
   19.2809   17.2592   24.9176 C   0  0  0  0  0  0  0  0  0  0  0  0
   18.4219   16.5807   24.8189 H   0  0  0  0  0  0  0  0  0  0  0  0
   20.1779   16.6426   24.7659 H   0  0  0  0  0  0  0  0  0  0  0  0
   19.1907   18.3358   23.8090 C   0  0  0  0  0  0  0  0  0  0  0  0
   19.0510   17.8204   22.8500 H   0  0  0  0  0  0  0  0  0  0  0  0
   18.2952   18.9520   23.9687 H   0  0  0  0  0  0  0  0  0  0  0  0
   20.4442   19.2422   23.7257 C   0  0  0  0  0  0  0  0  0  0  0  0
   21.3315   18.6222   23.5369 H   0  0  0  0  0  0  0  0  0  0  0  0
   20.6100   19.7297   24.6949 H   0  0  0  0  0  0  0  0  0  0  0  0
   20.3524   20.3492   22.6448 C   0  0  0  0  0  0  0  0  0  0  0  0
   19.5193   21.0279   22.8718 H   0  0  0  0  0  0  0  0  0  0  0  0
   21.2607   20.9613   22.7236 H   0  0  0  0  0  0  0  0  0  0  0  0
   20.2295   19.8048   21.2007 C   0  0  1  0  0  0  0  0  0  0  0  0
   20.5452   18.7570   21.2031 H   0  0  0  0  0  0  0  0  0  0  0  0
   18.7800   19.8827   20.6875 C   0  0  0  0  0  0  0  0  0  0  0  0
   18.4412   20.9240   20.6180 H   0  0  0  0  0  0  0  0  0  0  0  0
   18.0897   19.3480   21.3494 H   0  0  0  0  0  0  0  0  0  0  0  0
   18.6986   19.4326   19.6904 H   0  0  0  0  0  0  0  0  0  0  0  0
   21.1522   20.5176   20.2503 N   0  3  0  0  0  0  0  0  0  0  0  0
   22.1299   20.4397   20.5449 H   0  0  0  0  0  0  0  0  0  0  0  0
   21.0878   20.1298   19.3048 H   0  0  0  0  0  0  0  0  0  0  0  0
   20.9279   21.5143   20.1873 H   0  0  0  0  0  0  0  0  0  0  0  0
  1  2  1  0  0  0  0
  1  3  1  0  0  0  0
  1  4  1  0  0  0  0
  1  5  1  0  0  0  0
  5  6  1  0  0  0  0
  5  7  1  0  0  0  0
  5  8  1  0  0  0  0
  8  9  1  0  0  0  0
  8 10  1  0  0  0  0
  8 11  1  0  0  0  0
 11 12  1  0  0  0  0
 11 13  1  0  0  0  0
 11 14  1  0  0  0  0
 14 15  1  0  0  0  0
 14 16  1  0  0  0  0
 14 17  1  0  0  0  0
 17 18  1  0  0  0  0
 17 19  1  0  0  0  0
 19 20  1  0  0  0  0
 19 21  1  0  0  0  0
 19 22  1  0  0  0  0
 17 23  1  0  0  0  0
 23 24  1  0  0  0  0
 23 25  1  0  0  0  0
 23 26  1  0  0  0  0
M  END
> <VConfSearch Rank>
151

> <Conf_Id>
100

> <Delta U+W>
3.818

> <U+W>
-26.481

> <U>
27.496

> <W>
-53.977

> <W(PB)>
-56.267

> <W(SA)>
2.290

> <Valence>
6.472

> <Coulomb>
19.839

> <VdW>
1.185

> <VdW6>
-8.405

> <VdW12>
9.590

> <Bond>
0.248

> <Angle>
1.619

> <Pdih>
4.604

> <Idih>
0.000

> <Tether>
0.000

$$$$
VeraChem MOL file


 26 25  0  0  0  0  0  0  0  0999 V2000     
   17.7095   20.2233   25.7958 C   0  0  0  0  0  0  0  0  0  0  0  0
   16.7261   20.0452   26.2500 H   0  0  0  0  0  0  0  0  0  0  0  0
   18.4611   19.7054   26.4058 H   0  0  0  0  0  0  0  0  0  0  0  0
   17.9130   21.3010   25.8445 H   0  0  0  0  0  0  0  0  0  0  0  0
   17.7353   19.7191   24.3372 C   0  0  0  0  0  0  0  0  0  0  0  0
   16.9506   20.2295   23.7613 H   0  0  0  0  0  0  0  0  0  0  0  0
   17.4958   18.6467   24.3183 H   0  0  0  0  0  0  0  0  0  0  0  0
   19.1095   19.9582   23.6735 C   0  0  0  0  0  0  0  0  0  0  0  0
   19.3421   21.0318   23.6970 H   0  0  0  0  0  0  0  0  0  0  0  0
   19.8857   19.4572   24.2637 H   0  0  0  0  0  0  0  0  0  0  0  0
   19.1339   19.4588   22.2079 C   0  0  0  0  0  0  0  0  0  0  0  0
   18.3586   20.0032   21.6511 H   0  0  0  0  0  0  0  0  0  0  0  0
   18.8480   18.3999   22.1631 H   0  0  0  0  0  0  0  0  0  0  0  0
   20.4964   19.6895   21.4961 C   0  0  0  0  0  0  0  0  0  0  0  0
   20.2980   19.9380   20.4452 H   0  0  0  0  0  0  0  0  0  0  0  0
   20.9907   20.5766   21.9135 H   0  0  0  0  0  0  0  0  0  0  0  0
   21.4838   18.4960   21.5113 C   0  0  1  0  0  0  0  0  0  0  0  0
   22.3871   18.8207   20.9855 H   0  0  0  0  0  0  0  0  0  0  0  0
   21.9012   18.0815   22.9315 C   0  0  0  0  0  0  0  0  0  0  0  0
   21.0669   17.6272   23.4790 H   0  0  0  0  0  0  0  0  0  0  0  0
   22.2633   18.9468   23.5004 H   0  0  0  0  0  0  0  0  0  0  0  0
   22.7139   17.3460   22.8921 H   0  0  0  0  0  0  0  0  0  0  0  0
   20.9614   17.3141   20.7410 N   0  3  0  0  0  0  0  0  0  0  0  0
   20.7323   17.5664   19.7754 H   0  0  0  0  0  0  0  0  0  0  0  0
   21.6509   16.5581   20.7034 H   0  0  0  0  0  0  0  0  0  0  0  0
   20.1137   16.9349   21.1695 H   0  0  0  0  0  0  0  0  0  0  0  0
  1  2  1  0  0  0  0
  1  3  1  0  0  0  0
  1  4  1  0  0  0  0
  1  5  1  0  0  0  0
  5  6  1  0  0  0  0
  5  7  1  0  0  0  0
  5  8  1  0  0  0  0
  8  9  1  0  0  0  0
  8 10  1  0  0  0  0
  8 11  1  0  0  0  0
 11 12  1  0  0  0  0
 11 13  1  0  0  0  0
 11 14  1  0  0  0  0
 14 15  1  0  0  0  0
 14 16  1  0  0  0  0
 14 17  1  0  0  0  0
 17 18  1  0  0  0  0
 17 19  1  0  0  0  0
 19 20  1  0  0  0  0
 19 21  1  0  0  0  0
 19 22  1  0  0  0  0
 17 23  1  0  0  0  0
 23 24  1  0  0  0  0
 23 25  1  0  0  0  0
 23 26  1  0  0  0  0
M  END
> <VConfSearch Rank>
152

> <Conf_Id>
142

> <Delta U+W>
2.978

> <U+W>
-27.320

> <U>
26.848

> <W>
-54.168

> <W(PB)>
-56.427

> <W(SA)>
2.259

> <Valence>
5.823

> <Coulomb>
20.057

> <VdW>
0.968

> <VdW6>
-8.367

> <VdW12>
9.335

> <Bond>
0.267

> <Angle>
1.799

> <Pdih>
3.758

> <Idih>
0.000

> <Tether>
0.000

$$$$
VeraChem MOL file


 26 25  0  0  0  0  0  0  0  0999 V2000     
   22.5785   19.3297   25.0860 C   0  0  0  0  0  0  0  0  0  0  0  0
   23.0732   20.1229   24.5105 H   0  0  0  0  0  0  0  0  0  0  0  0
   22.9894   19.3481   26.1036 H   0  0  0  0  0  0  0  0  0  0  0  0
   22.8466   18.3636   24.6414 H   0  0  0  0  0  0  0  0  0  0  0  0
   21.0472   19.5387   25.1185 C   0  0  0  0  0  0  0  0  0  0  0  0
   20.8306   20.4531   25.6884 H   0  0  0  0  0  0  0  0  0  0  0  0
   20.5717   18.7146   25.6685 H   0  0  0  0  0  0  0  0  0  0  0  0
   20.4096   19.6695   23.7139 C   0  0  0  0  0  0  0  0  0  0  0  0
   19.3643   19.9686   23.8530 H   0  0  0  0  0  0  0  0  0  0  0  0
   20.9039   20.4805   23.1615 H   0  0  0  0  0  0  0  0  0  0  0  0
   20.4627   18.3591   22.8884 C   0  0  0  0  0  0  0  0  0  0  0  0
   19.9119   17.5685   23.4151 H   0  0  0  0  0  0  0  0  0  0  0  0
   21.5015   18.0103   22.8338 H   0  0  0  0  0  0  0  0  0  0  0  0
   19.9438   18.4892   21.4282 C   0  0  0  0  0  0  0  0  0  0  0  0
   20.5807   19.1948   20.8789 H   0  0  0  0  0  0  0  0  0  0  0  0
   20.0934   17.5195   20.9353 H   0  0  0  0  0  0  0  0  0  0  0  0
   18.4596   18.8886   21.2260 C   0  0  1  0  0  0  0  0  0  0  0  0
   18.2239   18.6990   20.1742 H   0  0  0  0  0  0  0  0  0  0  0  0
   17.4988   18.0340   22.0710 C   0  0  0  0  0  0  0  0  0  0  0  0
   17.6107   18.2380   23.1426 H   0  0  0  0  0  0  0  0  0  0  0  0
   17.6799   16.9651   21.9031 H   0  0  0  0  0  0  0  0  0  0  0  0
   16.4573   18.2421   21.7969 H   0  0  0  0  0  0  0  0  0  0  0  0
   18.2085   20.3581   21.4265 N   0  3  0  0  0  0  0  0  0  0  0  0
   18.7977   20.9259   20.8109 H   0  0  0  0  0  0  0  0  0  0  0  0
   17.2344   20.6011   21.2250 H   0  0  0  0  0  0  0  0  0  0  0  0
   18.4043   20.6422   22.3882 H   0  0  0  0  0  0  0  0  0  0  0  0
  1  2  1  0  0  0  0
  1  3  1  0  0  0  0
  1  4  1  0  0  0  0
  1  5  1  0  0  0  0
  5  6  1  0  0  0  0
  5  7  1  0  0  0  0
  5  8  1  0  0  0  0
  8  9  1  0  0  0  0
  8 10  1  0  0  0  0
  8 11  1  0  0  0  0
 11 12  1  0  0  0  0
 11 13  1  0  0  0  0
 11 14  1  0  0  0  0
 14 15  1  0  0  0  0
 14 16  1  0  0  0  0
 14 17  1  0  0  0  0
 17 18  1  0  0  0  0
 17 19  1  0  0  0  0
 19 20  1  0  0  0  0
 19 21  1  0  0  0  0
 19 22  1  0  0  0  0
 17 23  1  0  0  0  0
 23 24  1  0  0  0  0
 23 25  1  0  0  0  0
 23 26  1  0  0  0  0
M  END
> <VConfSearch Rank>
153

> <Conf_Id>
119

> <Delta U+W>
3.538

> <U+W>
-26.761

> <U>
27.482

> <W>
-54.243

> <W(PB)>
-56.494

> <W(SA)>
2.251

> <Valence>
5.284

> <Coulomb>
21.247

> <VdW>
0.951

> <VdW6>
-9.416

> <VdW12>
10.367

> <Bond>
0.323

> <Angle>
2.522

> <Pdih>
2.439

> <Idih>
0.000

> <Tether>
0.000

$$$$
VeraChem MOL file


 26 25  0  0  0  0  0  0  0  0999 V2000     
   18.5333   21.8374   24.7007 C   0  0  0  0  0  0  0  0  0  0  0  0
   19.2721   22.6266   24.5102 H   0  0  0  0  0  0  0  0  0  0  0  0
   17.8971   21.7396   23.8123 H   0  0  0  0  0  0  0  0  0  0  0  0
   17.8939   22.1691   25.5289 H   0  0  0  0  0  0  0  0  0  0  0  0
   19.2255   20.5014   25.0535 C   0  0  0  0  0  0  0  0  0  0  0  0
   18.4665   19.7218   25.2085 H   0  0  0  0  0  0  0  0  0  0  0  0
   19.7481   20.6163   26.0134 H   0  0  0  0  0  0  0  0  0  0  0  0
   20.2447   20.0341   23.9864 C   0  0  0  0  0  0  0  0  0  0  0  0
   21.0152   20.8064   23.8560 H   0  0  0  0  0  0  0  0  0  0  0  0
   20.7645   19.1495   24.3726 H   0  0  0  0  0  0  0  0  0  0  0  0
   19.5962   19.7127   22.6152 C   0  0  0  0  0  0  0  0  0  0  0  0
   19.1873   20.6427   22.1988 H   0  0  0  0  0  0  0  0  0  0  0  0
   18.7400   19.0395   22.7496 H   0  0  0  0  0  0  0  0  0  0  0  0
   20.5983   19.1263   21.5816 C   0  0  0  0  0  0  0  0  0  0  0  0
   20.3425   19.5225   20.5901 H   0  0  0  0  0  0  0  0  0  0  0  0
   21.6100   19.4992   21.7888 H   0  0  0  0  0  0  0  0  0  0  0  0
   20.6320   17.5817   21.4690 C   0  0  1  0  0  0  0  0  0  0  0  0
   21.3850   17.3308   20.7155 H   0  0  0  0  0  0  0  0  0  0  0  0
   21.0454   16.8951   22.7809 C   0  0  0  0  0  0  0  0  0  0  0  0
   20.2785   17.0132   23.5556 H   0  0  0  0  0  0  0  0  0  0  0  0
   21.9890   17.3090   23.1572 H   0  0  0  0  0  0  0  0  0  0  0  0
   21.1950   15.8204   22.6201 H   0  0  0  0  0  0  0  0  0  0  0  0
   19.3340   17.0193   20.9569 N   0  3  0  0  0  0  0  0  0  0  0  0
   19.0764   17.4302   20.0551 H   0  0  0  0  0  0  0  0  0  0  0  0
   19.3919   16.0056   20.8251 H   0  0  0  0  0  0  0  0  0  0  0  0
   18.5665   17.2007   21.6081 H   0  0  0  0  0  0  0  0  0  0  0  0
  1  2  1  0  0  0  0
  1  3  1  0  0  0  0
  1  4  1  0  0  0  0
  1  5  1  0  0  0  0
  5  6  1  0  0  0  0
  5  7  1  0  0  0  0
  5  8  1  0  0  0  0
  8  9  1  0  0  0  0
  8 10  1  0  0  0  0
  8 11  1  0  0  0  0
 11 12  1  0  0  0  0
 11 13  1  0  0  0  0
 11 14  1  0  0  0  0
 14 15  1  0  0  0  0
 14 16  1  0  0  0  0
 14 17  1  0  0  0  0
 17 18  1  0  0  0  0
 17 19  1  0  0  0  0
 19 20  1  0  0  0  0
 19 21  1  0  0  0  0
 19 22  1  0  0  0  0
 17 23  1  0  0  0  0
 23 24  1  0  0  0  0
 23 25  1  0  0  0  0
 23 26  1  0  0  0  0
M  END
> <VConfSearch Rank>
154

> <Conf_Id>
127

> <Delta U+W>
3.544

> <U+W>
-26.754

> <U>
27.509

> <W>
-54.263

> <W(PB)>
-56.496

> <W(SA)>
2.232

> <Valence>
6.375

> <Coulomb>
20.014

> <VdW>
1.120

> <VdW6>
-8.976

> <VdW12>
10.096

> <Bond>
0.304

> <Angle>
1.986

> <Pdih>
4.086

> <Idih>
0.000

> <Tether>
0.000

$$$$
VeraChem MOL file


 26 25  0  0  0  0  0  0  0  0999 V2000     
   16.9842   17.7680   23.3086 C   0  0  0  0  0  0  0  0  0  0  0  0
   15.9726   18.0702   23.6091 H   0  0  0  0  0  0  0  0  0  0  0  0
   16.9685   16.6849   23.1304 H   0  0  0  0  0  0  0  0  0  0  0  0
   17.6531   17.9603   24.1546 H   0  0  0  0  0  0  0  0  0  0  0  0
   17.4204   18.5298   22.0353 C   0  0  0  0  0  0  0  0  0  0  0  0
   17.3609   19.6147   22.1996 H   0  0  0  0  0  0  0  0  0  0  0  0
   16.6945   18.3048   21.2414 H   0  0  0  0  0  0  0  0  0  0  0  0
   18.8349   18.1359   21.5372 C   0  0  0  0  0  0  0  0  0  0  0  0
   19.0627   17.0989   21.8200 H   0  0  0  0  0  0  0  0  0  0  0  0
   18.8249   18.1465   20.4385 H   0  0  0  0  0  0  0  0  0  0  0  0
   19.9758   19.0780   22.0015 C   0  0  0  0  0  0  0  0  0  0  0  0
   19.7831   20.0887   21.6179 H   0  0  0  0  0  0  0  0  0  0  0  0
   20.9031   18.7388   21.5229 H   0  0  0  0  0  0  0  0  0  0  0  0
   20.1706   19.1284   23.5403 C   0  0  0  0  0  0  0  0  0  0  0  0
   19.2750   19.5606   24.0026 H   0  0  0  0  0  0  0  0  0  0  0  0
   20.2581   18.1064   23.9318 H   0  0  0  0  0  0  0  0  0  0  0  0
   21.3906   19.9522   24.0166 C   0  0  1  0  0  0  0  0  0  0  0  0
   21.3627   19.9688   25.1106 H   0  0  0  0  0  0  0  0  0  0  0  0
   22.7252   19.3097   23.5990 C   0  0  0  0  0  0  0  0  0  0  0  0
   22.7684   18.2599   23.9145 H   0  0  0  0  0  0  0  0  0  0  0  0
   23.5659   19.8328   24.0709 H   0  0  0  0  0  0  0  0  0  0  0  0
   22.8748   19.3491   22.5137 H   0  0  0  0  0  0  0  0  0  0  0  0
   21.3218   21.3887   23.5761 N   0  3  0  0  0  0  0  0  0  0  0  0
   20.4575   21.8375   23.8920 H   0  0  0  0  0  0  0  0  0  0  0  0
   22.1039   21.9329   23.9509 H   0  0  0  0  0  0  0  0  0  0  0  0
   21.3548   21.4660   22.5566 H   0  0  0  0  0  0  0  0  0  0  0  0
  1  2  1  0  0  0  0
  1  3  1  0  0  0  0
  1  4  1  0  0  0  0
  1  5  1  0  0  0  0
  5  6  1  0  0  0  0
  5  7  1  0  0  0  0
  5  8  1  0  0  0  0
  8  9  1  0  0  0  0
  8 10  1  0  0  0  0
  8 11  1  0  0  0  0
 11 12  1  0  0  0  0
 11 13  1  0  0  0  0
 11 14  1  0  0  0  0
 14 15  1  0  0  0  0
 14 16  1  0  0  0  0
 14 17  1  0  0  0  0
 17 18  1  0  0  0  0
 17 19  1  0  0  0  0
 19 20  1  0  0  0  0
 19 21  1  0  0  0  0
 19 22  1  0  0  0  0
 17 23  1  0  0  0  0
 23 24  1  0  0  0  0
 23 25  1  0  0  0  0
 23 26  1  0  0  0  0
M  END
> <VConfSearch Rank>
155

> <Conf_Id>
131

> <Delta U+W>
3.589

> <U+W>
-26.710

> <U>
27.573

> <W>
-54.283

> <W(PB)>
-56.537

> <W(SA)>
2.254

> <Valence>
6.363

> <Coulomb>
20.026

> <VdW>
1.184

> <VdW6>
-8.939

> <VdW12>
10.123

> <Bond>
0.298

> <Angle>
2.018

> <Pdih>
4.047

> <Idih>
0.000

> <Tether>
0.000

$$$$
VeraChem MOL file


 26 25  0  0  0  0  0  0  0  0999 V2000     
   18.0079   21.1320   22.1555 C   0  0  0  0  0  0  0  0  0  0  0  0
   17.2478   20.3415   22.1103 H   0  0  0  0  0  0  0  0  0  0  0  0
   18.5264   21.0658   23.1198 H   0  0  0  0  0  0  0  0  0  0  0  0
   17.4890   22.0989   22.1290 H   0  0  0  0  0  0  0  0  0  0  0  0
   18.9997   21.0202   20.9772 C   0  0  0  0  0  0  0  0  0  0  0  0
   19.7876   21.7777   21.0915 H   0  0  0  0  0  0  0  0  0  0  0  0
   18.4708   21.2700   20.0468 H   0  0  0  0  0  0  0  0  0  0  0  0
   19.6446   19.6200   20.8143 C   0  0  0  0  0  0  0  0  0  0  0  0
   18.8715   18.8730   20.5875 H   0  0  0  0  0  0  0  0  0  0  0  0
   20.2900   19.6558   19.9257 H   0  0  0  0  0  0  0  0  0  0  0  0
   20.5066   19.1578   22.0184 C   0  0  0  0  0  0  0  0  0  0  0  0
   20.9425   20.0347   22.5140 H   0  0  0  0  0  0  0  0  0  0  0  0
   21.3532   18.5720   21.6342 H   0  0  0  0  0  0  0  0  0  0  0  0
   19.7292   18.2734   23.0290 C   0  0  0  0  0  0  0  0  0  0  0  0
   18.8846   18.8246   23.4569 H   0  0  0  0  0  0  0  0  0  0  0  0
   19.2965   17.4246   22.4834 H   0  0  0  0  0  0  0  0  0  0  0  0
   20.6101   17.7188   24.1716 C   0  0  1  0  0  0  0  0  0  0  0  0
   21.4756   17.2184   23.7265 H   0  0  0  0  0  0  0  0  0  0  0  0
   21.1166   18.8335   25.1048 C   0  0  0  0  0  0  0  0  0  0  0  0
   20.2822   19.4061   25.5284 H   0  0  0  0  0  0  0  0  0  0  0  0
   21.7767   19.5294   24.5748 H   0  0  0  0  0  0  0  0  0  0  0  0
   21.6939   18.4090   25.9354 H   0  0  0  0  0  0  0  0  0  0  0  0
   19.8764   16.6721   24.9636 N   0  3  0  0  0  0  0  0  0  0  0  0
   19.0464   17.0605   25.4194 H   0  0  0  0  0  0  0  0  0  0  0  0
   19.5672   15.8973   24.3697 H   0  0  0  0  0  0  0  0  0  0  0  0
   20.4696   16.2743   25.6974 H   0  0  0  0  0  0  0  0  0  0  0  0
  1  2  1  0  0  0  0
  1  3  1  0  0  0  0
  1  4  1  0  0  0  0
  1  5  1  0  0  0  0
  5  6  1  0  0  0  0
  5  7  1  0  0  0  0
  5  8  1  0  0  0  0
  8  9  1  0  0  0  0
  8 10  1  0  0  0  0
  8 11  1  0  0  0  0
 11 12  1  0  0  0  0
 11 13  1  0  0  0  0
 11 14  1  0  0  0  0
 14 15  1  0  0  0  0
 14 16  1  0  0  0  0
 14 17  1  0  0  0  0
 17 18  1  0  0  0  0
 17 19  1  0  0  0  0
 19 20  1  0  0  0  0
 19 21  1  0  0  0  0
 19 22  1  0  0  0  0
 17 23  1  0  0  0  0
 23 24  1  0  0  0  0
 23 25  1  0  0  0  0
 23 26  1  0  0  0  0
M  END
> <VConfSearch Rank>
156

> <Conf_Id>
80

> <Delta U+W>
3.351

> <U+W>
-26.948

> <U>
27.261

> <W>
-54.209

> <W(PB)>
-56.471

> <W(SA)>
2.263

> <Valence>
6.230

> <Coulomb>
19.945

> <VdW>
1.087

> <VdW6>
-8.618

> <VdW12>
9.704

> <Bond>
0.277

> <Angle>
1.928

> <Pdih>
4.025

> <Idih>
0.000

> <Tether>
0.000

$$$$
VeraChem MOL file


 26 25  0  0  0  0  0  0  0  0999 V2000     
   22.5982   20.8685   22.9820 C   0  0  0  0  0  0  0  0  0  0  0  0
   23.2394   21.3057   23.7583 H   0  0  0  0  0  0  0  0  0  0  0  0
   23.1590   20.8774   22.0384 H   0  0  0  0  0  0  0  0  0  0  0  0
   21.7238   21.5218   22.8704 H   0  0  0  0  0  0  0  0  0  0  0  0
   22.1838   19.4309   23.3688 C   0  0  0  0  0  0  0  0  0  0  0  0
   21.6025   19.4515   24.2996 H   0  0  0  0  0  0  0  0  0  0  0  0
   23.0900   18.8532   23.5983 H   0  0  0  0  0  0  0  0  0  0  0  0
   21.3992   18.6885   22.2557 C   0  0  0  0  0  0  0  0  0  0  0  0
   22.0691   18.5478   21.3963 H   0  0  0  0  0  0  0  0  0  0  0  0
   21.1638   17.6785   22.6097 H   0  0  0  0  0  0  0  0  0  0  0  0
   20.1091   19.3962   21.7528 C   0  0  0  0  0  0  0  0  0  0  0  0
   19.6829   18.8235   20.9177 H   0  0  0  0  0  0  0  0  0  0  0  0
   20.3928   20.3632   21.3169 H   0  0  0  0  0  0  0  0  0  0  0  0
   19.0083   19.6401   22.8232 C   0  0  0  0  0  0  0  0  0  0  0  0
   19.4498   19.8174   23.8102 H   0  0  0  0  0  0  0  0  0  0  0  0
   18.4979   20.5759   22.5601 H   0  0  0  0  0  0  0  0  0  0  0  0
   17.9241   18.5394   22.9166 C   0  0  1  0  0  0  0  0  0  0  0  0
   17.4587   18.4346   21.9317 H   0  0  0  0  0  0  0  0  0  0  0  0
   18.4914   17.1702   23.3261 C   0  0  0  0  0  0  0  0  0  0  0  0
   19.1177   16.7528   22.5300 H   0  0  0  0  0  0  0  0  0  0  0  0
   17.6813   16.4524   23.5044 H   0  0  0  0  0  0  0  0  0  0  0  0
   19.0898   17.2443   24.2426 H   0  0  0  0  0  0  0  0  0  0  0  0
   16.8258   18.9477   23.8592 N   0  3  0  0  0  0  0  0  0  0  0  0
   16.3987   19.8353   23.5793 H   0  0  0  0  0  0  0  0  0  0  0  0
   16.0794   18.2475   23.8895 H   0  0  0  0  0  0  0  0  0  0  0  0
   17.1757   19.0622   24.8141 H   0  0  0  0  0  0  0  0  0  0  0  0
  1  2  1  0  0  0  0
  1  3  1  0  0  0  0
  1  4  1  0  0  0  0
  1  5  1  0  0  0  0
  5  6  1  0  0  0  0
  5  7  1  0  0  0  0
  5  8  1  0  0  0  0
  8  9  1  0  0  0  0
  8 10  1  0  0  0  0
  8 11  1  0  0  0  0
 11 12  1  0  0  0  0
 11 13  1  0  0  0  0
 11 14  1  0  0  0  0
 14 15  1  0  0  0  0
 14 16  1  0  0  0  0
 14 17  1  0  0  0  0
 17 18  1  0  0  0  0
 17 19  1  0  0  0  0
 19 20  1  0  0  0  0
 19 21  1  0  0  0  0
 19 22  1  0  0  0  0
 17 23  1  0  0  0  0
 23 24  1  0  0  0  0
 23 25  1  0  0  0  0
 23 26  1  0  0  0  0
M  END
> <VConfSearch Rank>
157

> <Conf_Id>
136

> <Delta U+W>
4.272

> <U+W>
-26.026

> <U>
28.262

> <W>
-54.288

> <W(PB)>
-56.488

> <W(SA)>
2.200

> <Valence>
7.096

> <Coulomb>
19.990

> <VdW>
1.175

> <VdW6>
-9.404

> <VdW12>
10.580

> <Bond>
0.360

> <Angle>
2.785

> <Pdih>
3.951

> <Idih>
0.000

> <Tether>
0.000

$$$$
VeraChem MOL file


 26 25  0  0  0  0  0  0  0  0999 V2000     
   16.8600   18.7164   22.9407 C   0  0  0  0  0  0  0  0  0  0  0  0
   17.5069   18.6402   22.0581 H   0  0  0  0  0  0  0  0  0  0  0  0
   15.8617   18.3680   22.6462 H   0  0  0  0  0  0  0  0  0  0  0  0
   16.7764   19.7736   23.2240 H   0  0  0  0  0  0  0  0  0  0  0  0
   17.4041   17.8675   24.1104 C   0  0  0  0  0  0  0  0  0  0  0  0
   17.5289   16.8274   23.7782 H   0  0  0  0  0  0  0  0  0  0  0  0
   16.6492   17.8430   24.9087 H   0  0  0  0  0  0  0  0  0  0  0  0
   18.7369   18.3846   24.7097 C   0  0  0  0  0  0  0  0  0  0  0  0
   18.5957   19.3870   25.1367 H   0  0  0  0  0  0  0  0  0  0  0  0
   18.9910   17.7348   25.5587 H   0  0  0  0  0  0  0  0  0  0  0  0
   19.9343   18.3823   23.7238 C   0  0  0  0  0  0  0  0  0  0  0  0
   19.7975   17.5957   22.9689 H   0  0  0  0  0  0  0  0  0  0  0  0
   20.8383   18.1126   24.2858 H   0  0  0  0  0  0  0  0  0  0  0  0
   20.1672   19.7541   23.0387 C   0  0  0  0  0  0  0  0  0  0  0  0
   19.2408   20.0909   22.5600 H   0  0  0  0  0  0  0  0  0  0  0  0
   20.4120   20.5079   23.7987 H   0  0  0  0  0  0  0  0  0  0  0  0
   21.2848   19.7115   21.9742 C   0  0  1  0  0  0  0  0  0  0  0  0
   21.0317   18.9378   21.2428 H   0  0  0  0  0  0  0  0  0  0  0  0
   21.3747   21.0585   21.2392 C   0  0  0  0  0  0  0  0  0  0  0  0
   21.6284   21.8719   21.9305 H   0  0  0  0  0  0  0  0  0  0  0  0
   20.4201   21.3046   20.7577 H   0  0  0  0  0  0  0  0  0  0  0  0
   22.1424   21.0233   20.4564 H   0  0  0  0  0  0  0  0  0  0  0  0
   22.6212   19.3374   22.5552 N   0  3  0  0  0  0  0  0  0  0  0  0
   22.9275   20.0177   23.2556 H   0  0  0  0  0  0  0  0  0  0  0  0
   22.5882   18.4207   23.0091 H   0  0  0  0  0  0  0  0  0  0  0  0
   23.3450   19.2949   21.8322 H   0  0  0  0  0  0  0  0  0  0  0  0
  1  2  1  0  0  0  0
  1  3  1  0  0  0  0
  1  4  1  0  0  0  0
  1  5  1  0  0  0  0
  5  6  1  0  0  0  0
  5  7  1  0  0  0  0
  5  8  1  0  0  0  0
  8  9  1  0  0  0  0
  8 10  1  0  0  0  0
  8 11  1  0  0  0  0
 11 12  1  0  0  0  0
 11 13  1  0  0  0  0
 11 14  1  0  0  0  0
 14 15  1  0  0  0  0
 14 16  1  0  0  0  0
 14 17  1  0  0  0  0
 17 18  1  0  0  0  0
 17 19  1  0  0  0  0
 19 20  1  0  0  0  0
 19 21  1  0  0  0  0
 19 22  1  0  0  0  0
 17 23  1  0  0  0  0
 23 24  1  0  0  0  0
 23 25  1  0  0  0  0
 23 26  1  0  0  0  0
M  END
> <VConfSearch Rank>
158

> <Conf_Id>
124

> <Delta U+W>
3.001

> <U+W>
-27.298

> <U>
26.787

> <W>
-54.085

> <W(PB)>
-56.347

> <W(SA)>
2.262

> <Valence>
5.742

> <Coulomb>
20.023

> <VdW>
1.022

> <VdW6>
-8.392

> <VdW12>
9.414

> <Bond>
0.261

> <Angle>
1.576

> <Pdih>
3.904

> <Idih>
0.000

> <Tether>
0.000

$$$$
VeraChem MOL file


 26 25  0  0  0  0  0  0  0  0999 V2000     
   18.4946   21.9232   23.8929 C   0  0  0  0  0  0  0  0  0  0  0  0
   17.4445   21.8294   24.1989 H   0  0  0  0  0  0  0  0  0  0  0  0
   18.7636   22.9859   23.9493 H   0  0  0  0  0  0  0  0  0  0  0  0
   18.5685   21.6181   22.8435 H   0  0  0  0  0  0  0  0  0  0  0  0
   19.4137   21.0838   24.8107 C   0  0  0  0  0  0  0  0  0  0  0  0
   19.3084   21.4669   25.8355 H   0  0  0  0  0  0  0  0  0  0  0  0
   20.4675   21.2360   24.5386 H   0  0  0  0  0  0  0  0  0  0  0  0
   19.0699   19.5719   24.8121 C   0  0  0  0  0  0  0  0  0  0  0  0
   19.2472   19.1831   25.8245 H   0  0  0  0  0  0  0  0  0  0  0  0
   17.9975   19.4253   24.6235 H   0  0  0  0  0  0  0  0  0  0  0  0
   19.9075   18.7121   23.8305 C   0  0  0  0  0  0  0  0  0  0  0  0
   19.6331   17.6605   23.9844 H   0  0  0  0  0  0  0  0  0  0  0  0
   20.9686   18.7957   24.1008 H   0  0  0  0  0  0  0  0  0  0  0  0
   19.7150   19.0849   22.3366 C   0  0  0  0  0  0  0  0  0  0  0  0
   18.6420   19.1447   22.1126 H   0  0  0  0  0  0  0  0  0  0  0  0
   20.1252   20.0862   22.1569 H   0  0  0  0  0  0  0  0  0  0  0  0
   20.3731   18.1085   21.3332 C   0  0  1  0  0  0  0  0  0  0  0  0
   20.1661   18.4878   20.3276 H   0  0  0  0  0  0  0  0  0  0  0  0
   21.9012   18.0490   21.5033 C   0  0  0  0  0  0  0  0  0  0  0  0
   22.1848   17.5920   22.4589 H   0  0  0  0  0  0  0  0  0  0  0  0
   22.3377   19.0546   21.4597 H   0  0  0  0  0  0  0  0  0  0  0  0
   22.3539   17.4549   20.7000 H   0  0  0  0  0  0  0  0  0  0  0  0
   19.7700   16.7317   21.3898 N   0  3  0  0  0  0  0  0  0  0  0  0
   20.1724   16.1175   20.6762 H   0  0  0  0  0  0  0  0  0  0  0  0
   19.9311   16.2918   22.2989 H   0  0  0  0  0  0  0  0  0  0  0  0
   18.7582   16.7581   21.2348 H   0  0  0  0  0  0  0  0  0  0  0  0
  1  2  1  0  0  0  0
  1  3  1  0  0  0  0
  1  4  1  0  0  0  0
  1  5  1  0  0  0  0
  5  6  1  0  0  0  0
  5  7  1  0  0  0  0
  5  8  1  0  0  0  0
  8  9  1  0  0  0  0
  8 10  1  0  0  0  0
  8 11  1  0  0  0  0
 11 12  1  0  0  0  0
 11 13  1  0  0  0  0
 11 14  1  0  0  0  0
 14 15  1  0  0  0  0
 14 16  1  0  0  0  0
 14 17  1  0  0  0  0
 17 18  1  0  0  0  0
 17 19  1  0  0  0  0
 19 20  1  0  0  0  0
 19 21  1  0  0  0  0
 19 22  1  0  0  0  0
 17 23  1  0  0  0  0
 23 24  1  0  0  0  0
 23 25  1  0  0  0  0
 23 26  1  0  0  0  0
M  END
> <VConfSearch Rank>
159

> <Conf_Id>
105

> <Delta U+W>
3.442

> <U+W>
-26.857

> <U>
27.313

> <W>
-54.169

> <W(PB)>
-56.414

> <W(SA)>
2.245

> <Valence>
6.229

> <Coulomb>
19.943

> <VdW>
1.140

> <VdW6>
-9.001

> <VdW12>
10.140

> <Bond>
0.294

> <Angle>
1.969

> <Pdih>
3.967

> <Idih>
0.000

> <Tether>
0.000

$$$$
VeraChem MOL file


 26 25  0  0  0  0  0  0  0  0999 V2000     
   22.4500   17.6288   22.6305 C   0  0  0  0  0  0  0  0  0  0  0  0
   22.8231   17.5131   21.6046 H   0  0  0  0  0  0  0  0  0  0  0  0
   23.0989   17.0371   23.2889 H   0  0  0  0  0  0  0  0  0  0  0  0
   21.4464   17.1922   22.6757 H   0  0  0  0  0  0  0  0  0  0  0  0
   22.4596   19.1155   23.0567 C   0  0  0  0  0  0  0  0  0  0  0  0
   23.4991   19.4704   23.0194 H   0  0  0  0  0  0  0  0  0  0  0  0
   22.1443   19.2145   24.1047 H   0  0  0  0  0  0  0  0  0  0  0  0
   21.5958   20.0252   22.1455 C   0  0  0  0  0  0  0  0  0  0  0  0
   22.0910   21.0034   22.0724 H   0  0  0  0  0  0  0  0  0  0  0  0
   21.5750   19.6278   21.1213 H   0  0  0  0  0  0  0  0  0  0  0  0
   20.1514   20.2719   22.6527 C   0  0  0  0  0  0  0  0  0  0  0  0
   19.6658   20.9851   21.9723 H   0  0  0  0  0  0  0  0  0  0  0  0
   20.1959   20.7636   23.6337 H   0  0  0  0  0  0  0  0  0  0  0  0
   19.2819   18.9937   22.7441 C   0  0  0  0  0  0  0  0  0  0  0  0
   19.3655   18.4373   21.8011 H   0  0  0  0  0  0  0  0  0  0  0  0
   19.6630   18.3397   23.5383 H   0  0  0  0  0  0  0  0  0  0  0  0
   17.7927   19.3000   23.0121 C   0  0  1  0  0  0  0  0  0  0  0  0
   17.4323   19.9665   22.2224 H   0  0  0  0  0  0  0  0  0  0  0  0
   16.9644   18.0060   22.9666 C   0  0  0  0  0  0  0  0  0  0  0  0
   17.2855   17.3013   23.7439 H   0  0  0  0  0  0  0  0  0  0  0  0
   17.0677   17.5111   21.9929 H   0  0  0  0  0  0  0  0  0  0  0  0
   15.8995   18.2210   23.1189 H   0  0  0  0  0  0  0  0  0  0  0  0
   17.5790   20.0190   24.3162 N   0  3  0  0  0  0  0  0  0  0  0  0
   18.0921   20.9042   24.3433 H   0  0  0  0  0  0  0  0  0  0  0  0
   16.5894   20.2341   24.4672 H   0  0  0  0  0  0  0  0  0  0  0  0
   17.8945   19.4550   25.1097 H   0  0  0  0  0  0  0  0  0  0  0  0
  1  2  1  0  0  0  0
  1  3  1  0  0  0  0
  1  4  1  0  0  0  0
  1  5  1  0  0  0  0
  5  6  1  0  0  0  0
  5  7  1  0  0  0  0
  5  8  1  0  0  0  0
  8  9  1  0  0  0  0
  8 10  1  0  0  0  0
  8 11  1  0  0  0  0
 11 12  1  0  0  0  0
 11 13  1  0  0  0  0
 11 14  1  0  0  0  0
 14 15  1  0  0  0  0
 14 16  1  0  0  0  0
 14 17  1  0  0  0  0
 17 18  1  0  0  0  0
 17 19  1  0  0  0  0
 19 20  1  0  0  0  0
 19 21  1  0  0  0  0
 19 22  1  0  0  0  0
 17 23  1  0  0  0  0
 23 24  1  0  0  0  0
 23 25  1  0  0  0  0
 23 26  1  0  0  0  0
M  END
> <VConfSearch Rank>
160

> <Conf_Id>
107

> <Delta U+W>
2.995

> <U+W>
-27.304

> <U>
26.796

> <W>
-54.100

> <W(PB)>
-56.404

> <W(SA)>
2.304

> <Valence>
5.706

> <Coulomb>
20.107

> <VdW>
0.982

> <VdW6>
-8.396

> <VdW12>
9.378

> <Bond>
0.254

> <Angle>
1.644

> <Pdih>
3.808

> <Idih>
0.000

> <Tether>
0.000

$$$$
VeraChem MOL file


 26 25  0  0  0  0  0  0  0  0999 V2000     
   20.8725   18.3868   18.9581 C   0  0  0  0  0  0  0  0  0  0  0  0
   21.8775   18.8278   18.9864 H   0  0  0  0  0  0  0  0  0  0  0  0
   20.8987   17.5325   18.2693 H   0  0  0  0  0  0  0  0  0  0  0  0
   20.1830   19.1335   18.5430 H   0  0  0  0  0  0  0  0  0  0  0  0
   20.4234   17.9387   20.3652 C   0  0  0  0  0  0  0  0  0  0  0  0
   21.1121   17.1683   20.7394 H   0  0  0  0  0  0  0  0  0  0  0  0
   19.4307   17.4716   20.2993 H   0  0  0  0  0  0  0  0  0  0  0  0
   20.3780   19.1234   21.3555 C   0  0  0  0  0  0  0  0  0  0  0  0
   21.3717   19.5887   21.4148 H   0  0  0  0  0  0  0  0  0  0  0  0
   19.6898   19.8915   20.9762 H   0  0  0  0  0  0  0  0  0  0  0  0
   19.9294   18.6786   22.7659 C   0  0  0  0  0  0  0  0  0  0  0  0
   20.6206   17.9131   23.1454 H   0  0  0  0  0  0  0  0  0  0  0  0
   18.9392   18.2091   22.6967 H   0  0  0  0  0  0  0  0  0  0  0  0
   19.8836   19.8683   23.7556 C   0  0  0  0  0  0  0  0  0  0  0  0
   20.8671   20.3568   23.7687 H   0  0  0  0  0  0  0  0  0  0  0  0
   19.1653   20.6193   23.4007 H   0  0  0  0  0  0  0  0  0  0  0  0
   19.5209   19.4418   25.1947 C   0  0  1  0  0  0  0  0  0  0  0  0
   20.2352   18.6774   25.5160 H   0  0  0  0  0  0  0  0  0  0  0  0
   19.6333   20.6396   26.1514 C   0  0  0  0  0  0  0  0  0  0  0  0
   18.9332   21.4373   25.8730 H   0  0  0  0  0  0  0  0  0  0  0  0
   20.6484   21.0558   26.1376 H   0  0  0  0  0  0  0  0  0  0  0  0
   19.4128   20.3355   27.1820 H   0  0  0  0  0  0  0  0  0  0  0  0
   18.1532   18.8216   25.2847 N   0  3  0  0  0  0  0  0  0  0  0  0
   17.4249   19.4797   24.9950 H   0  0  0  0  0  0  0  0  0  0  0  0
   18.0772   17.9944   24.6868 H   0  0  0  0  0  0  0  0  0  0  0  0
   17.9378   18.5279   26.2416 H   0  0  0  0  0  0  0  0  0  0  0  0
  1  2  1  0  0  0  0
  1  3  1  0  0  0  0
  1  4  1  0  0  0  0
  1  5  1  0  0  0  0
  5  6  1  0  0  0  0
  5  7  1  0  0  0  0
  5  8  1  0  0  0  0
  8  9  1  0  0  0  0
  8 10  1  0  0  0  0
  8 11  1  0  0  0  0
 11 12  1  0  0  0  0
 11 13  1  0  0  0  0
 11 14  1  0  0  0  0
 14 15  1  0  0  0  0
 14 16  1  0  0  0  0
 14 17  1  0  0  0  0
 17 18  1  0  0  0  0
 17 19  1  0  0  0  0
 19 20  1  0  0  0  0
 19 21  1  0  0  0  0
 19 22  1  0  0  0  0
 17 23  1  0  0  0  0
 23 24  1  0  0  0  0
 23 25  1  0  0  0  0
 23 26  1  0  0  0  0
M  END
> <VConfSearch Rank>
161

> <Conf_Id>
122

> <Delta U+W>
0.000

> <U+W>
-30.299

> <U>
23.517

> <W>
-53.816

> <W(PB)>
-56.162

> <W(SA)>
2.346

> <Valence>
2.737

> <Coulomb>
19.862

> <VdW>
0.919

> <VdW6>
-6.793

> <VdW12>
7.712

> <Bond>
0.171

> <Angle>
0.873

> <Pdih>
1.693

> <Idih>
0.000

> <Tether>
0.000

$$$$
VeraChem MOL file


 26 25  0  0  0  0  0  0  0  0999 V2000     
   18.9192   22.0109   25.8760 C   0  0  0  0  0  0  0  0  0  0  0  0
   18.2468   22.8705   25.9941 H   0  0  0  0  0  0  0  0  0  0  0  0
   18.7226   21.3135   26.7008 H   0  0  0  0  0  0  0  0  0  0  0  0
   19.9507   22.3740   25.9738 H   0  0  0  0  0  0  0  0  0  0  0  0
   18.6981   21.3297   24.5088 C   0  0  0  0  0  0  0  0  0  0  0  0
   18.8689   22.0604   23.7058 H   0  0  0  0  0  0  0  0  0  0  0  0
   17.6504   21.0080   24.4271 H   0  0  0  0  0  0  0  0  0  0  0  0
   19.6332   20.1152   24.3169 C   0  0  0  0  0  0  0  0  0  0  0  0
   20.6791   20.4414   24.4012 H   0  0  0  0  0  0  0  0  0  0  0  0
   19.4605   19.3898   25.1240 H   0  0  0  0  0  0  0  0  0  0  0  0
   19.4144   19.4300   22.9488 C   0  0  0  0  0  0  0  0  0  0  0  0
   19.5810   20.1655   22.1508 H   0  0  0  0  0  0  0  0  0  0  0  0
   18.3695   19.0999   22.8672 H   0  0  0  0  0  0  0  0  0  0  0  0
   20.3563   18.2157   22.7576 C   0  0  0  0  0  0  0  0  0  0  0  0
   21.4017   18.5517   22.7732 H   0  0  0  0  0  0  0  0  0  0  0  0
   20.2338   17.5403   23.6146 H   0  0  0  0  0  0  0  0  0  0  0  0
   20.0866   17.4155   21.4626 C   0  0  1  0  0  0  0  0  0  0  0  0
   19.0305   17.1285   21.4504 H   0  0  0  0  0  0  0  0  0  0  0  0
   20.3815   18.2415   20.1975 C   0  0  0  0  0  0  0  0  0  0  0  0
   21.4157   18.6078   20.1948 H   0  0  0  0  0  0  0  0  0  0  0  0
   19.7106   19.1047   20.1190 H   0  0  0  0  0  0  0  0  0  0  0  0
   20.2337   17.6338   19.2964 H   0  0  0  0  0  0  0  0  0  0  0  0
   20.8740   16.1348   21.4427 N   0  3  0  0  0  0  0  0  0  0  0  0
   21.8816   16.3144   21.4499 H   0  0  0  0  0  0  0  0  0  0  0  0
   20.6605   15.5477   22.2541 H   0  0  0  0  0  0  0  0  0  0  0  0
   20.6686   15.5822   20.6055 H   0  0  0  0  0  0  0  0  0  0  0  0
  1  2  1  0  0  0  0
  1  3  1  0  0  0  0
  1  4  1  0  0  0  0
  1  5  1  0  0  0  0
  5  6  1  0  0  0  0
  5  7  1  0  0  0  0
  5  8  1  0  0  0  0
  8  9  1  0  0  0  0
  8 10  1  0  0  0  0
  8 11  1  0  0  0  0
 11 12  1  0  0  0  0
 11 13  1  0  0  0  0
 11 14  1  0  0  0  0
 14 15  1  0  0  0  0
 14 16  1  0  0  0  0
 14 17  1  0  0  0  0
 17 18  1  0  0  0  0
 17 19  1  0  0  0  0
 19 20  1  0  0  0  0
 19 21  1  0  0  0  0
 19 22  1  0  0  0  0
 17 23  1  0  0  0  0
 23 24  1  0  0  0  0
 23 25  1  0  0  0  0
 23 26  1  0  0  0  0
M  END
> <VConfSearch Rank>
162

> <Conf_Id>
54

> <Delta U+W>
0.453

> <U+W>
-29.845

> <U>
23.817

> <W>
-53.663

> <W(PB)>
-56.021

> <W(SA)>
2.358

> <Valence>
3.277

> <Coulomb>
19.492

> <VdW>
1.049

> <VdW6>
-6.949

> <VdW12>
7.998

> <Bond>
0.183

> <Angle>
1.152

> <Pdih>
1.942

> <Idih>
0.000

> <Tether>
0.000

$$$$
VeraChem MOL file


 26 25  0  0  0  0  0  0  0  0999 V2000     
   22.6595   17.3653   21.4316 C   0  0  0  0  0  0  0  0  0  0  0  0
   23.2345   17.4552   22.3624 H   0  0  0  0  0  0  0  0  0  0  0  0
   21.9823   16.5080   21.5270 H   0  0  0  0  0  0  0  0  0  0  0  0
   23.3655   17.1374   20.6226 H   0  0  0  0  0  0  0  0  0  0  0  0
   21.8905   18.6708   21.1248 C   0  0  0  0  0  0  0  0  0  0  0  0
   21.2963   18.5454   20.2087 H   0  0  0  0  0  0  0  0  0  0  0  0
   22.6200   19.4645   20.9108 H   0  0  0  0  0  0  0  0  0  0  0  0
   20.9770   19.1390   22.2837 C   0  0  0  0  0  0  0  0  0  0  0  0
   21.5718   19.2330   23.2028 H   0  0  0  0  0  0  0  0  0  0  0  0
   20.6146   20.1425   22.0312 H   0  0  0  0  0  0  0  0  0  0  0  0
   19.7655   18.2045   22.5294 C   0  0  0  0  0  0  0  0  0  0  0  0
   20.1213   17.1742   22.6550 H   0  0  0  0  0  0  0  0  0  0  0  0
   19.1230   18.1981   21.6382 H   0  0  0  0  0  0  0  0  0  0  0  0
   18.9129   18.5567   23.7772 C   0  0  0  0  0  0  0  0  0  0  0  0
   18.1620   17.7628   23.8868 H   0  0  0  0  0  0  0  0  0  0  0  0
   19.5309   18.5097   24.6836 H   0  0  0  0  0  0  0  0  0  0  0  0
   18.1840   19.9198   23.7054 C   0  0  1  0  0  0  0  0  0  0  0  0
   17.8356   20.0717   22.6792 H   0  0  0  0  0  0  0  0  0  0  0  0
   16.9586   19.9220   24.6345 C   0  0  0  0  0  0  0  0  0  0  0  0
   16.4286   20.8808   24.5768 H   0  0  0  0  0  0  0  0  0  0  0  0
   17.2521   19.7555   25.6787 H   0  0  0  0  0  0  0  0  0  0  0  0
   16.2497   19.1349   24.3487 H   0  0  0  0  0  0  0  0  0  0  0  0
   19.0797   21.0793   24.0477 N   0  3  0  0  0  0  0  0  0  0  0  0
   19.9015   21.1110   23.4406 H   0  0  0  0  0  0  0  0  0  0  0  0
   18.5886   21.9725   23.9498 H   0  0  0  0  0  0  0  0  0  0  0  0
   19.4129   21.0187   25.0135 H   0  0  0  0  0  0  0  0  0  0  0  0
  1  2  1  0  0  0  0
  1  3  1  0  0  0  0
  1  4  1  0  0  0  0
  1  5  1  0  0  0  0
  5  6  1  0  0  0  0
  5  7  1  0  0  0  0
  5  8  1  0  0  0  0
  8  9  1  0  0  0  0
  8 10  1  0  0  0  0
  8 11  1  0  0  0  0
 11 12  1  0  0  0  0
 11 13  1  0  0  0  0
 11 14  1  0  0  0  0
 14 15  1  0  0  0  0
 14 16  1  0  0  0  0
 14 17  1  0  0  0  0
 17 18  1  0  0  0  0
 17 19  1  0  0  0  0
 19 20  1  0  0  0  0
 19 21  1  0  0  0  0
 19 22  1  0  0  0  0
 17 23  1  0  0  0  0
 23 24  1  0  0  0  0
 23 25  1  0  0  0  0
 23 26  1  0  0  0  0
M  END
> <VConfSearch Rank>
163

> <Conf_Id>
110

> <Delta U+W>
3.764

> <U+W>
-26.535

> <U>
27.400

> <W>
-53.935

> <W(PB)>
-56.238

> <W(SA)>
2.303

> <Valence>
5.205

> <Coulomb>
21.096

> <VdW>
1.098

> <VdW6>
-8.389

> <VdW12>
9.488

> <Bond>
0.270

> <Angle>
1.912

> <Pdih>
3.023

> <Idih>
0.000

> <Tether>
0.000

$$$$
VeraChem MOL file


 26 25  0  0  0  0  0  0  0  0999 V2000     
   21.3690   18.0090   19.8133 C   0  0  0  0  0  0  0  0  0  0  0  0
   21.4904   18.1161   18.7276 H   0  0  0  0  0  0  0  0  0  0  0  0
   22.1762   18.5767   20.2926 H   0  0  0  0  0  0  0  0  0  0  0  0
   21.4990   16.9478   20.0625 H   0  0  0  0  0  0  0  0  0  0  0  0
   19.9778   18.5172   20.2547 C   0  0  0  0  0  0  0  0  0  0  0  0
   19.2086   18.0049   19.6600 H   0  0  0  0  0  0  0  0  0  0  0  0
   19.8845   19.5871   20.0215 H   0  0  0  0  0  0  0  0  0  0  0  0
   19.6836   18.2818   21.7559 C   0  0  0  0  0  0  0  0  0  0  0  0
   18.6425   18.5651   21.9517 H   0  0  0  0  0  0  0  0  0  0  0  0
   19.7515   17.2076   21.9763 H   0  0  0  0  0  0  0  0  0  0  0  0
   20.6337   19.0641   22.6991 C   0  0  0  0  0  0  0  0  0  0  0  0
   20.6826   20.1216   22.4051 H   0  0  0  0  0  0  0  0  0  0  0  0
   21.6502   18.6673   22.5764 H   0  0  0  0  0  0  0  0  0  0  0  0
   20.2466   18.9447   24.1971 C   0  0  0  0  0  0  0  0  0  0  0  0
   19.7106   18.0037   24.3786 H   0  0  0  0  0  0  0  0  0  0  0  0
   21.1755   18.8760   24.7786 H   0  0  0  0  0  0  0  0  0  0  0  0
   19.4359   20.1393   24.7554 C   0  0  1  0  0  0  0  0  0  0  0  0
   20.0211   21.0504   24.5972 H   0  0  0  0  0  0  0  0  0  0  0  0
   18.0761   20.3165   24.0588 C   0  0  0  0  0  0  0  0  0  0  0  0
   17.4781   19.3984   24.1143 H   0  0  0  0  0  0  0  0  0  0  0  0
   18.2063   20.5853   23.0041 H   0  0  0  0  0  0  0  0  0  0  0  0
   17.5031   21.1250   24.5290 H   0  0  0  0  0  0  0  0  0  0  0  0
   19.2454   20.0138   26.2417 N   0  3  0  0  0  0  0  0  0  0  0  0
   20.1413   19.9438   26.7326 H   0  0  0  0  0  0  0  0  0  0  0  0
   18.7512   20.8244   26.6252 H   0  0  0  0  0  0  0  0  0  0  0  0
   18.6984   19.1822   26.4800 H   0  0  0  0  0  0  0  0  0  0  0  0
  1  2  1  0  0  0  0
  1  3  1  0  0  0  0
  1  4  1  0  0  0  0
  1  5  1  0  0  0  0
  5  6  1  0  0  0  0
  5  7  1  0  0  0  0
  5  8  1  0  0  0  0
  8  9  1  0  0  0  0
  8 10  1  0  0  0  0
  8 11  1  0  0  0  0
 11 12  1  0  0  0  0
 11 13  1  0  0  0  0
 11 14  1  0  0  0  0
 14 15  1  0  0  0  0
 14 16  1  0  0  0  0
 14 17  1  0  0  0  0
 17 18  1  0  0  0  0
 17 19  1  0  0  0  0
 19 20  1  0  0  0  0
 19 21  1  0  0  0  0
 19 22  1  0  0  0  0
 17 23  1  0  0  0  0
 23 24  1  0  0  0  0
 23 25  1  0  0  0  0
 23 26  1  0  0  0  0
M  END
> <VConfSearch Rank>
164

> <Conf_Id>
34

> <Delta U+W>
3.568

> <U+W>
-26.731

> <U>
27.221

> <W>
-53.952

> <W(PB)>
-56.213

> <W(SA)>
2.261

> <Valence>
6.368

> <Coulomb>
19.698

> <VdW>
1.155

> <VdW6>
-8.532

> <VdW12>
9.687

> <Bond>
0.272

> <Angle>
1.847

> <Pdih>
4.248

> <Idih>
0.000

> <Tether>
0.000

$$$$
VeraChem MOL file


 26 25  0  0  0  0  0  0  0  0999 V2000     
   20.2719   22.1193   20.2188 C   0  0  0  0  0  0  0  0  0  0  0  0
   21.3225   22.3663   20.4200 H   0  0  0  0  0  0  0  0  0  0  0  0
   20.2321   21.5132   19.3044 H   0  0  0  0  0  0  0  0  0  0  0  0
   19.7364   23.0577   20.0246 H   0  0  0  0  0  0  0  0  0  0  0  0
   19.6406   21.3681   21.4102 C   0  0  0  0  0  0  0  0  0  0  0  0
   18.5824   21.1653   21.1937 H   0  0  0  0  0  0  0  0  0  0  0  0
   19.6643   22.0119   22.3007 H   0  0  0  0  0  0  0  0  0  0  0  0
   20.3764   20.0422   21.7051 C   0  0  0  0  0  0  0  0  0  0  0  0
   20.3520   19.4038   20.8111 H   0  0  0  0  0  0  0  0  0  0  0  0
   21.4342   20.2502   21.9182 H   0  0  0  0  0  0  0  0  0  0  0  0
   19.7475   19.2869   22.8978 C   0  0  0  0  0  0  0  0  0  0  0  0
   18.6909   19.0842   22.6788 H   0  0  0  0  0  0  0  0  0  0  0  0
   19.7726   19.9347   23.7839 H   0  0  0  0  0  0  0  0  0  0  0  0
   20.4927   17.9584   23.1902 C   0  0  0  0  0  0  0  0  0  0  0  0
   20.5023   17.3428   22.2812 H   0  0  0  0  0  0  0  0  0  0  0  0
   21.5447   18.1752   23.4188 H   0  0  0  0  0  0  0  0  0  0  0  0
   19.8970   17.1169   24.3437 C   0  0  1  0  0  0  0  0  0  0  0  0
   20.4943   16.2030   24.4210 H   0  0  0  0  0  0  0  0  0  0  0  0
   19.9846   17.8449   25.6965 C   0  0  0  0  0  0  0  0  0  0  0  0
   19.3309   18.7246   25.7272 H   0  0  0  0  0  0  0  0  0  0  0  0
   21.0122   18.1723   25.8974 H   0  0  0  0  0  0  0  0  0  0  0  0
   19.6837   17.1758   26.5120 H   0  0  0  0  0  0  0  0  0  0  0  0
   18.4885   16.6711   24.0617 N   0  3  0  0  0  0  0  0  0  0  0  0
   18.1324   16.0637   24.8051 H   0  0  0  0  0  0  0  0  0  0  0  0
   17.8535   17.4696   23.9876 H   0  0  0  0  0  0  0  0  0  0  0  0
   18.4290   16.1469   23.1841 H   0  0  0  0  0  0  0  0  0  0  0  0
  1  2  1  0  0  0  0
  1  3  1  0  0  0  0
  1  4  1  0  0  0  0
  1  5  1  0  0  0  0
  5  6  1  0  0  0  0
  5  7  1  0  0  0  0
  5  8  1  0  0  0  0
  8  9  1  0  0  0  0
  8 10  1  0  0  0  0
  8 11  1  0  0  0  0
 11 12  1  0  0  0  0
 11 13  1  0  0  0  0
 11 14  1  0  0  0  0
 14 15  1  0  0  0  0
 14 16  1  0  0  0  0
 14 17  1  0  0  0  0
 17 18  1  0  0  0  0
 17 19  1  0  0  0  0
 19 20  1  0  0  0  0
 19 21  1  0  0  0  0
 19 22  1  0  0  0  0
 17 23  1  0  0  0  0
 23 24  1  0  0  0  0
 23 25  1  0  0  0  0
 23 26  1  0  0  0  0
M  END
> <VConfSearch Rank>
165

> <Conf_Id>
132

> <Delta U+W>
0.363

> <U+W>
-29.936

> <U>
24.060

> <W>
-53.996

> <W(PB)>
-56.327

> <W(SA)>
2.332

> <Valence>
3.249

> <Coulomb>
19.781

> <VdW>
1.030

> <VdW6>
-7.421

> <VdW12>
8.451

> <Bond>
0.207

> <Angle>
1.205

> <Pdih>
1.837

> <Idih>
0.000

> <Tether>
0.000

$$$$
VeraChem MOL file


 26 25  0  0  0  0  0  0  0  0999 V2000     
   17.2136   17.9530   20.2682 C   0  0  0  0  0  0  0  0  0  0  0  0
   17.3651   17.1170   19.5730 H   0  0  0  0  0  0  0  0  0  0  0  0
   16.2550   17.7959   20.7797 H   0  0  0  0  0  0  0  0  0  0  0  0
   17.1382   18.8744   19.6760 H   0  0  0  0  0  0  0  0  0  0  0  0
   18.3759   18.0379   21.2801 C   0  0  0  0  0  0  0  0  0  0  0  0
   19.3186   18.1526   20.7292 H   0  0  0  0  0  0  0  0  0  0  0  0
   18.4441   17.0924   21.8360 H   0  0  0  0  0  0  0  0  0  0  0  0
   18.1861   19.2130   22.2684 C   0  0  0  0  0  0  0  0  0  0  0  0
   18.1733   20.1631   21.7168 H   0  0  0  0  0  0  0  0  0  0  0  0
   17.2003   19.1209   22.7448 H   0  0  0  0  0  0  0  0  0  0  0  0
   19.2629   19.2714   23.3799 C   0  0  0  0  0  0  0  0  0  0  0  0
   19.2647   18.3215   23.9306 H   0  0  0  0  0  0  0  0  0  0  0  0
   18.9639   20.0459   24.0978 H   0  0  0  0  0  0  0  0  0  0  0  0
   20.6871   19.5821   22.8429 C   0  0  0  0  0  0  0  0  0  0  0  0
   20.9996   18.7920   22.1495 H   0  0  0  0  0  0  0  0  0  0  0  0
   20.6598   20.5087   22.2544 H   0  0  0  0  0  0  0  0  0  0  0  0
   21.7782   19.7162   23.9317 C   0  0  1  0  0  0  0  0  0  0  0  0
   22.7308   19.8770   23.4175 H   0  0  0  0  0  0  0  0  0  0  0  0
   21.5379   20.9277   24.8497 C   0  0  0  0  0  0  0  0  0  0  0  0
   20.6496   20.7927   25.4778 H   0  0  0  0  0  0  0  0  0  0  0  0
   21.4074   21.8439   24.2606 H   0  0  0  0  0  0  0  0  0  0  0  0
   22.3968   21.0802   25.5147 H   0  0  0  0  0  0  0  0  0  0  0  0
   21.9459   18.4556   24.7349 N   0  3  0  0  0  0  0  0  0  0  0  0
   22.1527   17.6524   24.1345 H   0  0  0  0  0  0  0  0  0  0  0  0
   22.7129   18.5400   25.4078 H   0  0  0  0  0  0  0  0  0  0  0  0
   21.0976   18.2360   25.2626 H   0  0  0  0  0  0  0  0  0  0  0  0
  1  2  1  0  0  0  0
  1  3  1  0  0  0  0
  1  4  1  0  0  0  0
  1  5  1  0  0  0  0
  5  6  1  0  0  0  0
  5  7  1  0  0  0  0
  5  8  1  0  0  0  0
  8  9  1  0  0  0  0
  8 10  1  0  0  0  0
  8 11  1  0  0  0  0
 11 12  1  0  0  0  0
 11 13  1  0  0  0  0
 11 14  1  0  0  0  0
 14 15  1  0  0  0  0
 14 16  1  0  0  0  0
 14 17  1  0  0  0  0
 17 18  1  0  0  0  0
 17 19  1  0  0  0  0
 19 20  1  0  0  0  0
 19 21  1  0  0  0  0
 19 22  1  0  0  0  0
 17 23  1  0  0  0  0
 23 24  1  0  0  0  0
 23 25  1  0  0  0  0
 23 26  1  0  0  0  0
M  END
> <VConfSearch Rank>
166

> <Conf_Id>
46

> <Delta U+W>
1.114

> <U+W>
-29.185

> <U>
24.990

> <W>
-54.175

> <W(PB)>
-56.455

> <W(SA)>
2.279

> <Valence>
3.862

> <Coulomb>
19.956

> <VdW>
1.172

> <VdW6>
-8.054

> <VdW12>
9.226

> <Bond>
0.258

> <Angle>
1.499

> <Pdih>
2.106

> <Idih>
0.000

> <Tether>
0.000

$$$$
VeraChem MOL file


 26 25  0  0  0  0  0  0  0  0999 V2000     
   22.5739   18.7736   25.3886 C   0  0  0  0  0  0  0  0  0  0  0  0
   23.1414   18.8076   24.4505 H   0  0  0  0  0  0  0  0  0  0  0  0
   22.5112   19.7931   25.7907 H   0  0  0  0  0  0  0  0  0  0  0  0
   23.1498   18.1673   26.0997 H   0  0  0  0  0  0  0  0  0  0  0  0
   21.1661   18.1704   25.1806 C   0  0  0  0  0  0  0  0  0  0  0  0
   20.6900   18.0398   26.1625 H   0  0  0  0  0  0  0  0  0  0  0  0
   21.2550   17.1648   24.7463 H   0  0  0  0  0  0  0  0  0  0  0  0
   20.2443   19.0441   24.2957 C   0  0  0  0  0  0  0  0  0  0  0  0
   19.2389   18.6037   24.3141 H   0  0  0  0  0  0  0  0  0  0  0  0
   20.1518   20.0447   24.7399 H   0  0  0  0  0  0  0  0  0  0  0  0
   20.7329   19.1665   22.8298 C   0  0  0  0  0  0  0  0  0  0  0  0
   20.8538   18.1665   22.3929 H   0  0  0  0  0  0  0  0  0  0  0  0
   21.7289   19.6275   22.8135 H   0  0  0  0  0  0  0  0  0  0  0  0
   19.7945   20.0246   21.9425 C   0  0  0  0  0  0  0  0  0  0  0  0
   19.7602   21.0444   22.3486 H   0  0  0  0  0  0  0  0  0  0  0  0
   20.2318   20.1096   20.9388 H   0  0  0  0  0  0  0  0  0  0  0  0
   18.3527   19.4806   21.8253 C   0  0  1  0  0  0  0  0  0  0  0  0
   17.9215   19.4261   22.8291 H   0  0  0  0  0  0  0  0  0  0  0  0
   17.4882   20.4342   20.9855 C   0  0  0  0  0  0  0  0  0  0  0  0
   16.4534   20.0743   20.9316 H   0  0  0  0  0  0  0  0  0  0  0  0
   17.8732   20.5221   19.9618 H   0  0  0  0  0  0  0  0  0  0  0  0
   17.4691   21.4368   21.4306 H   0  0  0  0  0  0  0  0  0  0  0  0
   18.3090   18.0878   21.2589 N   0  3  0  0  0  0  0  0  0  0  0  0
   18.8505   17.4362   21.8332 H   0  0  0  0  0  0  0  0  0  0  0  0
   17.3500   17.7323   21.2114 H   0  0  0  0  0  0  0  0  0  0  0  0
   18.6944   18.0582   20.3114 H   0  0  0  0  0  0  0  0  0  0  0  0
  1  2  1  0  0  0  0
  1  3  1  0  0  0  0
  1  4  1  0  0  0  0
  1  5  1  0  0  0  0
  5  6  1  0  0  0  0
  5  7  1  0  0  0  0
  5  8  1  0  0  0  0
  8  9  1  0  0  0  0
  8 10  1  0  0  0  0
  8 11  1  0  0  0  0
 11 12  1  0  0  0  0
 11 13  1  0  0  0  0
 11 14  1  0  0  0  0
 14 15  1  0  0  0  0
 14 16  1  0  0  0  0
 14 17  1  0  0  0  0
 17 18  1  0  0  0  0
 17 19  1  0  0  0  0
 19 20  1  0  0  0  0
 19 21  1  0  0  0  0
 19 22  1  0  0  0  0
 17 23  1  0  0  0  0
 23 24  1  0  0  0  0
 23 25  1  0  0  0  0
 23 26  1  0  0  0  0
M  END
> <VConfSearch Rank>
167

> <Conf_Id>
113

> <Delta U+W>
1.137

> <U+W>
-29.162

> <U>
24.833

> <W>
-53.995

> <W(PB)>
-56.288

> <W(SA)>
2.294

> <Valence>
3.589

> <Coulomb>
20.270

> <VdW>
0.974

> <VdW6>
-8.255

> <VdW12>
9.229

> <Bond>
0.244

> <Angle>
1.377

> <Pdih>
1.967

> <Idih>
0.000

> <Tether>
0.000

$$$$
VeraChem MOL file


 26 25  0  0  0  0  0  0  0  0999 V2000     
   22.2555   18.6987   25.9887 C   0  0  0  0  0  0  0  0  0  0  0  0
   22.2517   19.3310   26.8861 H   0  0  0  0  0  0  0  0  0  0  0  0
   21.9734   17.6819   26.2917 H   0  0  0  0  0  0  0  0  0  0  0  0
   23.2829   18.6680   25.6029 H   0  0  0  0  0  0  0  0  0  0  0  0
   21.2801   19.2519   24.9281 C   0  0  0  0  0  0  0  0  0  0  0  0
   21.5704   20.2792   24.6673 H   0  0  0  0  0  0  0  0  0  0  0  0
   20.2738   19.3057   25.3641 H   0  0  0  0  0  0  0  0  0  0  0  0
   21.2650   18.3736   23.6546 C   0  0  0  0  0  0  0  0  0  0  0  0
   22.2935   18.2676   23.2826 H   0  0  0  0  0  0  0  0  0  0  0  0
   20.9235   17.3604   23.9074 H   0  0  0  0  0  0  0  0  0  0  0  0
   20.3884   18.9487   22.5149 C   0  0  0  0  0  0  0  0  0  0  0  0
   20.5370   18.3262   21.6230 H   0  0  0  0  0  0  0  0  0  0  0  0
   20.7502   19.9527   22.2566 H   0  0  0  0  0  0  0  0  0  0  0  0
   18.8764   18.9989   22.8671 C   0  0  0  0  0  0  0  0  0  0  0  0
   18.5559   18.0125   23.2269 H   0  0  0  0  0  0  0  0  0  0  0  0
   18.7138   19.6937   23.7004 H   0  0  0  0  0  0  0  0  0  0  0  0
   17.9516   19.4187   21.7000 C   0  0  1  0  0  0  0  0  0  0  0  0
   16.9246   19.4037   22.0779 H   0  0  0  0  0  0  0  0  0  0  0  0
   18.2479   20.8483   21.2141 C   0  0  0  0  0  0  0  0  0  0  0  0
   19.2320   20.9180   20.7354 H   0  0  0  0  0  0  0  0  0  0  0  0
   18.2210   21.5578   22.0504 H   0  0  0  0  0  0  0  0  0  0  0  0
   17.4960   21.1683   20.4823 H   0  0  0  0  0  0  0  0  0  0  0  0
   17.9879   18.4422   20.5565 N   0  3  0  0  0  0  0  0  0  0  0  0
   17.7498   17.4949   20.8639 H   0  0  0  0  0  0  0  0  0  0  0  0
   17.3230   18.7012   19.8222 H   0  0  0  0  0  0  0  0  0  0  0  0
   18.9164   18.4034   20.1294 H   0  0  0  0  0  0  0  0  0  0  0  0
  1  2  1  0  0  0  0
  1  3  1  0  0  0  0
  1  4  1  0  0  0  0
  1  5  1  0  0  0  0
  5  6  1  0  0  0  0
  5  7  1  0  0  0  0
  5  8  1  0  0  0  0
  8  9  1  0  0  0  0
  8 10  1  0  0  0  0
  8 11  1  0  0  0  0
 11 12  1  0  0  0  0
 11 13  1  0  0  0  0
 11 14  1  0  0  0  0
 14 15  1  0  0  0  0
 14 16  1  0  0  0  0
 14 17  1  0  0  0  0
 17 18  1  0  0  0  0
 17 19  1  0  0  0  0
 19 20  1  0  0  0  0
 19 21  1  0  0  0  0
 19 22  1  0  0  0  0
 17 23  1  0  0  0  0
 23 24  1  0  0  0  0
 23 25  1  0  0  0  0
 23 26  1  0  0  0  0
M  END
> <VConfSearch Rank>
168

> <Conf_Id>
45

> <Delta U+W>
1.035

> <U+W>
-29.264

> <U>
24.725

> <W>
-53.989

> <W(PB)>
-56.298

> <W(SA)>
2.309

> <Valence>
3.780

> <Coulomb>
19.804

> <VdW>
1.141

> <VdW6>
-8.104

> <VdW12>
9.246

> <Bond>
0.254

> <Angle>
1.437

> <Pdih>
2.089

> <Idih>
0.000

> <Tether>
0.000

$$$$
VeraChem MOL file


 26 25  0  0  0  0  0  0  0  0999 V2000     
   19.0710   20.8171   19.4181 C   0  0  0  0  0  0  0  0  0  0  0  0
   19.6316   21.6730   19.0202 H   0  0  0  0  0  0  0  0  0  0  0  0
   18.9898   20.0676   18.6200 H   0  0  0  0  0  0  0  0  0  0  0  0
   18.0591   21.1630   19.6665 H   0  0  0  0  0  0  0  0  0  0  0  0
   19.7775   20.2325   20.6596 C   0  0  0  0  0  0  0  0  0  0  0  0
   19.8764   21.0220   21.4162 H   0  0  0  0  0  0  0  0  0  0  0  0
   20.7959   19.9226   20.3865 H   0  0  0  0  0  0  0  0  0  0  0  0
   19.0022   19.0265   21.2412 C   0  0  0  0  0  0  0  0  0  0  0  0
   18.0036   19.3496   21.5664 H   0  0  0  0  0  0  0  0  0  0  0  0
   18.8417   18.2890   20.4426 H   0  0  0  0  0  0  0  0  0  0  0  0
   19.7296   18.3255   22.4150 C   0  0  0  0  0  0  0  0  0  0  0  0
   20.7272   18.0014   22.0876 H   0  0  0  0  0  0  0  0  0  0  0  0
   19.1731   17.4116   22.6609 H   0  0  0  0  0  0  0  0  0  0  0  0
   19.8571   19.2108   23.6817 C   0  0  0  0  0  0  0  0  0  0  0  0
   20.4341   20.1114   23.4383 H   0  0  0  0  0  0  0  0  0  0  0  0
   18.8625   19.5505   23.9995 H   0  0  0  0  0  0  0  0  0  0  0  0
   20.5573   18.4882   24.8534 C   0  0  1  0  0  0  0  0  0  0  0  0
   21.5294   18.1282   24.5023 H   0  0  0  0  0  0  0  0  0  0  0  0
   20.7962   19.4642   26.0167 C   0  0  0  0  0  0  0  0  0  0  0  0
   19.8486   19.8560   26.4072 H   0  0  0  0  0  0  0  0  0  0  0  0
   21.4099   20.3142   25.6932 H   0  0  0  0  0  0  0  0  0  0  0  0
   21.3250   18.9665   26.8389 H   0  0  0  0  0  0  0  0  0  0  0  0
   19.7937   17.2818   25.3281 N   0  3  0  0  0  0  0  0  0  0  0  0
   19.6671   16.5989   24.5764 H   0  0  0  0  0  0  0  0  0  0  0  0
   20.2819   16.8073   26.0929 H   0  0  0  0  0  0  0  0  0  0  0  0
   18.8645   17.5391   25.6709 H   0  0  0  0  0  0  0  0  0  0  0  0
  1  2  1  0  0  0  0
  1  3  1  0  0  0  0
  1  4  1  0  0  0  0
  1  5  1  0  0  0  0
  5  6  1  0  0  0  0
  5  7  1  0  0  0  0
  5  8  1  0  0  0  0
  8  9  1  0  0  0  0
  8 10  1  0  0  0  0
  8 11  1  0  0  0  0
 11 12  1  0  0  0  0
 11 13  1  0  0  0  0
 11 14  1  0  0  0  0
 14 15  1  0  0  0  0
 14 16  1  0  0  0  0
 14 17  1  0  0  0  0
 17 18  1  0  0  0  0
 17 19  1  0  0  0  0
 19 20  1  0  0  0  0
 19 21  1  0  0  0  0
 19 22  1  0  0  0  0
 17 23  1  0  0  0  0
 23 24  1  0  0  0  0
 23 25  1  0  0  0  0
 23 26  1  0  0  0  0
M  END
> <VConfSearch Rank>
169

> <Conf_Id>
121

> <Delta U+W>
0.736

> <U+W>
-29.562

> <U>
24.282

> <W>
-53.844

> <W(PB)>
-56.205

> <W(SA)>
2.361

> <Valence>
3.311

> <Coulomb>
19.887

> <VdW>
1.083

> <VdW6>
-7.444

> <VdW12>
8.527

> <Bond>
0.219

> <Angle>
1.167

> <Pdih>
1.926

> <Idih>
0.000

> <Tether>
0.000

$$$$
VeraChem MOL file


 26 25  0  0  0  0  0  0  0  0999 V2000     
   16.2489   18.3328   22.7427 C   0  0  0  0  0  0  0  0  0  0  0  0
   15.4283   17.7108   22.3622 H   0  0  0  0  0  0  0  0  0  0  0  0
   16.0077   18.6102   23.7770 H   0  0  0  0  0  0  0  0  0  0  0  0
   16.2755   19.2476   22.1379 H   0  0  0  0  0  0  0  0  0  0  0  0
   17.5877   17.5638   22.6711 C   0  0  0  0  0  0  0  0  0  0  0  0
   17.8234   17.3278   21.6239 H   0  0  0  0  0  0  0  0  0  0  0  0
   17.4679   16.5990   23.1836 H   0  0  0  0  0  0  0  0  0  0  0  0
   18.7719   18.3236   23.3163 C   0  0  0  0  0  0  0  0  0  0  0  0
   18.5345   18.5496   24.3650 H   0  0  0  0  0  0  0  0  0  0  0  0
   19.6386   17.6500   23.3329 H   0  0  0  0  0  0  0  0  0  0  0  0
   19.1449   19.6303   22.5710 C   0  0  0  0  0  0  0  0  0  0  0  0
   18.2826   20.3093   22.5682 H   0  0  0  0  0  0  0  0  0  0  0  0
   19.3591   19.4101   21.5170 H   0  0  0  0  0  0  0  0  0  0  0  0
   20.3409   20.3805   23.2131 C   0  0  0  0  0  0  0  0  0  0  0  0
   20.5255   21.3045   22.6492 H   0  0  0  0  0  0  0  0  0  0  0  0
   20.0499   20.6946   24.2241 H   0  0  0  0  0  0  0  0  0  0  0  0
   21.6558   19.5702   23.3054 C   0  0  1  0  0  0  0  0  0  0  0  0
   21.4613   18.6596   23.8795 H   0  0  0  0  0  0  0  0  0  0  0  0
   22.1860   19.1670   21.9179 C   0  0  0  0  0  0  0  0  0  0  0  0
   22.3429   20.0471   21.2819 H   0  0  0  0  0  0  0  0  0  0  0  0
   21.4892   18.4928   21.4064 H   0  0  0  0  0  0  0  0  0  0  0  0
   23.1424   18.6374   22.0084 H   0  0  0  0  0  0  0  0  0  0  0  0
   22.7077   20.3294   24.0654 N   0  3  0  0  0  0  0  0  0  0  0  0
   22.3911   20.5713   25.0087 H   0  0  0  0  0  0  0  0  0  0  0  0
   23.5669   19.7814   24.1642 H   0  0  0  0  0  0  0  0  0  0  0  0
   22.9554   21.2020   23.5913 H   0  0  0  0  0  0  0  0  0  0  0  0
  1  2  1  0  0  0  0
  1  3  1  0  0  0  0
  1  4  1  0  0  0  0
  1  5  1  0  0  0  0
  5  6  1  0  0  0  0
  5  7  1  0  0  0  0
  5  8  1  0  0  0  0
  8  9  1  0  0  0  0
  8 10  1  0  0  0  0
  8 11  1  0  0  0  0
 11 12  1  0  0  0  0
 11 13  1  0  0  0  0
 11 14  1  0  0  0  0
 14 15  1  0  0  0  0
 14 16  1  0  0  0  0
 14 17  1  0  0  0  0
 17 18  1  0  0  0  0
 17 19  1  0  0  0  0
 19 20  1  0  0  0  0
 19 21  1  0  0  0  0
 19 22  1  0  0  0  0
 17 23  1  0  0  0  0
 23 24  1  0  0  0  0
 23 25  1  0  0  0  0
 23 26  1  0  0  0  0
M  END
> <VConfSearch Rank>
170

> <Conf_Id>
5

> <Delta U+W>
1.233

> <U+W>
-29.065

> <U>
25.023

> <W>
-54.088

> <W(PB)>
-56.383

> <W(SA)>
2.296

> <Valence>
4.083

> <Coulomb>
19.893

> <VdW>
1.047

> <VdW6>
-8.479

> <VdW12>
9.527

> <Bond>
0.256

> <Angle>
1.716

> <Pdih>
2.112

> <Idih>
0.000

> <Tether>
0.000

$$$$
VeraChem MOL file


 26 25  0  0  0  0  0  0  0  0999 V2000     
   22.3417   17.8087   20.6543 C   0  0  0  0  0  0  0  0  0  0  0  0
   22.6601   17.2240   19.7816 H   0  0  0  0  0  0  0  0  0  0  0  0
   22.4350   18.8693   20.3907 H   0  0  0  0  0  0  0  0  0  0  0  0
   23.0398   17.5947   21.4740 H   0  0  0  0  0  0  0  0  0  0  0  0
   20.8923   17.4444   21.0488 C   0  0  0  0  0  0  0  0  0  0  0  0
   20.8258   16.3548   21.1759 H   0  0  0  0  0  0  0  0  0  0  0  0
   20.2091   17.6997   20.2267 H   0  0  0  0  0  0  0  0  0  0  0  0
   20.4175   18.1246   22.3558 C   0  0  0  0  0  0  0  0  0  0  0  0
   19.4422   17.6973   22.6225 H   0  0  0  0  0  0  0  0  0  0  0  0
   21.1068   17.8701   23.1726 H   0  0  0  0  0  0  0  0  0  0  0  0
   20.2877   19.6639   22.2383 C   0  0  0  0  0  0  0  0  0  0  0  0
   19.5750   19.9106   21.4393 H   0  0  0  0  0  0  0  0  0  0  0  0
   21.2515   20.0916   21.9339 H   0  0  0  0  0  0  0  0  0  0  0  0
   19.8494   20.3627   23.5505 C   0  0  0  0  0  0  0  0  0  0  0  0
   20.5998   20.1947   24.3346 H   0  0  0  0  0  0  0  0  0  0  0  0
   19.8553   21.4448   23.3642 H   0  0  0  0  0  0  0  0  0  0  0  0
   18.4448   19.9395   24.0455 C   0  0  1  0  0  0  0  0  0  0  0  0
   17.9154   19.4710   23.2101 H   0  0  0  0  0  0  0  0  0  0  0  0
   18.5331   18.9284   25.2034 C   0  0  0  0  0  0  0  0  0  0  0  0
   19.0107   19.3769   26.0835 H   0  0  0  0  0  0  0  0  0  0  0  0
   19.1133   18.0430   24.9207 H   0  0  0  0  0  0  0  0  0  0  0  0
   17.5322   18.5891   25.4970 H   0  0  0  0  0  0  0  0  0  0  0  0
   17.6129   21.1233   24.4569 N   0  3  0  0  0  0  0  0  0  0  0  0
   17.4993   21.7894   23.6873 H   0  0  0  0  0  0  0  0  0  0  0  0
   16.6752   20.8371   24.7521 H   0  0  0  0  0  0  0  0  0  0  0  0
   18.0390   21.6267   25.2397 H   0  0  0  0  0  0  0  0  0  0  0  0
  1  2  1  0  0  0  0
  1  3  1  0  0  0  0
  1  4  1  0  0  0  0
  1  5  1  0  0  0  0
  5  6  1  0  0  0  0
  5  7  1  0  0  0  0
  5  8  1  0  0  0  0
  8  9  1  0  0  0  0
  8 10  1  0  0  0  0
  8 11  1  0  0  0  0
 11 12  1  0  0  0  0
 11 13  1  0  0  0  0
 11 14  1  0  0  0  0
 14 15  1  0  0  0  0
 14 16  1  0  0  0  0
 14 17  1  0  0  0  0
 17 18  1  0  0  0  0
 17 19  1  0  0  0  0
 19 20  1  0  0  0  0
 19 21  1  0  0  0  0
 19 22  1  0  0  0  0
 17 23  1  0  0  0  0
 23 24  1  0  0  0  0
 23 25  1  0  0  0  0
 23 26  1  0  0  0  0
M  END
> <VConfSearch Rank>
171

> <Conf_Id>
100

> <Delta U+W>
3.818

> <U+W>
-26.481

> <U>
27.496

> <W>
-53.977

> <W(PB)>
-56.267

> <W(SA)>
2.290

> <Valence>
6.472

> <Coulomb>
19.839

> <VdW>
1.185

> <VdW6>
-8.405

> <VdW12>
9.590

> <Bond>
0.248

> <Angle>
1.619

> <Pdih>
4.604

> <Idih>
0.000

> <Tether>
0.000

$$$$
VeraChem MOL file


 26 25  0  0  0  0  0  0  0  0999 V2000     
   23.0786   17.3196   23.1889 C   0  0  0  0  0  0  0  0  0  0  0  0
   24.1453   17.4846   22.9888 H   0  0  0  0  0  0  0  0  0  0  0  0
   22.9194   17.4194   24.2706 H   0  0  0  0  0  0  0  0  0  0  0  0
   22.8375   16.2879   22.9015 H   0  0  0  0  0  0  0  0  0  0  0  0
   22.2145   18.3302   22.4052 C   0  0  0  0  0  0  0  0  0  0  0  0
   22.4213   18.2302   21.3305 H   0  0  0  0  0  0  0  0  0  0  0  0
   22.5015   19.3523   22.6895 H   0  0  0  0  0  0  0  0  0  0  0  0
   20.7071   18.1196   22.6689 C   0  0  0  0  0  0  0  0  0  0  0  0
   20.4281   17.0959   22.3831 H   0  0  0  0  0  0  0  0  0  0  0  0
   20.5147   18.2073   23.7446 H   0  0  0  0  0  0  0  0  0  0  0  0
   19.8393   19.1289   21.8775 C   0  0  0  0  0  0  0  0  0  0  0  0
   20.0470   18.9889   20.8076 H   0  0  0  0  0  0  0  0  0  0  0  0
   20.1453   20.1569   22.1108 H   0  0  0  0  0  0  0  0  0  0  0  0
   18.3124   18.9464   22.1045 C   0  0  0  0  0  0  0  0  0  0  0  0
   17.7960   19.1595   21.1593 H   0  0  0  0  0  0  0  0  0  0  0  0
   18.0902   17.8936   22.3231 H   0  0  0  0  0  0  0  0  0  0  0  0
   17.6734   19.8434   23.1938 C   0  0  1  0  0  0  0  0  0  0  0  0
   16.6102   19.5875   23.2366 H   0  0  0  0  0  0  0  0  0  0  0  0
   18.2627   19.5997   24.5925 C   0  0  0  0  0  0  0  0  0  0  0  0
   19.2988   19.9523   24.6590 H   0  0  0  0  0  0  0  0  0  0  0  0
   18.2393   18.5326   24.8457 H   0  0  0  0  0  0  0  0  0  0  0  0
   17.6793   20.1343   25.3520 H   0  0  0  0  0  0  0  0  0  0  0  0
   17.7313   21.3035   22.8361 N   0  3  0  0  0  0  0  0  0  0  0  0
   17.2910   21.4861   21.9298 H   0  0  0  0  0  0  0  0  0  0  0  0
   17.2474   21.8783   23.5317 H   0  0  0  0  0  0  0  0  0  0  0  0
   18.6970   21.6361   22.7816 H   0  0  0  0  0  0  0  0  0  0  0  0
  1  2  1  0  0  0  0
  1  3  1  0  0  0  0
  1  4  1  0  0  0  0
  1  5  1  0  0  0  0
  5  6  1  0  0  0  0
  5  7  1  0  0  0  0
  5  8  1  0  0  0  0
  8  9  1  0  0  0  0
  8 10  1  0  0  0  0
  8 11  1  0  0  0  0
 11 12  1  0  0  0  0
 11 13  1  0  0  0  0
 11 14  1  0  0  0  0
 14 15  1  0  0  0  0
 14 16  1  0  0  0  0
 14 17  1  0  0  0  0
 17 18  1  0  0  0  0
 17 19  1  0  0  0  0
 19 20  1  0  0  0  0
 19 21  1  0  0  0  0
 19 22  1  0  0  0  0
 17 23  1  0  0  0  0
 23 24  1  0  0  0  0
 23 25  1  0  0  0  0
 23 26  1  0  0  0  0
M  END
> <VConfSearch Rank>
172

> <Conf_Id>
142

> <Delta U+W>
2.978

> <U+W>
-27.320

> <U>
26.848

> <W>
-54.168

> <W(PB)>
-56.427

> <W(SA)>
2.259

> <Valence>
5.823

> <Coulomb>
20.057

> <VdW>
0.968

> <VdW6>
-8.367

> <VdW12>
9.335

> <Bond>
0.267

> <Angle>
1.799

> <Pdih>
3.758

> <Idih>
0.000

> <Tether>
0.000

$$$$
VeraChem MOL file


 26 25  0  0  0  0  0  0  0  0999 V2000     
   23.0463   17.7825   22.5040 C   0  0  0  0  0  0  0  0  0  0  0  0
   23.5563   18.6811   22.8747 H   0  0  0  0  0  0  0  0  0  0  0  0
   23.7475   16.9418   22.5852 H   0  0  0  0  0  0  0  0  0  0  0  0
   22.8277   17.9255   21.4388 H   0  0  0  0  0  0  0  0  0  0  0  0
   21.7634   17.4957   23.3174 C   0  0  0  0  0  0  0  0  0  0  0  0
   22.0517   17.2312   24.3444 H   0  0  0  0  0  0  0  0  0  0  0  0
   21.2522   16.6142   22.9057 H   0  0  0  0  0  0  0  0  0  0  0  0
   20.7837   18.6930   23.3721 C   0  0  0  0  0  0  0  0  0  0  0  0
   19.9966   18.4420   24.0925 H   0  0  0  0  0  0  0  0  0  0  0  0
   21.3066   19.5763   23.7641 H   0  0  0  0  0  0  0  0  0  0  0  0
   20.1390   19.0251   22.0027 C   0  0  0  0  0  0  0  0  0  0  0  0
   19.5642   18.1602   21.6459 H   0  0  0  0  0  0  0  0  0  0  0  0
   20.9317   19.1805   21.2602 H   0  0  0  0  0  0  0  0  0  0  0  0
   19.2466   20.2986   21.9962 C   0  0  0  0  0  0  0  0  0  0  0  0
   19.8631   21.1744   22.2377 H   0  0  0  0  0  0  0  0  0  0  0  0
   18.9058   20.4596   20.9649 H   0  0  0  0  0  0  0  0  0  0  0  0
   17.9911   20.3009   22.9056 C   0  0  1  0  0  0  0  0  0  0  0  0
   17.3792   21.1531   22.5940 H   0  0  0  0  0  0  0  0  0  0  0  0
   17.1342   19.0349   22.7308 C   0  0  0  0  0  0  0  0  0  0  0  0
   17.6472   18.1429   23.1097 H   0  0  0  0  0  0  0  0  0  0  0  0
   16.8947   18.8711   21.6728 H   0  0  0  0  0  0  0  0  0  0  0  0
   16.1871   19.1339   23.2750 H   0  0  0  0  0  0  0  0  0  0  0  0
   18.3087   20.5535   24.3540 N   0  3  0  0  0  0  0  0  0  0  0  0
   18.8167   21.4339   24.4778 H   0  0  0  0  0  0  0  0  0  0  0  0
   17.4563   20.6118   24.9183 H   0  0  0  0  0  0  0  0  0  0  0  0
   18.8865   19.8070   24.7449 H   0  0  0  0  0  0  0  0  0  0  0  0
  1  2  1  0  0  0  0
  1  3  1  0  0  0  0
  1  4  1  0  0  0  0
  1  5  1  0  0  0  0
  5  6  1  0  0  0  0
  5  7  1  0  0  0  0
  5  8  1  0  0  0  0
  8  9  1  0  0  0  0
  8 10  1  0  0  0  0
  8 11  1  0  0  0  0
 11 12  1  0  0  0  0
 11 13  1  0  0  0  0
 11 14  1  0  0  0  0
 14 15  1  0  0  0  0
 14 16  1  0  0  0  0
 14 17  1  0  0  0  0
 17 18  1  0  0  0  0
 17 19  1  0  0  0  0
 19 20  1  0  0  0  0
 19 21  1  0  0  0  0
 19 22  1  0  0  0  0
 17 23  1  0  0  0  0
 23 24  1  0  0  0  0
 23 25  1  0  0  0  0
 23 26  1  0  0  0  0
M  END
> <VConfSearch Rank>
173

> <Conf_Id>
119

> <Delta U+W>
3.538

> <U+W>
-26.761

> <U>
27.482

> <W>
-54.243

> <W(PB)>
-56.494

> <W(SA)>
2.251

> <Valence>
5.284

> <Coulomb>
21.247

> <VdW>
0.951

> <VdW6>
-9.416

> <VdW12>
10.367

> <Bond>
0.323

> <Angle>
2.522

> <Pdih>
2.439

> <Idih>
0.000

> <Tether>
0.000

$$$$
VeraChem MOL file


 26 25  0  0  0  0  0  0  0  0999 V2000     
   20.1872   17.4965   26.0550 C   0  0  0  0  0  0  0  0  0  0  0  0
   19.3014   16.8494   26.0968 H   0  0  0  0  0  0  0  0  0  0  0  0
   20.9331   17.0181   25.4083 H   0  0  0  0  0  0  0  0  0  0  0  0
   20.6124   17.5491   27.0656 H   0  0  0  0  0  0  0  0  0  0  0  0
   19.8196   18.9098   25.5488 C   0  0  0  0  0  0  0  0  0  0  0  0
   20.7266   19.5272   25.4864 H   0  0  0  0  0  0  0  0  0  0  0  0
   19.1694   19.3935   26.2911 H   0  0  0  0  0  0  0  0  0  0  0  0
   19.0945   18.9060   24.1813 C   0  0  0  0  0  0  0  0  0  0  0  0
   18.1752   18.3093   24.2583 H   0  0  0  0  0  0  0  0  0  0  0  0
   18.7731   19.9307   23.9606 H   0  0  0  0  0  0  0  0  0  0  0  0
   19.9694   18.3624   23.0224 C   0  0  0  0  0  0  0  0  0  0  0  0
   20.1767   17.3012   23.2131 H   0  0  0  0  0  0  0  0  0  0  0  0
   20.9452   18.8647   23.0166 H   0  0  0  0  0  0  0  0  0  0  0  0
   19.2869   18.4735   21.6302 C   0  0  0  0  0  0  0  0  0  0  0  0
   19.5551   17.5855   21.0428 H   0  0  0  0  0  0  0  0  0  0  0  0
   18.1959   18.4252   21.7439 H   0  0  0  0  0  0  0  0  0  0  0  0
   19.6621   19.7177   20.7871 C   0  0  1  0  0  0  0  0  0  0  0  0
   19.0980   19.6538   19.8514 H   0  0  0  0  0  0  0  0  0  0  0  0
   19.2767   21.0407   21.4687 C   0  0  0  0  0  0  0  0  0  0  0  0
   19.8853   21.2249   22.3620 H   0  0  0  0  0  0  0  0  0  0  0  0
   18.2194   21.0353   21.7611 H   0  0  0  0  0  0  0  0  0  0  0  0
   19.4270   21.8831   20.7825 H   0  0  0  0  0  0  0  0  0  0  0  0
   21.1139   19.7221   20.3929 N   0  3  0  0  0  0  0  0  0  0  0  0
   21.3689   18.8682   19.8887 H   0  0  0  0  0  0  0  0  0  0  0  0
   21.3331   20.5142   19.7822 H   0  0  0  0  0  0  0  0  0  0  0  0
   21.7224   19.7890   21.2123 H   0  0  0  0  0  0  0  0  0  0  0  0
  1  2  1  0  0  0  0
  1  3  1  0  0  0  0
  1  4  1  0  0  0  0
  1  5  1  0  0  0  0
  5  6  1  0  0  0  0
  5  7  1  0  0  0  0
  5  8  1  0  0  0  0
  8  9  1  0  0  0  0
  8 10  1  0  0  0  0
  8 11  1  0  0  0  0
 11 12  1  0  0  0  0
 11 13  1  0  0  0  0
 11 14  1  0  0  0  0
 14 15  1  0  0  0  0
 14 16  1  0  0  0  0
 14 17  1  0  0  0  0
 17 18  1  0  0  0  0
 17 19  1  0  0  0  0
 19 20  1  0  0  0  0
 19 21  1  0  0  0  0
 19 22  1  0  0  0  0
 17 23  1  0  0  0  0
 23 24  1  0  0  0  0
 23 25  1  0  0  0  0
 23 26  1  0  0  0  0
M  END
> <VConfSearch Rank>
174

> <Conf_Id>
127

> <Delta U+W>
3.544

> <U+W>
-26.754

> <U>
27.509

> <W>
-54.263

> <W(PB)>
-56.496

> <W(SA)>
2.232

> <Valence>
6.375

> <Coulomb>
20.014

> <VdW>
1.120

> <VdW6>
-8.976

> <VdW12>
10.096

> <Bond>
0.304

> <Angle>
1.986

> <Pdih>
4.086

> <Idih>
0.000

> <Tether>
0.000

$$$$
VeraChem MOL file


 26 25  0  0  0  0  0  0  0  0999 V2000     
   19.2024   18.9617   26.1054 C   0  0  0  0  0  0  0  0  0  0  0  0
   18.5345   19.4566   26.8222 H   0  0  0  0  0  0  0  0  0  0  0  0
   19.8230   18.2503   26.6656 H   0  0  0  0  0  0  0  0  0  0  0  0
   19.8638   19.7271   25.6850 H   0  0  0  0  0  0  0  0  0  0  0  0
   18.3817   18.2364   25.0134 C   0  0  0  0  0  0  0  0  0  0  0  0
   17.7085   18.9430   24.5085 H   0  0  0  0  0  0  0  0  0  0  0  0
   17.7314   17.5030   25.5105 H   0  0  0  0  0  0  0  0  0  0  0  0
   19.2612   17.4928   23.9753 C   0  0  0  0  0  0  0  0  0  0  0  0
   20.2082   17.1779   24.4350 H   0  0  0  0  0  0  0  0  0  0  0  0
   18.7462   16.5634   23.6952 H   0  0  0  0  0  0  0  0  0  0  0  0
   19.5388   18.2829   22.6702 C   0  0  0  0  0  0  0  0  0  0  0  0
   18.5841   18.4954   22.1711 H   0  0  0  0  0  0  0  0  0  0  0  0
   20.0991   17.6240   21.9949 H   0  0  0  0  0  0  0  0  0  0  0  0
   20.3257   19.6035   22.8830 C   0  0  0  0  0  0  0  0  0  0  0  0
   19.7160   20.2941   23.4778 H   0  0  0  0  0  0  0  0  0  0  0  0
   21.2285   19.4004   23.4740 H   0  0  0  0  0  0  0  0  0  0  0  0
   20.7340   20.3361   21.5828 C   0  0  1  0  0  0  0  0  0  0  0  0
   21.2062   21.2786   21.8771 H   0  0  0  0  0  0  0  0  0  0  0  0
   21.7656   19.5388   20.7653 C   0  0  0  0  0  0  0  0  0  0  0  0
   22.6253   19.2603   21.3873 H   0  0  0  0  0  0  0  0  0  0  0  0
   22.1418   20.1430   19.9307 H   0  0  0  0  0  0  0  0  0  0  0  0
   21.3335   18.6229   20.3456 H   0  0  0  0  0  0  0  0  0  0  0  0
   19.5478   20.7105   20.7372 N   0  3  0  0  0  0  0  0  0  0  0  0
   18.8790   21.2826   21.2604 H   0  0  0  0  0  0  0  0  0  0  0  0
   19.8307   21.2478   19.9127 H   0  0  0  0  0  0  0  0  0  0  0  0
   19.0510   19.8798   20.4065 H   0  0  0  0  0  0  0  0  0  0  0  0
  1  2  1  0  0  0  0
  1  3  1  0  0  0  0
  1  4  1  0  0  0  0
  1  5  1  0  0  0  0
  5  6  1  0  0  0  0
  5  7  1  0  0  0  0
  5  8  1  0  0  0  0
  8  9  1  0  0  0  0
  8 10  1  0  0  0  0
  8 11  1  0  0  0  0
 11 12  1  0  0  0  0
 11 13  1  0  0  0  0
 11 14  1  0  0  0  0
 14 15  1  0  0  0  0
 14 16  1  0  0  0  0
 14 17  1  0  0  0  0
 17 18  1  0  0  0  0
 17 19  1  0  0  0  0
 19 20  1  0  0  0  0
 19 21  1  0  0  0  0
 19 22  1  0  0  0  0
 17 23  1  0  0  0  0
 23 24  1  0  0  0  0
 23 25  1  0  0  0  0
 23 26  1  0  0  0  0
M  END
> <VConfSearch Rank>
175

> <Conf_Id>
131

> <Delta U+W>
3.589

> <U+W>
-26.710

> <U>
27.573

> <W>
-54.283

> <W(PB)>
-56.537

> <W(SA)>
2.254

> <Valence>
6.363

> <Coulomb>
20.026

> <VdW>
1.184

> <VdW6>
-8.939

> <VdW12>
10.123

> <Bond>
0.298

> <Angle>
2.018

> <Pdih>
4.047

> <Idih>
0.000

> <Tether>
0.000

$$$$
VeraChem MOL file


 26 25  0  0  0  0  0  0  0  0999 V2000     
   21.2645   21.0276   24.3843 C   0  0  0  0  0  0  0  0  0  0  0  0
   20.9474   21.7170   23.5912 H   0  0  0  0  0  0  0  0  0  0  0  0
   20.3834   20.4893   24.7545 H   0  0  0  0  0  0  0  0  0  0  0  0
   21.6537   21.6287   25.2162 H   0  0  0  0  0  0  0  0  0  0  0  0
   22.3452   20.0496   23.8741 C   0  0  0  0  0  0  0  0  0  0  0  0
   22.5872   19.3286   24.6674 H   0  0  0  0  0  0  0  0  0  0  0  0
   23.2691   20.6137   23.6842 H   0  0  0  0  0  0  0  0  0  0  0  0
   21.9600   19.2886   22.5798 C   0  0  0  0  0  0  0  0  0  0  0  0
   21.8257   19.9977   21.7514 H   0  0  0  0  0  0  0  0  0  0  0  0
   22.8184   18.6637   22.2970 H   0  0  0  0  0  0  0  0  0  0  0  0
   20.7171   18.3698   22.7120 C   0  0  0  0  0  0  0  0  0  0  0  0
   20.6413   18.0033   23.7438 H   0  0  0  0  0  0  0  0  0  0  0  0
   20.8736   17.4822   22.0835 H   0  0  0  0  0  0  0  0  0  0  0  0
   19.3972   19.0506   22.2624 C   0  0  0  0  0  0  0  0  0  0  0  0
   19.1868   19.9326   22.8774 H   0  0  0  0  0  0  0  0  0  0  0  0
   19.5300   19.4172   21.2361 H   0  0  0  0  0  0  0  0  0  0  0  0
   18.1739   18.1061   22.2868 C   0  0  1  0  0  0  0  0  0  0  0  0
   18.4216   17.2080   21.7125 H   0  0  0  0  0  0  0  0  0  0  0  0
   17.7985   17.6825   23.7185 C   0  0  0  0  0  0  0  0  0  0  0  0
   17.6012   18.5563   24.3520 H   0  0  0  0  0  0  0  0  0  0  0  0
   18.5975   17.0941   24.1838 H   0  0  0  0  0  0  0  0  0  0  0  0
   16.8976   17.0568   23.7123 H   0  0  0  0  0  0  0  0  0  0  0  0
   16.9902   18.7329   21.6036 N   0  3  0  0  0  0  0  0  0  0  0  0
   16.6892   19.5857   22.0828 H   0  0  0  0  0  0  0  0  0  0  0  0
   17.2033   18.9837   20.6339 H   0  0  0  0  0  0  0  0  0  0  0  0
   16.1892   18.0953   21.5834 H   0  0  0  0  0  0  0  0  0  0  0  0
  1  2  1  0  0  0  0
  1  3  1  0  0  0  0
  1  4  1  0  0  0  0
  1  5  1  0  0  0  0
  5  6  1  0  0  0  0
  5  7  1  0  0  0  0
  5  8  1  0  0  0  0
  8  9  1  0  0  0  0
  8 10  1  0  0  0  0
  8 11  1  0  0  0  0
 11 12  1  0  0  0  0
 11 13  1  0  0  0  0
 11 14  1  0  0  0  0
 14 15  1  0  0  0  0
 14 16  1  0  0  0  0
 14 17  1  0  0  0  0
 17 18  1  0  0  0  0
 17 19  1  0  0  0  0
 19 20  1  0  0  0  0
 19 21  1  0  0  0  0
 19 22  1  0  0  0  0
 17 23  1  0  0  0  0
 23 24  1  0  0  0  0
 23 25  1  0  0  0  0
 23 26  1  0  0  0  0
M  END
> <VConfSearch Rank>
176

> <Conf_Id>
80

> <Delta U+W>
3.351

> <U+W>
-26.948

> <U>
27.261

> <W>
-54.209

> <W(PB)>
-56.471

> <W(SA)>
2.263

> <Valence>
6.230

> <Coulomb>
19.945

> <VdW>
1.087

> <VdW6>
-8.618

> <VdW12>
9.704

> <Bond>
0.277

> <Angle>
1.928

> <Pdih>
4.025

> <Idih>
0.000

> <Tether>
0.000

$$$$
VeraChem MOL file


 26 25  0  0  0  0  0  0  0  0999 V2000     
   19.8565   21.9910   21.4043 C   0  0  0  0  0  0  0  0  0  0  0  0
   19.3793   22.3975   20.5033 H   0  0  0  0  0  0  0  0  0  0  0  0
   20.2503   22.8346   21.9859 H   0  0  0  0  0  0  0  0  0  0  0  0
   20.7015   21.3716   21.0787 H   0  0  0  0  0  0  0  0  0  0  0  0
   18.8408   21.1714   22.2317 C   0  0  0  0  0  0  0  0  0  0  0  0
   18.4826   20.3199   21.6389 H   0  0  0  0  0  0  0  0  0  0  0  0
   17.9555   21.7947   22.4195 H   0  0  0  0  0  0  0  0  0  0  0  0
   19.3964   20.6868   23.5963 C   0  0  0  0  0  0  0  0  0  0  0  0
   19.5950   21.5686   24.2209 H   0  0  0  0  0  0  0  0  0  0  0  0
   18.6071   20.1330   24.1170 H   0  0  0  0  0  0  0  0  0  0  0  0
   20.6968   19.8365   23.5318 C   0  0  0  0  0  0  0  0  0  0  0  0
   21.0385   19.6178   24.5529 H   0  0  0  0  0  0  0  0  0  0  0  0
   21.4921   20.4538   23.0937 H   0  0  0  0  0  0  0  0  0  0  0  0
   20.6004   18.5099   22.7271 C   0  0  0  0  0  0  0  0  0  0  0  0
   19.8981   18.6052   21.8915 H   0  0  0  0  0  0  0  0  0  0  0  0
   21.5810   18.3357   22.2650 H   0  0  0  0  0  0  0  0  0  0  0  0
   20.2609   17.2535   23.5651 C   0  0  1  0  0  0  0  0  0  0  0  0
   21.0184   17.1511   24.3483 H   0  0  0  0  0  0  0  0  0  0  0  0
   18.8821   17.3361   24.2405 C   0  0  0  0  0  0  0  0  0  0  0  0
   18.8780   18.0971   25.0287 H   0  0  0  0  0  0  0  0  0  0  0  0
   18.6259   16.3818   24.7168 H   0  0  0  0  0  0  0  0  0  0  0  0
   18.0960   17.5772   23.5143 H   0  0  0  0  0  0  0  0  0  0  0  0
   20.3529   16.0089   22.7262 N   0  3  0  0  0  0  0  0  0  0  0  0
   21.2799   15.9063   22.3033 H   0  0  0  0  0  0  0  0  0  0  0  0
   20.1786   15.1682   23.2840 H   0  0  0  0  0  0  0  0  0  0  0  0
   19.6674   16.0185   21.9663 H   0  0  0  0  0  0  0  0  0  0  0  0
  1  2  1  0  0  0  0
  1  3  1  0  0  0  0
  1  4  1  0  0  0  0
  1  5  1  0  0  0  0
  5  6  1  0  0  0  0
  5  7  1  0  0  0  0
  5  8  1  0  0  0  0
  8  9  1  0  0  0  0
  8 10  1  0  0  0  0
  8 11  1  0  0  0  0
 11 12  1  0  0  0  0
 11 13  1  0  0  0  0
 11 14  1  0  0  0  0
 14 15  1  0  0  0  0
 14 16  1  0  0  0  0
 14 17  1  0  0  0  0
 17 18  1  0  0  0  0
 17 19  1  0  0  0  0
 19 20  1  0  0  0  0
 19 21  1  0  0  0  0
 19 22  1  0  0  0  0
 17 23  1  0  0  0  0
 23 24  1  0  0  0  0
 23 25  1  0  0  0  0
 23 26  1  0  0  0  0
M  END
> <VConfSearch Rank>
177

> <Conf_Id>
136

> <Delta U+W>
4.272

> <U+W>
-26.026

> <U>
28.262

> <W>
-54.288

> <W(PB)>
-56.488

> <W(SA)>
2.200

> <Valence>
7.096

> <Coulomb>
19.990

> <VdW>
1.175

> <VdW6>
-9.404

> <VdW12>
10.580

> <Bond>
0.360

> <Angle>
2.785

> <Pdih>
3.951

> <Idih>
0.000

> <Tether>
0.000

$$$$
VeraChem MOL file


 26 25  0  0  0  0  0  0  0  0999 V2000     
   18.4797   19.4783   25.6396 C   0  0  0  0  0  0  0  0  0  0  0  0
   18.0005   19.7369   24.6873 H   0  0  0  0  0  0  0  0  0  0  0  0
   17.7180   19.5691   26.4248 H   0  0  0  0  0  0  0  0  0  0  0  0
   19.2660   20.2152   25.8480 H   0  0  0  0  0  0  0  0  0  0  0  0
   19.0535   18.0449   25.6081 C   0  0  0  0  0  0  0  0  0  0  0  0
   18.2546   17.3386   25.3424 H   0  0  0  0  0  0  0  0  0  0  0  0
   19.3751   17.7720   26.6229 H   0  0  0  0  0  0  0  0  0  0  0  0
   20.2536   17.8577   24.6450 C   0  0  0  0  0  0  0  0  0  0  0  0
   21.0960   18.4868   24.9639 H   0  0  0  0  0  0  0  0  0  0  0  0
   20.6025   16.8210   24.7501 H   0  0  0  0  0  0  0  0  0  0  0  0
   19.9288   18.1092   23.1493 C   0  0  0  0  0  0  0  0  0  0  0  0
   18.8698   17.8916   22.9533 H   0  0  0  0  0  0  0  0  0  0  0  0
   20.5044   17.3912   22.5500 H   0  0  0  0  0  0  0  0  0  0  0  0
   20.2819   19.5439   22.6779 C   0  0  0  0  0  0  0  0  0  0  0  0
   19.7992   20.2780   23.3327 H   0  0  0  0  0  0  0  0  0  0  0  0
   21.3632   19.7080   22.7769 H   0  0  0  0  0  0  0  0  0  0  0  0
   19.8482   19.8214   21.2222 C   0  0  1  0  0  0  0  0  0  0  0  0
   18.7740   19.6279   21.1423 H   0  0  0  0  0  0  0  0  0  0  0  0
   20.1008   21.2939   20.8606 C   0  0  0  0  0  0  0  0  0  0  0  0
   21.1679   21.5410   20.9243 H   0  0  0  0  0  0  0  0  0  0  0  0
   19.5545   21.9614   21.5387 H   0  0  0  0  0  0  0  0  0  0  0  0
   19.7610   21.5068   19.8395 H   0  0  0  0  0  0  0  0  0  0  0  0
   20.5267   18.9118   20.2346 N   0  3  0  0  0  0  0  0  0  0  0  0
   21.5427   19.0332   20.2520 H   0  0  0  0  0  0  0  0  0  0  0  0
   20.3300   17.9278   20.4360 H   0  0  0  0  0  0  0  0  0  0  0  0
   20.2122   19.0969   19.2779 H   0  0  0  0  0  0  0  0  0  0  0  0
  1  2  1  0  0  0  0
  1  3  1  0  0  0  0
  1  4  1  0  0  0  0
  1  5  1  0  0  0  0
  5  6  1  0  0  0  0
  5  7  1  0  0  0  0
  5  8  1  0  0  0  0
  8  9  1  0  0  0  0
  8 10  1  0  0  0  0
  8 11  1  0  0  0  0
 11 12  1  0  0  0  0
 11 13  1  0  0  0  0
 11 14  1  0  0  0  0
 14 15  1  0  0  0  0
 14 16  1  0  0  0  0
 14 17  1  0  0  0  0
 17 18  1  0  0  0  0
 17 19  1  0  0  0  0
 19 20  1  0  0  0  0
 19 21  1  0  0  0  0
 19 22  1  0  0  0  0
 17 23  1  0  0  0  0
 23 24  1  0  0  0  0
 23 25  1  0  0  0  0
 23 26  1  0  0  0  0
M  END
> <VConfSearch Rank>
178

> <Conf_Id>
124

> <Delta U+W>
3.001

> <U+W>
-27.298

> <U>
26.787

> <W>
-54.085

> <W(PB)>
-56.347

> <W(SA)>
2.262

> <Valence>
5.742

> <Coulomb>
20.023

> <VdW>
1.022

> <VdW6>
-8.392

> <VdW12>
9.414

> <Bond>
0.261

> <Angle>
1.576

> <Pdih>
3.904

> <Idih>
0.000

> <Tether>
0.000

$$$$
VeraChem MOL file


 26 25  0  0  0  0  0  0  0  0999 V2000     
   22.1251   21.3562   23.4220 C   0  0  0  0  0  0  0  0  0  0  0  0
   22.9625   21.0062   24.0396 H   0  0  0  0  0  0  0  0  0  0  0  0
   22.3095   22.4105   23.1785 H   0  0  0  0  0  0  0  0  0  0  0  0
   21.2155   21.3111   24.0306 H   0  0  0  0  0  0  0  0  0  0  0  0
   22.0044   20.5161   22.1292 C   0  0  0  0  0  0  0  0  0  0  0  0
   22.9373   20.6356   21.5606 H   0  0  0  0  0  0  0  0  0  0  0  0
   21.2067   20.9151   21.4873 H   0  0  0  0  0  0  0  0  0  0  0  0
   21.7788   19.0050   22.3939 C   0  0  0  0  0  0  0  0  0  0  0  0
   22.3085   18.4398   21.6146 H   0  0  0  0  0  0  0  0  0  0  0  0
   22.2484   18.7106   23.3425 H   0  0  0  0  0  0  0  0  0  0  0  0
   20.2956   18.5534   22.3690 C   0  0  0  0  0  0  0  0  0  0  0  0
   20.2733   17.4619   22.4834 H   0  0  0  0  0  0  0  0  0  0  0  0
   19.8752   18.7672   21.3773 H   0  0  0  0  0  0  0  0  0  0  0  0
   19.4141   19.2077   23.4656 C   0  0  0  0  0  0  0  0  0  0  0  0
   19.9173   19.1187   24.4372 H   0  0  0  0  0  0  0  0  0  0  0  0
   19.3202   20.2816   23.2626 H   0  0  0  0  0  0  0  0  0  0  0  0
   17.9902   18.6164   23.5933 C   0  0  1  0  0  0  0  0  0  0  0  0
   17.4808   19.1656   24.3913 H   0  0  0  0  0  0  0  0  0  0  0  0
   17.1707   18.8009   22.3042 C   0  0  0  0  0  0  0  0  0  0  0  0
   17.5742   18.2024   21.4786 H   0  0  0  0  0  0  0  0  0  0  0  0
   17.1630   19.8533   21.9945 H   0  0  0  0  0  0  0  0  0  0  0  0
   16.1300   18.4935   22.4637 H   0  0  0  0  0  0  0  0  0  0  0  0
   18.0018   17.1750   24.0234 N   0  3  0  0  0  0  0  0  0  0  0  0
   17.0522   16.8193   24.1650 H   0  0  0  0  0  0  0  0  0  0  0  0
   18.4503   16.5808   23.3221 H   0  0  0  0  0  0  0  0  0  0  0  0
   18.5094   17.0499   24.9038 H   0  0  0  0  0  0  0  0  0  0  0  0
  1  2  1  0  0  0  0
  1  3  1  0  0  0  0
  1  4  1  0  0  0  0
  1  5  1  0  0  0  0
  5  6  1  0  0  0  0
  5  7  1  0  0  0  0
  5  8  1  0  0  0  0
  8  9  1  0  0  0  0
  8 10  1  0  0  0  0
  8 11  1  0  0  0  0
 11 12  1  0  0  0  0
 11 13  1  0  0  0  0
 11 14  1  0  0  0  0
 14 15  1  0  0  0  0
 14 16  1  0  0  0  0
 14 17  1  0  0  0  0
 17 18  1  0  0  0  0
 17 19  1  0  0  0  0
 19 20  1  0  0  0  0
 19 21  1  0  0  0  0
 19 22  1  0  0  0  0
 17 23  1  0  0  0  0
 23 24  1  0  0  0  0
 23 25  1  0  0  0  0
 23 26  1  0  0  0  0
M  END
> <VConfSearch Rank>
179

> <Conf_Id>
105

> <Delta U+W>
3.442

> <U+W>
-26.857

> <U>
27.313

> <W>
-54.169

> <W(PB)>
-56.414

> <W(SA)>
2.245

> <Valence>
6.229

> <Coulomb>
19.943

> <VdW>
1.140

> <VdW6>
-9.001

> <VdW12>
10.140

> <Bond>
0.294

> <Angle>
1.969

> <Pdih>
3.967

> <Idih>
0.000

> <Tether>
0.000

$$$$
VeraChem MOL file


 26 25  0  0  0  0  0  0  0  0999 V2000     
   17.2239   19.6515   24.5986 C   0  0  0  0  0  0  0  0  0  0  0  0
   17.1039   20.6653   25.0020 H   0  0  0  0  0  0  0  0  0  0  0  0
   16.4235   19.0294   25.0195 H   0  0  0  0  0  0  0  0  0  0  0  0
   18.1776   19.2543   24.9625 H   0  0  0  0  0  0  0  0  0  0  0  0
   17.1461   19.6594   23.0540 C   0  0  0  0  0  0  0  0  0  0  0  0
   16.1538   20.0355   22.7680 H   0  0  0  0  0  0  0  0  0  0  0  0
   17.2043   18.6340   22.6632 H   0  0  0  0  0  0  0  0  0  0  0  0
   18.2226   20.5531   22.3856 C   0  0  0  0  0  0  0  0  0  0  0  0
   17.7811   21.0034   21.4857 H   0  0  0  0  0  0  0  0  0  0  0  0
   18.4783   21.3960   23.0423 H   0  0  0  0  0  0  0  0  0  0  0  0
   19.5093   19.8063   21.9485 C   0  0  0  0  0  0  0  0  0  0  0  0
   20.1591   20.5204   21.4238 H   0  0  0  0  0  0  0  0  0  0  0  0
   19.2430   19.0348   21.2137 H   0  0  0  0  0  0  0  0  0  0  0  0
   20.3030   19.1693   23.1157 C   0  0  0  0  0  0  0  0  0  0  0  0
   20.4344   19.9180   23.9081 H   0  0  0  0  0  0  0  0  0  0  0  0
   19.7289   18.3405   23.5483 H   0  0  0  0  0  0  0  0  0  0  0  0
   21.6918   18.6513   22.6836 C   0  0  1  0  0  0  0  0  0  0  0  0
   22.2450   19.4842   22.2387 H   0  0  0  0  0  0  0  0  0  0  0  0
   22.4778   18.1475   23.9046 C   0  0  0  0  0  0  0  0  0  0  0  0
   21.9648   17.3066   24.3879 H   0  0  0  0  0  0  0  0  0  0  0  0
   22.5987   18.9462   24.6470 H   0  0  0  0  0  0  0  0  0  0  0  0
   23.4801   17.8128   23.6101 H   0  0  0  0  0  0  0  0  0  0  0  0
   21.6040   17.5791   21.6320 N   0  3  0  0  0  0  0  0  0  0  0  0
   21.1193   17.9150   20.7955 H   0  0  0  0  0  0  0  0  0  0  0  0
   22.5336   17.2634   21.3410 H   0  0  0  0  0  0  0  0  0  0  0  0
   21.0957   16.7600   21.9753 H   0  0  0  0  0  0  0  0  0  0  0  0
  1  2  1  0  0  0  0
  1  3  1  0  0  0  0
  1  4  1  0  0  0  0
  1  5  1  0  0  0  0
  5  6  1  0  0  0  0
  5  7  1  0  0  0  0
  5  8  1  0  0  0  0
  8  9  1  0  0  0  0
  8 10  1  0  0  0  0
  8 11  1  0  0  0  0
 11 12  1  0  0  0  0
 11 13  1  0  0  0  0
 11 14  1  0  0  0  0
 14 15  1  0  0  0  0
 14 16  1  0  0  0  0
 14 17  1  0  0  0  0
 17 18  1  0  0  0  0
 17 19  1  0  0  0  0
 19 20  1  0  0  0  0
 19 21  1  0  0  0  0
 19 22  1  0  0  0  0
 17 23  1  0  0  0  0
 23 24  1  0  0  0  0
 23 25  1  0  0  0  0
 23 26  1  0  0  0  0
M  END
> <VConfSearch Rank>
180

> <Conf_Id>
107

> <Delta U+W>
2.995

> <U+W>
-27.304

> <U>
26.796

> <W>
-54.100

> <W(PB)>
-56.404

> <W(SA)>
2.304

> <Valence>
5.706

> <Coulomb>
20.107

> <VdW>
0.982

> <VdW6>
-8.396

> <VdW12>
9.378

> <Bond>
0.254

> <Angle>
1.644

> <Pdih>
3.808

> <Idih>
0.000

> <Tether>
0.000

$$$$
VeraChem MOL file


 26 25  0  0  0  0  0  0  0  0999 V2000     
   23.6684   20.7360   23.4230 C   0  0  0  0  0  0  0  0  0  0  0  0
   24.0364   20.5367   22.4081 H   0  0  0  0  0  0  0  0  0  0  0  0
   24.1166   21.6779   23.7651 H   0  0  0  0  0  0  0  0  0  0  0  0
   24.0275   19.9336   24.0806 H   0  0  0  0  0  0  0  0  0  0  0  0
   22.1278   20.8252   23.4471 C   0  0  0  0  0  0  0  0  0  0  0  0
   21.8008   21.6572   22.8076 H   0  0  0  0  0  0  0  0  0  0  0  0
   21.7922   21.0587   24.4673 H   0  0  0  0  0  0  0  0  0  0  0  0
   21.4711   19.5110   22.9696 C   0  0  0  0  0  0  0  0  0  0  0  0
   21.8127   19.2807   21.9509 H   0  0  0  0  0  0  0  0  0  0  0  0
   21.8023   18.6823   23.6107 H   0  0  0  0  0  0  0  0  0  0  0  0
   19.9281   19.5967   22.9915 C   0  0  0  0  0  0  0  0  0  0  0  0
   19.5983   20.4236   22.3472 H   0  0  0  0  0  0  0  0  0  0  0  0
   19.5958   19.8336   24.0109 H   0  0  0  0  0  0  0  0  0  0  0  0
   19.2732   18.2777   22.5139 C   0  0  0  0  0  0  0  0  0  0  0  0
   19.6601   18.0305   21.5162 H   0  0  0  0  0  0  0  0  0  0  0  0
   19.5690   17.4543   23.1776 H   0  0  0  0  0  0  0  0  0  0  0  0
   17.7328   18.3605   22.4435 C   0  0  1  0  0  0  0  0  0  0  0  0
   17.4639   19.2013   21.7967 H   0  0  0  0  0  0  0  0  0  0  0  0
   17.1562   17.0752   21.8283 C   0  0  0  0  0  0  0  0  0  0  0  0
   17.3971   16.1983   22.4422 H   0  0  0  0  0  0  0  0  0  0  0  0
   17.5604   16.9092   20.8219 H   0  0  0  0  0  0  0  0  0  0  0  0
   16.0647   17.1421   21.7412 H   0  0  0  0  0  0  0  0  0  0  0  0
   17.1081   18.6291   23.7855 N   0  3  0  0  0  0  0  0  0  0  0  0
   17.3188   17.8816   24.4519 H   0  0  0  0  0  0  0  0  0  0  0  0
   17.4484   19.5064   24.1879 H   0  0  0  0  0  0  0  0  0  0  0  0
   16.0889   18.6996   23.7163 H   0  0  0  0  0  0  0  0  0  0  0  0
  1  2  1  0  0  0  0
  1  3  1  0  0  0  0
  1  4  1  0  0  0  0
  1  5  1  0  0  0  0
  5  6  1  0  0  0  0
  5  7  1  0  0  0  0
  5  8  1  0  0  0  0
  8  9  1  0  0  0  0
  8 10  1  0  0  0  0
  8 11  1  0  0  0  0
 11 12  1  0  0  0  0
 11 13  1  0  0  0  0
 11 14  1  0  0  0  0
 14 15  1  0  0  0  0
 14 16  1  0  0  0  0
 14 17  1  0  0  0  0
 17 18  1  0  0  0  0
 17 19  1  0  0  0  0
 19 20  1  0  0  0  0
 19 21  1  0  0  0  0
 19 22  1  0  0  0  0
 17 23  1  0  0  0  0
 23 24  1  0  0  0  0
 23 25  1  0  0  0  0
 23 26  1  0  0  0  0
M  END
> <VConfSearch Rank>
181

> <Conf_Id>
122

> <Delta U+W>
0.000

> <U+W>
-30.299

> <U>
23.517

> <W>
-53.816

> <W(PB)>
-56.162

> <W(SA)>
2.346

> <Valence>
2.737

> <Coulomb>
19.862

> <VdW>
0.919

> <VdW6>
-6.793

> <VdW12>
7.712

> <Bond>
0.171

> <Angle>
0.873

> <Pdih>
1.693

> <Idih>
0.000

> <Tether>
0.000

$$$$
VeraChem MOL file


 26 25  0  0  0  0  0  0  0  0999 V2000     
   18.7432   15.3060   21.6108 C   0  0  0  0  0  0  0  0  0  0  0  0
   18.0320   14.5171   21.8879 H   0  0  0  0  0  0  0  0  0  0  0  0
   18.5624   15.5688   20.5603 H   0  0  0  0  0  0  0  0  0  0  0  0
   19.7560   14.8897   21.6897 H   0  0  0  0  0  0  0  0  0  0  0  0
   18.5763   16.5367   22.5272 C   0  0  0  0  0  0  0  0  0  0  0  0
   18.7294   16.2356   23.5730 H   0  0  0  0  0  0  0  0  0  0  0  0
   17.5451   16.9096   22.4524 H   0  0  0  0  0  0  0  0  0  0  0  0
   19.5666   17.6633   22.1581 C   0  0  0  0  0  0  0  0  0  0  0  0
   20.5957   17.2853   22.2325 H   0  0  0  0  0  0  0  0  0  0  0  0
   19.4113   17.9579   21.1109 H   0  0  0  0  0  0  0  0  0  0  0  0
   19.4022   18.8978   23.0735 C   0  0  0  0  0  0  0  0  0  0  0  0
   19.5509   18.5904   24.1170 H   0  0  0  0  0  0  0  0  0  0  0  0
   18.3742   19.2781   22.9948 H   0  0  0  0  0  0  0  0  0  0  0  0
   20.3992   20.0236   22.7039 C   0  0  0  0  0  0  0  0  0  0  0  0
   21.4286   19.6677   22.8441 H   0  0  0  0  0  0  0  0  0  0  0  0
   20.2910   20.2489   21.6347 H   0  0  0  0  0  0  0  0  0  0  0  0
   20.1877   21.3305   23.5022 C   0  0  1  0  0  0  0  0  0  0  0  0
   19.1455   21.6417   23.3808 H   0  0  0  0  0  0  0  0  0  0  0  0
   20.4689   21.1453   25.0043 C   0  0  0  0  0  0  0  0  0  0  0  0
   21.4860   20.7711   25.1745 H   0  0  0  0  0  0  0  0  0  0  0  0
   19.7626   20.4412   25.4588 H   0  0  0  0  0  0  0  0  0  0  0  0
   20.3637   22.0984   25.5372 H   0  0  0  0  0  0  0  0  0  0  0  0
   21.0303   22.4462   22.9491 N   0  3  0  0  0  0  0  0  0  0  0  0
   22.0288   22.2353   23.0267 H   0  0  0  0  0  0  0  0  0  0  0  0
   20.8281   22.6173   21.9599 H   0  0  0  0  0  0  0  0  0  0  0  0
   20.8640   23.3240   23.4493 H   0  0  0  0  0  0  0  0  0  0  0  0
  1  2  1  0  0  0  0
  1  3  1  0  0  0  0
  1  4  1  0  0  0  0
  1  5  1  0  0  0  0
  5  6  1  0  0  0  0
  5  7  1  0  0  0  0
  5  8  1  0  0  0  0
  8  9  1  0  0  0  0
  8 10  1  0  0  0  0
  8 11  1  0  0  0  0
 11 12  1  0  0  0  0
 11 13  1  0  0  0  0
 11 14  1  0  0  0  0
 14 15  1  0  0  0  0
 14 16  1  0  0  0  0
 14 17  1  0  0  0  0
 17 18  1  0  0  0  0
 17 19  1  0  0  0  0
 19 20  1  0  0  0  0
 19 21  1  0  0  0  0
 19 22  1  0  0  0  0
 17 23  1  0  0  0  0
 23 24  1  0  0  0  0
 23 25  1  0  0  0  0
 23 26  1  0  0  0  0
M  END
> <VConfSearch Rank>
182

> <Conf_Id>
54

> <Delta U+W>
0.453

> <U+W>
-29.845

> <U>
23.817

> <W>
-53.663

> <W(PB)>
-56.021

> <W(SA)>
2.358

> <Valence>
3.277

> <Coulomb>
19.492

> <VdW>
1.049

> <VdW6>
-6.949

> <VdW12>
7.998

> <Bond>
0.183

> <Angle>
1.152

> <Pdih>
1.942

> <Idih>
0.000

> <Tether>
0.000

$$$$
VeraChem MOL file


 26 25  0  0  0  0  0  0  0  0999 V2000     
   20.1860   15.7531   21.5618 C   0  0  0  0  0  0  0  0  0  0  0  0
   19.1061   15.7067   21.3705 H   0  0  0  0  0  0  0  0  0  0  0  0
   20.6569   16.3099   20.7426 H   0  0  0  0  0  0  0  0  0  0  0  0
   20.5763   14.7277   21.5286 H   0  0  0  0  0  0  0  0  0  0  0  0
   20.4803   16.3982   22.9355 C   0  0  0  0  0  0  0  0  0  0  0  0
   21.5664   16.4651   23.0896 H   0  0  0  0  0  0  0  0  0  0  0  0
   20.0993   15.7330   23.7231 H   0  0  0  0  0  0  0  0  0  0  0  0
   19.8370   17.7949   23.1149 C   0  0  0  0  0  0  0  0  0  0  0  0
   18.7561   17.7260   22.9298 H   0  0  0  0  0  0  0  0  0  0  0  0
   19.9657   18.0833   24.1648 H   0  0  0  0  0  0  0  0  0  0  0  0
   20.4624   18.8827   22.2054 C   0  0  0  0  0  0  0  0  0  0  0  0
   20.4498   18.5366   21.1643 H   0  0  0  0  0  0  0  0  0  0  0  0
   21.5207   19.0147   22.4694 H   0  0  0  0  0  0  0  0  0  0  0  0
   19.7452   20.2581   22.2464 C   0  0  0  0  0  0  0  0  0  0  0  0
   20.2238   20.8918   21.4878 H   0  0  0  0  0  0  0  0  0  0  0  0
   18.7000   20.1498   21.9280 H   0  0  0  0  0  0  0  0  0  0  0  0
   19.8089   20.9864   23.6102 C   0  0  1  0  0  0  0  0  0  0  0  0
   20.7960   20.8118   24.0494 H   0  0  0  0  0  0  0  0  0  0  0  0
   19.6293   22.5015   23.4178 C   0  0  0  0  0  0  0  0  0  0  0  0
   19.6886   23.0254   24.3798 H   0  0  0  0  0  0  0  0  0  0  0  0
   18.6579   22.7313   22.9623 H   0  0  0  0  0  0  0  0  0  0  0  0
   20.4158   22.9094   22.7705 H   0  0  0  0  0  0  0  0  0  0  0  0
   18.7885   20.4774   24.5919 N   0  3  0  0  0  0  0  0  0  0  0  0
   18.8870   19.4720   24.7485 H   0  0  0  0  0  0  0  0  0  0  0  0
   18.8792   20.9419   25.4999 H   0  0  0  0  0  0  0  0  0  0  0  0
   17.8358   20.6446   24.2575 H   0  0  0  0  0  0  0  0  0  0  0  0
  1  2  1  0  0  0  0
  1  3  1  0  0  0  0
  1  4  1  0  0  0  0
  1  5  1  0  0  0  0
  5  6  1  0  0  0  0
  5  7  1  0  0  0  0
  5  8  1  0  0  0  0
  8  9  1  0  0  0  0
  8 10  1  0  0  0  0
  8 11  1  0  0  0  0
 11 12  1  0  0  0  0
 11 13  1  0  0  0  0
 11 14  1  0  0  0  0
 14 15  1  0  0  0  0
 14 16  1  0  0  0  0
 14 17  1  0  0  0  0
 17 18  1  0  0  0  0
 17 19  1  0  0  0  0
 19 20  1  0  0  0  0
 19 21  1  0  0  0  0
 19 22  1  0  0  0  0
 17 23  1  0  0  0  0
 23 24  1  0  0  0  0
 23 25  1  0  0  0  0
 23 26  1  0  0  0  0
M  END
> <VConfSearch Rank>
183

> <Conf_Id>
110

> <Delta U+W>
3.764

> <U+W>
-26.535

> <U>
27.400

> <W>
-53.935

> <W(PB)>
-56.238

> <W(SA)>
2.303

> <Valence>
5.205

> <Coulomb>
21.096

> <VdW>
1.098

> <VdW6>
-8.389

> <VdW12>
9.488

> <Bond>
0.270

> <Angle>
1.912

> <Pdih>
3.023

> <Idih>
0.000

> <Tether>
0.000

$$$$
VeraChem MOL file


 26 25  0  0  0  0  0  0  0  0999 V2000     
   18.0347   18.2195   26.0289 C   0  0  0  0  0  0  0  0  0  0  0  0
   17.1035   18.2005   26.6099 H   0  0  0  0  0  0  0  0  0  0  0  0
   18.1035   17.2689   25.4856 H   0  0  0  0  0  0  0  0  0  0  0  0
   18.8714   18.2728   26.7375 H   0  0  0  0  0  0  0  0  0  0  0  0
   18.0455   19.4268   25.0641 C   0  0  0  0  0  0  0  0  0  0  0  0
   17.8522   20.3424   25.6405 H   0  0  0  0  0  0  0  0  0  0  0  0
   17.2174   19.3343   24.3475 H   0  0  0  0  0  0  0  0  0  0  0  0
   19.3814   19.5934   24.3005 C   0  0  0  0  0  0  0  0  0  0  0  0
   19.3395   20.5308   23.7330 H   0  0  0  0  0  0  0  0  0  0  0  0
   20.2011   19.7130   25.0223 H   0  0  0  0  0  0  0  0  0  0  0  0
   19.6983   18.4102   23.3499 C   0  0  0  0  0  0  0  0  0  0  0  0
   18.8330   18.1882   22.7102 H   0  0  0  0  0  0  0  0  0  0  0  0
   19.8658   17.5109   23.9573 H   0  0  0  0  0  0  0  0  0  0  0  0
   20.9598   18.6449   22.4771 C   0  0  0  0  0  0  0  0  0  0  0  0
   21.6515   19.3312   22.9834 H   0  0  0  0  0  0  0  0  0  0  0  0
   21.4938   17.6888   22.3963 H   0  0  0  0  0  0  0  0  0  0  0  0
   20.6716   19.1394   21.0389 C   0  0  1  0  0  0  0  0  0  0  0  0
   20.0178   18.4085   20.5532 H   0  0  0  0  0  0  0  0  0  0  0  0
   19.9681   20.5068   21.0068 C   0  0  0  0  0  0  0  0  0  0  0  0
   20.5433   21.2630   21.5554 H   0  0  0  0  0  0  0  0  0  0  0  0
   18.9656   20.4441   21.4458 H   0  0  0  0  0  0  0  0  0  0  0  0
   19.8464   20.8550   19.9738 H   0  0  0  0  0  0  0  0  0  0  0  0
   21.9329   19.1851   20.2216 N   0  3  0  0  0  0  0  0  0  0  0  0
   22.3940   18.2714   20.1876 H   0  0  0  0  0  0  0  0  0  0  0  0
   21.7426   19.4656   19.2554 H   0  0  0  0  0  0  0  0  0  0  0  0
   22.6045   19.8543   20.6070 H   0  0  0  0  0  0  0  0  0  0  0  0
  1  2  1  0  0  0  0
  1  3  1  0  0  0  0
  1  4  1  0  0  0  0
  1  5  1  0  0  0  0
  5  6  1  0  0  0  0
  5  7  1  0  0  0  0
  5  8  1  0  0  0  0
  8  9  1  0  0  0  0
  8 10  1  0  0  0  0
  8 11  1  0  0  0  0
 11 12  1  0  0  0  0
 11 13  1  0  0  0  0
 11 14  1  0  0  0  0
 14 15  1  0  0  0  0
 14 16  1  0  0  0  0
 14 17  1  0  0  0  0
 17 18  1  0  0  0  0
 17 19  1  0  0  0  0
 19 20  1  0  0  0  0
 19 21  1  0  0  0  0
 19 22  1  0  0  0  0
 17 23  1  0  0  0  0
 23 24  1  0  0  0  0
 23 25  1  0  0  0  0
 23 26  1  0  0  0  0
M  END
> <VConfSearch Rank>
184

> <Conf_Id>
34

> <Delta U+W>
3.568

> <U+W>
-26.731

> <U>
27.221

> <W>
-53.952

> <W(PB)>
-56.213

> <W(SA)>
2.261

> <Valence>
6.368

> <Coulomb>
19.698

> <VdW>
1.155

> <VdW6>
-8.532

> <VdW12>
9.687

> <Bond>
0.272

> <Angle>
1.847

> <Pdih>
4.248

> <Idih>
0.000

> <Tether>
0.000

$$$$
VeraChem MOL file


 26 25  0  0  0  0  0  0  0  0999 V2000     
   19.6607   16.0565   25.6391 C   0  0  0  0  0  0  0  0  0  0  0  0
   20.7223   15.7771   25.6364 H   0  0  0  0  0  0  0  0  0  0  0  0
   19.4677   16.6578   26.5371 H   0  0  0  0  0  0  0  0  0  0  0  0
   19.0698   15.1346   25.7176 H   0  0  0  0  0  0  0  0  0  0  0  0
   19.2886   16.8350   24.3595 C   0  0  0  0  0  0  0  0  0  0  0  0
   18.2152   17.0705   24.3754 H   0  0  0  0  0  0  0  0  0  0  0  0
   19.4601   16.1965   23.4816 H   0  0  0  0  0  0  0  0  0  0  0  0
   20.1068   18.1384   24.2247 C   0  0  0  0  0  0  0  0  0  0  0  0
   19.9337   18.7717   25.1059 H   0  0  0  0  0  0  0  0  0  0  0  0
   21.1789   17.8978   24.2120 H   0  0  0  0  0  0  0  0  0  0  0  0
   19.7374   18.9211   22.9442 C   0  0  0  0  0  0  0  0  0  0  0  0
   18.6650   19.1563   22.9629 H   0  0  0  0  0  0  0  0  0  0  0  0
   19.9093   18.2784   22.0708 H   0  0  0  0  0  0  0  0  0  0  0  0
   20.5644   20.2267   22.8136 C   0  0  0  0  0  0  0  0  0  0  0  0
   20.4211   20.8360   23.7156 H   0  0  0  0  0  0  0  0  0  0  0  0
   21.6335   19.9776   22.7845 H   0  0  0  0  0  0  0  0  0  0  0  0
   20.2228   21.0942   21.5790 C   0  0  1  0  0  0  0  0  0  0  0  0
   20.8515   21.9888   21.6267 H   0  0  0  0  0  0  0  0  0  0  0  0
   20.5416   20.3723   20.2581 C   0  0  0  0  0  0  0  0  0  0  0  0
   19.8790   19.5143   20.0941 H   0  0  0  0  0  0  0  0  0  0  0  0
   21.5782   20.0132   20.2502 H   0  0  0  0  0  0  0  0  0  0  0  0
   20.4204   21.0558   19.4088 H   0  0  0  0  0  0  0  0  0  0  0  0
   18.8005   21.5833   21.5962 N   0  3  0  0  0  0  0  0  0  0  0  0
   18.6097   22.2066   20.8066 H   0  0  0  0  0  0  0  0  0  0  0  0
   18.1390   20.8052   21.5396 H   0  0  0  0  0  0  0  0  0  0  0  0
   18.5926   22.1036   22.4533 H   0  0  0  0  0  0  0  0  0  0  0  0
  1  2  1  0  0  0  0
  1  3  1  0  0  0  0
  1  4  1  0  0  0  0
  1  5  1  0  0  0  0
  5  6  1  0  0  0  0
  5  7  1  0  0  0  0
  5  8  1  0  0  0  0
  8  9  1  0  0  0  0
  8 10  1  0  0  0  0
  8 11  1  0  0  0  0
 11 12  1  0  0  0  0
 11 13  1  0  0  0  0
 11 14  1  0  0  0  0
 14 15  1  0  0  0  0
 14 16  1  0  0  0  0
 14 17  1  0  0  0  0
 17 18  1  0  0  0  0
 17 19  1  0  0  0  0
 19 20  1  0  0  0  0
 19 21  1  0  0  0  0
 19 22  1  0  0  0  0
 17 23  1  0  0  0  0
 23 24  1  0  0  0  0
 23 25  1  0  0  0  0
 23 26  1  0  0  0  0
M  END
> <VConfSearch Rank>
185

> <Conf_Id>
132

> <Delta U+W>
0.363

> <U+W>
-29.936

> <U>
24.060

> <W>
-53.996

> <W(PB)>
-56.327

> <W(SA)>
2.332

> <Valence>
3.249

> <Coulomb>
19.781

> <VdW>
1.030

> <VdW6>
-7.421

> <VdW12>
8.451

> <Bond>
0.207

> <Angle>
1.205

> <Pdih>
1.837

> <Idih>
0.000

> <Tether>
0.000

$$$$
VeraChem MOL file


 26 25  0  0  0  0  0  0  0  0999 V2000     
   23.5930   20.2869   23.0635 C   0  0  0  0  0  0  0  0  0  0  0  0
   24.4533   19.6062   23.1031 H   0  0  0  0  0  0  0  0  0  0  0  0
   23.7575   20.9895   22.2362 H   0  0  0  0  0  0  0  0  0  0  0  0
   23.5730   20.8596   23.9999 H   0  0  0  0  0  0  0  0  0  0  0  0
   22.2815   19.4967   22.8689 C   0  0  0  0  0  0  0  0  0  0  0  0
   22.1746   18.7779   23.6919 H   0  0  0  0  0  0  0  0  0  0  0  0
   22.3433   18.9122   21.9404 H   0  0  0  0  0  0  0  0  0  0  0  0
   21.0533   20.4360   22.8147 C   0  0  0  0  0  0  0  0  0  0  0  0
   20.9601   20.9799   23.7648 H   0  0  0  0  0  0  0  0  0  0  0  0
   21.2219   21.1970   22.0402 H   0  0  0  0  0  0  0  0  0  0  0  0
   19.7243   19.7052   22.5013 C   0  0  0  0  0  0  0  0  0  0  0  0
   19.8232   19.1701   21.5476 H   0  0  0  0  0  0  0  0  0  0  0  0
   18.9487   20.4670   22.3508 H   0  0  0  0  0  0  0  0  0  0  0  0
   19.2804   18.7254   23.6220 C   0  0  0  0  0  0  0  0  0  0  0  0
   20.0403   17.9453   23.7513 H   0  0  0  0  0  0  0  0  0  0  0  0
   19.2326   19.2636   24.5778 H   0  0  0  0  0  0  0  0  0  0  0  0
   17.9217   18.0274   23.3755 C   0  0  1  0  0  0  0  0  0  0  0  0
   17.7600   17.3315   24.2046 H   0  0  0  0  0  0  0  0  0  0  0  0
   16.7485   19.0232   23.3721 C   0  0  0  0  0  0  0  0  0  0  0  0
   16.7853   19.6928   22.5048 H   0  0  0  0  0  0  0  0  0  0  0  0
   16.7549   19.6368   24.2815 H   0  0  0  0  0  0  0  0  0  0  0  0
   15.7919   18.4875   23.3399 H   0  0  0  0  0  0  0  0  0  0  0  0
   17.9238   17.1921   22.1247 N   0  3  0  0  0  0  0  0  0  0  0  0
   18.6735   16.4948   22.1399 H   0  0  0  0  0  0  0  0  0  0  0  0
   17.0399   16.6882   22.0098 H   0  0  0  0  0  0  0  0  0  0  0  0
   18.0576   17.7708   21.2920 H   0  0  0  0  0  0  0  0  0  0  0  0
  1  2  1  0  0  0  0
  1  3  1  0  0  0  0
  1  4  1  0  0  0  0
  1  5  1  0  0  0  0
  5  6  1  0  0  0  0
  5  7  1  0  0  0  0
  5  8  1  0  0  0  0
  8  9  1  0  0  0  0
  8 10  1  0  0  0  0
  8 11  1  0  0  0  0
 11 12  1  0  0  0  0
 11 13  1  0  0  0  0
 11 14  1  0  0  0  0
 14 15  1  0  0  0  0
 14 16  1  0  0  0  0
 14 17  1  0  0  0  0
 17 18  1  0  0  0  0
 17 19  1  0  0  0  0
 19 20  1  0  0  0  0
 19 21  1  0  0  0  0
 19 22  1  0  0  0  0
 17 23  1  0  0  0  0
 23 24  1  0  0  0  0
 23 25  1  0  0  0  0
 23 26  1  0  0  0  0
M  END
> <VConfSearch Rank>
186

> <Conf_Id>
46

> <Delta U+W>
1.114

> <U+W>
-29.185

> <U>
24.990

> <W>
-54.175

> <W(PB)>
-56.455

> <W(SA)>
2.279

> <Valence>
3.862

> <Coulomb>
19.956

> <VdW>
1.172

> <VdW6>
-8.054

> <VdW12>
9.226

> <Bond>
0.258

> <Angle>
1.499

> <Pdih>
2.106

> <Idih>
0.000

> <Tether>
0.000

$$$$
VeraChem MOL file


 26 25  0  0  0  0  0  0  0  0999 V2000     
   20.7968   16.9271   25.7356 C   0  0  0  0  0  0  0  0  0  0  0  0
   20.5381   16.1866   24.9688 H   0  0  0  0  0  0  0  0  0  0  0  0
   21.8758   17.1206   25.6778 H   0  0  0  0  0  0  0  0  0  0  0  0
   20.5893   16.4741   26.7137 H   0  0  0  0  0  0  0  0  0  0  0  0
   19.9877   18.2325   25.5622 C   0  0  0  0  0  0  0  0  0  0  0  0
   20.1865   18.8873   26.4222 H   0  0  0  0  0  0  0  0  0  0  0  0
   18.9124   18.0077   25.5898 H   0  0  0  0  0  0  0  0  0  0  0  0
   20.3292   19.0031   24.2639 C   0  0  0  0  0  0  0  0  0  0  0  0
   19.8069   19.9682   24.2944 H   0  0  0  0  0  0  0  0  0  0  0  0
   21.4034   19.2332   24.2467 H   0  0  0  0  0  0  0  0  0  0  0  0
   19.9380   18.2393   22.9731 C   0  0  0  0  0  0  0  0  0  0  0  0
   18.8707   17.9829   23.0012 H   0  0  0  0  0  0  0  0  0  0  0  0
   20.4787   17.2849   22.9347 H   0  0  0  0  0  0  0  0  0  0  0  0
   20.2622   19.0248   21.6762 C   0  0  0  0  0  0  0  0  0  0  0  0
   21.3465   19.1914   21.6264 H   0  0  0  0  0  0  0  0  0  0  0  0
   20.0083   18.4013   20.8086 H   0  0  0  0  0  0  0  0  0  0  0  0
   19.5378   20.3846   21.5553 C   0  0  1  0  0  0  0  0  0  0  0  0
   19.8203   21.0038   22.4118 H   0  0  0  0  0  0  0  0  0  0  0  0
   19.9770   21.1122   20.2747 C   0  0  0  0  0  0  0  0  0  0  0  0
   19.4967   22.0959   20.2029 H   0  0  0  0  0  0  0  0  0  0  0  0
   19.7115   20.5361   19.3794 H   0  0  0  0  0  0  0  0  0  0  0  0
   21.0626   21.2708   20.2695 H   0  0  0  0  0  0  0  0  0  0  0  0
   18.0409   20.2435   21.5980 N   0  3  0  0  0  0  0  0  0  0  0  0
   17.7348   19.7945   22.4654 H   0  0  0  0  0  0  0  0  0  0  0  0
   17.5766   21.1544   21.5425 H   0  0  0  0  0  0  0  0  0  0  0  0
   17.6975   19.6761   20.8187 H   0  0  0  0  0  0  0  0  0  0  0  0
  1  2  1  0  0  0  0
  1  3  1  0  0  0  0
  1  4  1  0  0  0  0
  1  5  1  0  0  0  0
  5  6  1  0  0  0  0
  5  7  1  0  0  0  0
  5  8  1  0  0  0  0
  8  9  1  0  0  0  0
  8 10  1  0  0  0  0
  8 11  1  0  0  0  0
 11 12  1  0  0  0  0
 11 13  1  0  0  0  0
 11 14  1  0  0  0  0
 14 15  1  0  0  0  0
 14 16  1  0  0  0  0
 14 17  1  0  0  0  0
 17 18  1  0  0  0  0
 17 19  1  0  0  0  0
 19 20  1  0  0  0  0
 19 21  1  0  0  0  0
 19 22  1  0  0  0  0
 17 23  1  0  0  0  0
 23 24  1  0  0  0  0
 23 25  1  0  0  0  0
 23 26  1  0  0  0  0
M  END
> <VConfSearch Rank>
187

> <Conf_Id>
113

> <Delta U+W>
1.137

> <U+W>
-29.162

> <U>
24.833

> <W>
-53.995

> <W(PB)>
-56.288

> <W(SA)>
2.294

> <Valence>
3.589

> <Coulomb>
20.270

> <VdW>
0.974

> <VdW6>
-8.255

> <VdW12>
9.229

> <Bond>
0.244

> <Angle>
1.377

> <Pdih>
1.967

> <Idih>
0.000

> <Tether>
0.000

$$$$
VeraChem MOL file


 26 25  0  0  0  0  0  0  0  0999 V2000     
   18.5018   21.5803   20.1575 C   0  0  0  0  0  0  0  0  0  0  0  0
   18.5743   21.3946   19.0780 H   0  0  0  0  0  0  0  0  0  0  0  0
   17.4376   21.5921   20.4268 H   0  0  0  0  0  0  0  0  0  0  0  0
   18.9159   22.5775   20.3561 H   0  0  0  0  0  0  0  0  0  0  0  0
   19.2620   20.4953   20.9494 C   0  0  0  0  0  0  0  0  0  0  0  0
   20.3158   20.4881   20.6375 H   0  0  0  0  0  0  0  0  0  0  0  0
   18.8469   19.5116   20.6933 H   0  0  0  0  0  0  0  0  0  0  0  0
   19.1702   20.7339   22.4752 C   0  0  0  0  0  0  0  0  0  0  0  0
   19.5150   21.7531   22.6980 H   0  0  0  0  0  0  0  0  0  0  0  0
   18.1199   20.6879   22.7948 H   0  0  0  0  0  0  0  0  0  0  0  0
   20.0119   19.7380   23.3105 C   0  0  0  0  0  0  0  0  0  0  0  0
   19.9794   20.0600   24.3595 H   0  0  0  0  0  0  0  0  0  0  0  0
   21.0621   19.8060   22.9973 H   0  0  0  0  0  0  0  0  0  0  0  0
   19.5152   18.2703   23.2022 C   0  0  0  0  0  0  0  0  0  0  0  0
   18.4384   18.2364   23.4133 H   0  0  0  0  0  0  0  0  0  0  0  0
   19.6339   17.9150   22.1711 H   0  0  0  0  0  0  0  0  0  0  0  0
   20.2304   17.2718   24.1431 C   0  0  1  0  0  0  0  0  0  0  0  0
   19.7824   16.2878   23.9733 H   0  0  0  0  0  0  0  0  0  0  0  0
   21.7329   17.1592   23.8309 C   0  0  0  0  0  0  0  0  0  0  0  0
   22.2667   18.0873   24.0676 H   0  0  0  0  0  0  0  0  0  0  0  0
   21.8947   16.9301   22.7703 H   0  0  0  0  0  0  0  0  0  0  0  0
   22.1873   16.3521   24.4185 H   0  0  0  0  0  0  0  0  0  0  0  0
   20.0036   17.5864   25.5964 N   0  3  0  0  0  0  0  0  0  0  0  0
   19.0054   17.6210   25.8219 H   0  0  0  0  0  0  0  0  0  0  0  0
   20.4295   16.8799   26.2029 H   0  0  0  0  0  0  0  0  0  0  0  0
   20.4083   18.4912   25.8489 H   0  0  0  0  0  0  0  0  0  0  0  0
  1  2  1  0  0  0  0
  1  3  1  0  0  0  0
  1  4  1  0  0  0  0
  1  5  1  0  0  0  0
  5  6  1  0  0  0  0
  5  7  1  0  0  0  0
  5  8  1  0  0  0  0
  8  9  1  0  0  0  0
  8 10  1  0  0  0  0
  8 11  1  0  0  0  0
 11 12  1  0  0  0  0
 11 13  1  0  0  0  0
 11 14  1  0  0  0  0
 14 15  1  0  0  0  0
 14 16  1  0  0  0  0
 14 17  1  0  0  0  0
 17 18  1  0  0  0  0
 17 19  1  0  0  0  0
 19 20  1  0  0  0  0
 19 21  1  0  0  0  0
 19 22  1  0  0  0  0
 17 23  1  0  0  0  0
 23 24  1  0  0  0  0
 23 25  1  0  0  0  0
 23 26  1  0  0  0  0
M  END
> <VConfSearch Rank>
188

> <Conf_Id>
45

> <Delta U+W>
1.035

> <U+W>
-29.264

> <U>
24.725

> <W>
-53.989

> <W(PB)>
-56.298

> <W(SA)>
2.309

> <Valence>
3.780

> <Coulomb>
19.804

> <VdW>
1.141

> <VdW6>
-8.104

> <VdW12>
9.246

> <Bond>
0.254

> <Angle>
1.437

> <Pdih>
2.089

> <Idih>
0.000

> <Tether>
0.000

$$$$
VeraChem MOL file


 26 25  0  0  0  0  0  0  0  0999 V2000     
   19.9477   22.2378   25.4410 C   0  0  0  0  0  0  0  0  0  0  0  0
   20.5251   23.1512   25.2473 H   0  0  0  0  0  0  0  0  0  0  0  0
   18.9463   22.5375   25.7765 H   0  0  0  0  0  0  0  0  0  0  0  0
   20.4364   21.6981   26.2627 H   0  0  0  0  0  0  0  0  0  0  0  0
   19.8699   21.3628   24.1719 C   0  0  0  0  0  0  0  0  0  0  0  0
   20.8895   21.1199   23.8453 H   0  0  0  0  0  0  0  0  0  0  0  0
   19.4035   21.9392   23.3607 H   0  0  0  0  0  0  0  0  0  0  0  0
   19.0638   20.0663   24.4225 C   0  0  0  0  0  0  0  0  0  0  0  0
   19.5619   19.4633   25.1943 H   0  0  0  0  0  0  0  0  0  0  0  0
   18.0787   20.3336   24.8295 H   0  0  0  0  0  0  0  0  0  0  0  0
   18.8508   19.2091   23.1503 C   0  0  0  0  0  0  0  0  0  0  0  0
   18.3509   19.8130   22.3802 H   0  0  0  0  0  0  0  0  0  0  0  0
   18.1584   18.3952   23.4023 H   0  0  0  0  0  0  0  0  0  0  0  0
   20.1632   18.6141   22.5777 C   0  0  0  0  0  0  0  0  0  0  0  0
   20.8430   19.4306   22.3047 H   0  0  0  0  0  0  0  0  0  0  0  0
   20.6732   18.0253   23.3516 H   0  0  0  0  0  0  0  0  0  0  0  0
   19.9316   17.7374   21.3274 C   0  0  1  0  0  0  0  0  0  0  0  0
   19.3913   18.3339   20.5858 H   0  0  0  0  0  0  0  0  0  0  0  0
   21.2767   17.3121   20.7167 C   0  0  0  0  0  0  0  0  0  0  0  0
   21.8603   16.7084   21.4230 H   0  0  0  0  0  0  0  0  0  0  0  0
   21.8751   18.1894   20.4413 H   0  0  0  0  0  0  0  0  0  0  0  0
   21.1200   16.7183   19.8077 H   0  0  0  0  0  0  0  0  0  0  0  0
   19.0808   16.5307   21.6166 N   0  3  0  0  0  0  0  0  0  0  0  0
   18.1622   16.7982   21.9798 H   0  0  0  0  0  0  0  0  0  0  0  0
   18.9249   15.9720   20.7729 H   0  0  0  0  0  0  0  0  0  0  0  0
   19.5213   15.9209   22.3105 H   0  0  0  0  0  0  0  0  0  0  0  0
  1  2  1  0  0  0  0
  1  3  1  0  0  0  0
  1  4  1  0  0  0  0
  1  5  1  0  0  0  0
  5  6  1  0  0  0  0
  5  7  1  0  0  0  0
  5  8  1  0  0  0  0
  8  9  1  0  0  0  0
  8 10  1  0  0  0  0
  8 11  1  0  0  0  0
 11 12  1  0  0  0  0
 11 13  1  0  0  0  0
 11 14  1  0  0  0  0
 14 15  1  0  0  0  0
 14 16  1  0  0  0  0
 14 17  1  0  0  0  0
 17 18  1  0  0  0  0
 17 19  1  0  0  0  0
 19 20  1  0  0  0  0
 19 21  1  0  0  0  0
 19 22  1  0  0  0  0
 17 23  1  0  0  0  0
 23 24  1  0  0  0  0
 23 25  1  0  0  0  0
 23 26  1  0  0  0  0
M  END
> <VConfSearch Rank>
189

> <Conf_Id>
121

> <Delta U+W>
0.736

> <U+W>
-29.562

> <U>
24.282

> <W>
-53.844

> <W(PB)>
-56.205

> <W(SA)>
2.361

> <Valence>
3.311

> <Coulomb>
19.887

> <VdW>
1.083

> <VdW6>
-7.444

> <VdW12>
8.527

> <Bond>
0.219

> <Angle>
1.167

> <Pdih>
1.926

> <Idih>
0.000

> <Tether>
0.000

$$$$
VeraChem MOL file


 26 25  0  0  0  0  0  0  0  0999 V2000     
   18.7706   15.6397   22.8388 C   0  0  0  0  0  0  0  0  0  0  0  0
   18.7871   14.6186   23.2415 H   0  0  0  0  0  0  0  0  0  0  0  0
   17.7558   15.8386   22.4706 H   0  0  0  0  0  0  0  0  0  0  0  0
   19.4585   15.6674   21.9849 H   0  0  0  0  0  0  0  0  0  0  0  0
   19.1757   16.6571   23.9295 C   0  0  0  0  0  0  0  0  0  0  0  0
   20.2058   16.4584   24.2568 H   0  0  0  0  0  0  0  0  0  0  0  0
   18.5381   16.5015   24.8111 H   0  0  0  0  0  0  0  0  0  0  0  0
   19.0447   18.1319   23.4779 C   0  0  0  0  0  0  0  0  0  0  0  0
   18.0114   18.3273   23.1598 H   0  0  0  0  0  0  0  0  0  0  0  0
   19.2264   18.7717   24.3514 H   0  0  0  0  0  0  0  0  0  0  0  0
   20.0241   18.5172   22.3402 C   0  0  0  0  0  0  0  0  0  0  0  0
   19.8316   17.8874   21.4621 H   0  0  0  0  0  0  0  0  0  0  0  0
   21.0557   18.3002   22.6470 H   0  0  0  0  0  0  0  0  0  0  0  0
   19.8987   19.9994   21.9011 C   0  0  0  0  0  0  0  0  0  0  0  0
   20.6004   20.1871   21.0775 H   0  0  0  0  0  0  0  0  0  0  0  0
   18.8942   20.1534   21.4854 H   0  0  0  0  0  0  0  0  0  0  0  0
   20.1372   21.0417   23.0194 C   0  0  1  0  0  0  0  0  0  0  0  0
   19.4244   20.8517   23.8271 H   0  0  0  0  0  0  0  0  0  0  0  0
   21.5613   20.9560   23.5967 C   0  0  0  0  0  0  0  0  0  0  0  0
   22.3163   21.0837   22.8111 H   0  0  0  0  0  0  0  0  0  0  0  0
   21.7344   19.9907   24.0865 H   0  0  0  0  0  0  0  0  0  0  0  0
   21.7201   21.7360   24.3515 H   0  0  0  0  0  0  0  0  0  0  0  0
   19.8557   22.4352   22.5300 N   0  3  0  0  0  0  0  0  0  0  0  0
   18.8976   22.5261   22.1800 H   0  0  0  0  0  0  0  0  0  0  0  0
   19.9732   23.1253   23.2773 H   0  0  0  0  0  0  0  0  0  0  0  0
   20.4871   22.6994   21.7691 H   0  0  0  0  0  0  0  0  0  0  0  0
  1  2  1  0  0  0  0
  1  3  1  0  0  0  0
  1  4  1  0  0  0  0
  1  5  1  0  0  0  0
  5  6  1  0  0  0  0
  5  7  1  0  0  0  0
  5  8  1  0  0  0  0
  8  9  1  0  0  0  0
  8 10  1  0  0  0  0
  8 11  1  0  0  0  0
 11 12  1  0  0  0  0
 11 13  1  0  0  0  0
 11 14  1  0  0  0  0
 14 15  1  0  0  0  0
 14 16  1  0  0  0  0
 14 17  1  0  0  0  0
 17 18  1  0  0  0  0
 17 19  1  0  0  0  0
 19 20  1  0  0  0  0
 19 21  1  0  0  0  0
 19 22  1  0  0  0  0
 17 23  1  0  0  0  0
 23 24  1  0  0  0  0
 23 25  1  0  0  0  0
 23 26  1  0  0  0  0
M  END
> <VConfSearch Rank>
190

> <Conf_Id>
5

> <Delta U+W>
1.233

> <U+W>
-29.065

> <U>
25.023

> <W>
-54.088

> <W(PB)>
-56.383

> <W(SA)>
2.296

> <Valence>
4.083

> <Coulomb>
19.893

> <VdW>
1.047

> <VdW6>
-8.479

> <VdW12>
9.527

> <Bond>
0.256

> <Angle>
1.716

> <Pdih>
2.112

> <Idih>
0.000

> <Tether>
0.000

$$$$
VeraChem MOL file


 26 25  0  0  0  0  0  0  0  0999 V2000     
   22.2109   21.3815   24.6329 C   0  0  0  0  0  0  0  0  0  0  0  0
   22.6745   22.3583   24.8225 H   0  0  0  0  0  0  0  0  0  0  0  0
   21.5812   21.1432   25.4988 H   0  0  0  0  0  0  0  0  0  0  0  0
   23.0138   20.6351   24.5748 H   0  0  0  0  0  0  0  0  0  0  0  0
   21.3900   21.4184   23.3237 C   0  0  0  0  0  0  0  0  0  0  0  0
   22.0358   21.7862   22.5141 H   0  0  0  0  0  0  0  0  0  0  0  0
   20.5726   22.1468   23.4192 H   0  0  0  0  0  0  0  0  0  0  0  0
   20.8186   20.0397   22.9129 C   0  0  0  0  0  0  0  0  0  0  0  0
   20.3795   20.1420   21.9122 H   0  0  0  0  0  0  0  0  0  0  0  0
   21.6393   19.3146   22.8240 H   0  0  0  0  0  0  0  0  0  0  0  0
   19.7450   19.5005   23.8910 C   0  0  0  0  0  0  0  0  0  0  0  0
   18.9141   20.2168   23.9525 H   0  0  0  0  0  0  0  0  0  0  0  0
   20.1689   19.4332   24.9010 H   0  0  0  0  0  0  0  0  0  0  0  0
   19.1908   18.1033   23.5127 C   0  0  0  0  0  0  0  0  0  0  0  0
   19.9994   17.3603   23.5326 H   0  0  0  0  0  0  0  0  0  0  0  0
   18.4936   17.8010   24.3053 H   0  0  0  0  0  0  0  0  0  0  0  0
   18.4574   18.0693   22.1497 C   0  0  1  0  0  0  0  0  0  0  0  0
   18.2048   19.0973   21.8724 H   0  0  0  0  0  0  0  0  0  0  0  0
   19.3424   17.4632   21.0452 C   0  0  0  0  0  0  0  0  0  0  0  0
   19.5751   16.4123   21.2580 H   0  0  0  0  0  0  0  0  0  0  0  0
   20.2902   18.0042   20.9472 H   0  0  0  0  0  0  0  0  0  0  0  0
   18.8335   17.5077   20.0745 H   0  0  0  0  0  0  0  0  0  0  0  0
   17.1526   17.3253   22.2314 N   0  3  0  0  0  0  0  0  0  0  0  0
   16.5259   17.7394   22.9275 H   0  0  0  0  0  0  0  0  0  0  0  0
   16.6594   17.3354   21.3341 H   0  0  0  0  0  0  0  0  0  0  0  0
   17.2957   16.3453   22.4899 H   0  0  0  0  0  0  0  0  0  0  0  0
  1  2  1  0  0  0  0
  1  3  1  0  0  0  0
  1  4  1  0  0  0  0
  1  5  1  0  0  0  0
  5  6  1  0  0  0  0
  5  7  1  0  0  0  0
  5  8  1  0  0  0  0
  8  9  1  0  0  0  0
  8 10  1  0  0  0  0
  8 11  1  0  0  0  0
 11 12  1  0  0  0  0
 11 13  1  0  0  0  0
 11 14  1  0  0  0  0
 14 15  1  0  0  0  0
 14 16  1  0  0  0  0
 14 17  1  0  0  0  0
 17 18  1  0  0  0  0
 17 19  1  0  0  0  0
 19 20  1  0  0  0  0
 19 21  1  0  0  0  0
 19 22  1  0  0  0  0
 17 23  1  0  0  0  0
 23 24  1  0  0  0  0
 23 25  1  0  0  0  0
 23 26  1  0  0  0  0
M  END
> <VConfSearch Rank>
191

> <Conf_Id>
100

> <Delta U+W>
3.818

> <U+W>
-26.481

> <U>
27.496

> <W>
-53.977

> <W(PB)>
-56.267

> <W(SA)>
2.290

> <Valence>
6.472

> <Coulomb>
19.839

> <VdW>
1.185

> <VdW6>
-8.405

> <VdW12>
9.590

> <Bond>
0.248

> <Angle>
1.619

> <Pdih>
4.604

> <Idih>
0.000

> <Tether>
0.000

$$$$
VeraChem MOL file


 26 25  0  0  0  0  0  0  0  0999 V2000     
   21.2279   16.3510   25.0280 C   0  0  0  0  0  0  0  0  0  0  0  0
   21.0283   15.3098   25.3127 H   0  0  0  0  0  0  0  0  0  0  0  0
   22.0348   16.3480   24.2836 H   0  0  0  0  0  0  0  0  0  0  0  0
   21.5872   16.8811   25.9197 H   0  0  0  0  0  0  0  0  0  0  0  0
   19.9543   17.0153   24.4633 C   0  0  0  0  0  0  0  0  0  0  0  0
   19.1558   16.9719   25.2173 H   0  0  0  0  0  0  0  0  0  0  0  0
   19.6006   16.4440   23.5937 H   0  0  0  0  0  0  0  0  0  0  0  0
   20.2077   18.4833   24.0548 C   0  0  0  0  0  0  0  0  0  0  0  0
   20.5616   19.0474   24.9288 H   0  0  0  0  0  0  0  0  0  0  0  0
   21.0151   18.5159   23.3139 H   0  0  0  0  0  0  0  0  0  0  0  0
   18.9285   19.1523   23.4945 C   0  0  0  0  0  0  0  0  0  0  0  0
   18.1573   19.1178   24.2766 H   0  0  0  0  0  0  0  0  0  0  0  0
   18.5311   18.5675   22.6549 H   0  0  0  0  0  0  0  0  0  0  0  0
   19.1347   20.6363   23.0801 C   0  0  0  0  0  0  0  0  0  0  0  0
   18.2174   21.1907   23.3179 H   0  0  0  0  0  0  0  0  0  0  0  0
   19.9164   21.0927   23.7015 H   0  0  0  0  0  0  0  0  0  0  0  0
   19.4539   20.8883   21.5854 C   0  0  1  0  0  0  0  0  0  0  0  0
   19.5798   21.9684   21.4622 H   0  0  0  0  0  0  0  0  0  0  0  0
   20.7597   20.2171   21.1299 C   0  0  0  0  0  0  0  0  0  0  0  0
   20.6639   19.1251   21.1081 H   0  0  0  0  0  0  0  0  0  0  0  0
   21.5887   20.4825   21.7975 H   0  0  0  0  0  0  0  0  0  0  0  0
   21.0278   20.5484   20.1193 H   0  0  0  0  0  0  0  0  0  0  0  0
   18.3118   20.5018   20.6856 N   0  3  0  0  0  0  0  0  0  0  0  0
   17.4481   20.9864   20.9456 H   0  0  0  0  0  0  0  0  0  0  0  0
   18.5103   20.7350   19.7085 H   0  0  0  0  0  0  0  0  0  0  0  0
   18.1261   19.4970   20.7295 H   0  0  0  0  0  0  0  0  0  0  0  0
  1  2  1  0  0  0  0
  1  3  1  0  0  0  0
  1  4  1  0  0  0  0
  1  5  1  0  0  0  0
  5  6  1  0  0  0  0
  5  7  1  0  0  0  0
  5  8  1  0  0  0  0
  8  9  1  0  0  0  0
  8 10  1  0  0  0  0
  8 11  1  0  0  0  0
 11 12  1  0  0  0  0
 11 13  1  0  0  0  0
 11 14  1  0  0  0  0
 14 15  1  0  0  0  0
 14 16  1  0  0  0  0
 14 17  1  0  0  0  0
 17 18  1  0  0  0  0
 17 19  1  0  0  0  0
 19 20  1  0  0  0  0
 19 21  1  0  0  0  0
 19 22  1  0  0  0  0
 17 23  1  0  0  0  0
 23 24  1  0  0  0  0
 23 25  1  0  0  0  0
 23 26  1  0  0  0  0
M  END
> <VConfSearch Rank>
192

> <Conf_Id>
142

> <Delta U+W>
2.978

> <U+W>
-27.320

> <U>
26.848

> <W>
-54.168

> <W(PB)>
-56.427

> <W(SA)>
2.259

> <Valence>
5.823

> <Coulomb>
20.057

> <VdW>
0.968

> <VdW6>
-8.367

> <VdW12>
9.335

> <Bond>
0.267

> <Angle>
1.799

> <Pdih>
3.758

> <Idih>
0.000

> <Tether>
0.000

$$$$
VeraChem MOL file


 26 25  0  0  0  0  0  0  0  0999 V2000     
   17.0206   21.0275   22.1306 C   0  0  0  0  0  0  0  0  0  0  0  0
   17.3714   21.2753   21.1204 H   0  0  0  0  0  0  0  0  0  0  0  0
   15.9335   21.1784   22.1541 H   0  0  0  0  0  0  0  0  0  0  0  0
   17.4660   21.7411   22.8344 H   0  0  0  0  0  0  0  0  0  0  0  0
   17.3708   19.5675   22.4984 C   0  0  0  0  0  0  0  0  0  0  0  0
   16.7962   18.8946   21.8466 H   0  0  0  0  0  0  0  0  0  0  0  0
   17.0422   19.3543   23.5252 H   0  0  0  0  0  0  0  0  0  0  0  0
   18.8752   19.2345   22.3486 C   0  0  0  0  0  0  0  0  0  0  0  0
   18.9876   18.1519   22.4784 H   0  0  0  0  0  0  0  0  0  0  0  0
   19.2023   19.4701   21.3266 H   0  0  0  0  0  0  0  0  0  0  0  0
   19.7744   19.9702   23.3740 C   0  0  0  0  0  0  0  0  0  0  0  0
   19.4848   19.6813   24.3930 H   0  0  0  0  0  0  0  0  0  0  0  0
   19.5870   21.0493   23.3077 H   0  0  0  0  0  0  0  0  0  0  0  0
   21.3013   19.7552   23.1717 C   0  0  0  0  0  0  0  0  0  0  0  0
   21.5978   20.1595   22.1950 H   0  0  0  0  0  0  0  0  0  0  0  0
   21.8245   20.3740   23.9125 H   0  0  0  0  0  0  0  0  0  0  0  0
   21.8473   18.3104   23.3050 C   0  0  1  0  0  0  0  0  0  0  0  0
   22.9369   18.3911   23.3684 H   0  0  0  0  0  0  0  0  0  0  0  0
   21.3651   17.6142   24.5896 C   0  0  0  0  0  0  0  0  0  0  0  0
   20.2875   17.4129   24.5614 H   0  0  0  0  0  0  0  0  0  0  0  0
   21.5769   18.2335   25.4700 H   0  0  0  0  0  0  0  0  0  0  0  0
   21.8819   16.6562   24.7245 H   0  0  0  0  0  0  0  0  0  0  0  0
   21.5857   17.4634   22.0898 N   0  3  0  0  0  0  0  0  0  0  0  0
   21.9710   17.8931   21.2440 H   0  0  0  0  0  0  0  0  0  0  0  0
   22.0119   16.5369   22.1819 H   0  0  0  0  0  0  0  0  0  0  0  0
   20.5844   17.3281   21.9378 H   0  0  0  0  0  0  0  0  0  0  0  0
  1  2  1  0  0  0  0
  1  3  1  0  0  0  0
  1  4  1  0  0  0  0
  1  5  1  0  0  0  0
  5  6  1  0  0  0  0
  5  7  1  0  0  0  0
  5  8  1  0  0  0  0
  8  9  1  0  0  0  0
  8 10  1  0  0  0  0
  8 11  1  0  0  0  0
 11 12  1  0  0  0  0
 11 13  1  0  0  0  0
 11 14  1  0  0  0  0
 14 15  1  0  0  0  0
 14 16  1  0  0  0  0
 14 17  1  0  0  0  0
 17 18  1  0  0  0  0
 17 19  1  0  0  0  0
 19 20  1  0  0  0  0
 19 21  1  0  0  0  0
 19 22  1  0  0  0  0
 17 23  1  0  0  0  0
 23 24  1  0  0  0  0
 23 25  1  0  0  0  0
 23 26  1  0  0  0  0
M  END
> <VConfSearch Rank>
193

> <Conf_Id>
119

> <Delta U+W>
3.538

> <U+W>
-26.761

> <U>
27.482

> <W>
-54.243

> <W(PB)>
-56.494

> <W(SA)>
2.251

> <Valence>
5.284

> <Coulomb>
21.247

> <VdW>
0.951

> <VdW6>
-9.416

> <VdW12>
10.367

> <Bond>
0.323

> <Angle>
2.522

> <Pdih>
2.439

> <Idih>
0.000

> <Tether>
0.000

$$$$
VeraChem MOL file


 26 25  0  0  0  0  0  0  0  0999 V2000     
   21.9222   18.2372   25.6474 C   0  0  0  0  0  0  0  0  0  0  0  0
   21.2608   17.6313   26.2801 H   0  0  0  0  0  0  0  0  0  0  0  0
   22.2702   17.6126   24.8154 H   0  0  0  0  0  0  0  0  0  0  0  0
   22.8015   18.5097   26.2452 H   0  0  0  0  0  0  0  0  0  0  0  0
   21.1985   19.5056   25.1412 C   0  0  0  0  0  0  0  0  0  0  0  0
   21.8704   20.0776   24.4862 H   0  0  0  0  0  0  0  0  0  0  0  0
   20.9806   20.1553   26.0004 H   0  0  0  0  0  0  0  0  0  0  0  0
   19.8745   19.2050   24.3979 C   0  0  0  0  0  0  0  0  0  0  0  0
   19.1974   18.6566   25.0673 H   0  0  0  0  0  0  0  0  0  0  0  0
   19.3790   20.1585   24.1806 H   0  0  0  0  0  0  0  0  0  0  0  0
   20.0732   18.3990   23.0883 C   0  0  0  0  0  0  0  0  0  0  0  0
   20.4601   17.4050   23.3486 H   0  0  0  0  0  0  0  0  0  0  0  0
   20.8450   18.8706   22.4667 H   0  0  0  0  0  0  0  0  0  0  0  0
   18.7604   18.2041   22.2791 C   0  0  0  0  0  0  0  0  0  0  0  0
   18.7772   17.2020   21.8308 H   0  0  0  0  0  0  0  0  0  0  0  0
   17.8988   18.2010   22.9597 H   0  0  0  0  0  0  0  0  0  0  0  0
   18.5099   19.2192   21.1361 C   0  0  1  0  0  0  0  0  0  0  0  0
   17.5528   18.9550   20.6757 H   0  0  0  0  0  0  0  0  0  0  0  0
   18.3966   20.6682   21.6369 C   0  0  0  0  0  0  0  0  0  0  0  0
   19.3568   21.0393   22.0146 H   0  0  0  0  0  0  0  0  0  0  0  0
   17.6518   20.7467   22.4384 H   0  0  0  0  0  0  0  0  0  0  0  0
   18.0792   21.3311   20.8227 H   0  0  0  0  0  0  0  0  0  0  0  0
   19.5369   19.1101   20.0421 N   0  3  0  0  0  0  0  0  0  0  0  0
   19.5820   18.1602   19.6626 H   0  0  0  0  0  0  0  0  0  0  0  0
   19.3223   19.7399   19.2638 H   0  0  0  0  0  0  0  0  0  0  0  0
   20.4710   19.3502   20.3824 H   0  0  0  0  0  0  0  0  0  0  0  0
  1  2  1  0  0  0  0
  1  3  1  0  0  0  0
  1  4  1  0  0  0  0
  1  5  1  0  0  0  0
  5  6  1  0  0  0  0
  5  7  1  0  0  0  0
  5  8  1  0  0  0  0
  8  9  1  0  0  0  0
  8 10  1  0  0  0  0
  8 11  1  0  0  0  0
 11 12  1  0  0  0  0
 11 13  1  0  0  0  0
 11 14  1  0  0  0  0
 14 15  1  0  0  0  0
 14 16  1  0  0  0  0
 14 17  1  0  0  0  0
 17 18  1  0  0  0  0
 17 19  1  0  0  0  0
 19 20  1  0  0  0  0
 19 21  1  0  0  0  0
 19 22  1  0  0  0  0
 17 23  1  0  0  0  0
 23 24  1  0  0  0  0
 23 25  1  0  0  0  0
 23 26  1  0  0  0  0
M  END
> <VConfSearch Rank>
194

> <Conf_Id>
127

> <Delta U+W>
3.544

> <U+W>
-26.754

> <U>
27.509

> <W>
-54.263

> <W(PB)>
-56.496

> <W(SA)>
2.232

> <Valence>
6.375

> <Coulomb>
20.014

> <VdW>
1.120

> <VdW6>
-8.976

> <VdW12>
10.096

> <Bond>
0.304

> <Angle>
1.986

> <Pdih>
4.086

> <Idih>
0.000

> <Tether>
0.000

$$$$
VeraChem MOL file


 26 25  0  0  0  0  0  0  0  0999 V2000     
   20.2837   18.2788   19.9237 C   0  0  0  0  0  0  0  0  0  0  0  0
   20.3007   18.7651   18.9398 H   0  0  0  0  0  0  0  0  0  0  0  0
   20.4079   17.1999   19.7637 H   0  0  0  0  0  0  0  0  0  0  0  0
   19.2914   18.4427   20.3580 H   0  0  0  0  0  0  0  0  0  0  0  0
   21.4126   18.8364   20.8219 C   0  0  0  0  0  0  0  0  0  0  0  0
   21.3234   19.9276   20.9151 H   0  0  0  0  0  0  0  0  0  0  0  0
   22.3699   18.6544   20.3137 H   0  0  0  0  0  0  0  0  0  0  0  0
   21.4649   18.1772   22.2244 C   0  0  0  0  0  0  0  0  0  0  0  0
   21.0803   17.1491   22.1761 H   0  0  0  0  0  0  0  0  0  0  0  0
   22.5196   18.0839   22.5184 H   0  0  0  0  0  0  0  0  0  0  0  0
   20.7376   18.9664   23.3437 C   0  0  0  0  0  0  0  0  0  0  0  0
   21.2072   19.9534   23.4481 H   0  0  0  0  0  0  0  0  0  0  0  0
   20.9135   18.4401   24.2903 H   0  0  0  0  0  0  0  0  0  0  0  0
   19.2116   19.1324   23.1143 C   0  0  0  0  0  0  0  0  0  0  0  0
   19.0465   19.7434   22.2189 H   0  0  0  0  0  0  0  0  0  0  0  0
   18.7640   18.1516   22.9064 H   0  0  0  0  0  0  0  0  0  0  0  0
   18.4445   19.7939   24.2839 C   0  0  1  0  0  0  0  0  0  0  0  0
   17.4066   19.9194   23.9602 H   0  0  0  0  0  0  0  0  0  0  0  0
   18.4312   18.9108   25.5441 C   0  0  0  0  0  0  0  0  0  0  0  0
   18.0676   17.9025   25.3101 H   0  0  0  0  0  0  0  0  0  0  0  0
   17.7630   19.3367   26.3026 H   0  0  0  0  0  0  0  0  0  0  0  0
   19.4284   18.8219   25.9905 H   0  0  0  0  0  0  0  0  0  0  0  0
   18.9532   21.1742   24.5973 N   0  3  0  0  0  0  0  0  0  0  0  0
   18.9199   21.7826   23.7745 H   0  0  0  0  0  0  0  0  0  0  0  0
   18.3957   21.6209   25.3308 H   0  0  0  0  0  0  0  0  0  0  0  0
   19.9227   21.1474   24.9222 H   0  0  0  0  0  0  0  0  0  0  0  0
  1  2  1  0  0  0  0
  1  3  1  0  0  0  0
  1  4  1  0  0  0  0
  1  5  1  0  0  0  0
  5  6  1  0  0  0  0
  5  7  1  0  0  0  0
  5  8  1  0  0  0  0
  8  9  1  0  0  0  0
  8 10  1  0  0  0  0
  8 11  1  0  0  0  0
 11 12  1  0  0  0  0
 11 13  1  0  0  0  0
 11 14  1  0  0  0  0
 14 15  1  0  0  0  0
 14 16  1  0  0  0  0
 14 17  1  0  0  0  0
 17 18  1  0  0  0  0
 17 19  1  0  0  0  0
 19 20  1  0  0  0  0
 19 21  1  0  0  0  0
 19 22  1  0  0  0  0
 17 23  1  0  0  0  0
 23 24  1  0  0  0  0
 23 25  1  0  0  0  0
 23 26  1  0  0  0  0
M  END
> <VConfSearch Rank>
195

> <Conf_Id>
131

> <Delta U+W>
3.589

> <U+W>
-26.710

> <U>
27.573

> <W>
-54.283

> <W(PB)>
-56.537

> <W(SA)>
2.254

> <Valence>
6.363

> <Coulomb>
20.026

> <VdW>
1.184

> <VdW6>
-8.939

> <VdW12>
10.123

> <Bond>
0.298

> <Angle>
2.018

> <Pdih>
4.047

> <Idih>
0.000

> <Tether>
0.000

$$$$
VeraChem MOL file


 26 25  0  0  0  0  0  0  0  0999 V2000     
   21.0668   16.6033   23.3645 C   0  0  0  0  0  0  0  0  0  0  0  0
   21.3274   16.6752   22.3007 H   0  0  0  0  0  0  0  0  0  0  0  0
   21.3163   17.5536   23.8521 H   0  0  0  0  0  0  0  0  0  0  0  0
   21.7013   15.8287   23.8143 H   0  0  0  0  0  0  0  0  0  0  0  0
   19.5745   16.2528   23.5508 C   0  0  0  0  0  0  0  0  0  0  0  0
   19.3298   16.2605   24.6221 H   0  0  0  0  0  0  0  0  0  0  0  0
   19.4097   15.2214   23.2089 H   0  0  0  0  0  0  0  0  0  0  0  0
   18.5982   17.1845   22.7879 C   0  0  0  0  0  0  0  0  0  0  0  0
   18.7623   17.0971   21.7052 H   0  0  0  0  0  0  0  0  0  0  0  0
   17.5803   16.8097   22.9633 H   0  0  0  0  0  0  0  0  0  0  0  0
   18.6463   18.6724   23.2240 C   0  0  0  0  0  0  0  0  0  0  0  0
   18.9312   18.7345   24.2821 H   0  0  0  0  0  0  0  0  0  0  0  0
   17.6307   19.0866   23.1565 H   0  0  0  0  0  0  0  0  0  0  0  0
   19.5800   19.5429   22.3418 C   0  0  0  0  0  0  0  0  0  0  0  0
   20.6125   19.1799   22.3944 H   0  0  0  0  0  0  0  0  0  0  0  0
   19.2688   19.4312   21.2948 H   0  0  0  0  0  0  0  0  0  0  0  0
   19.5471   21.0459   22.7010 C   0  0  1  0  0  0  0  0  0  0  0  0
   18.5043   21.3778   22.6957 H   0  0  0  0  0  0  0  0  0  0  0  0
   20.1402   21.3207   24.0948 C   0  0  0  0  0  0  0  0  0  0  0  0
   21.1691   20.9473   24.1689 H   0  0  0  0  0  0  0  0  0  0  0  0
   19.5450   20.8463   24.8833 H   0  0  0  0  0  0  0  0  0  0  0  0
   20.1536   22.3976   24.3032 H   0  0  0  0  0  0  0  0  0  0  0  0
   20.2588   21.8681   21.6626 N   0  3  0  0  0  0  0  0  0  0  0  0
   21.2502   21.6207   21.6036 H   0  0  0  0  0  0  0  0  0  0  0  0
   19.8525   21.7348   20.7321 H   0  0  0  0  0  0  0  0  0  0  0  0
   20.2059   22.8681   21.8766 H   0  0  0  0  0  0  0  0  0  0  0  0
  1  2  1  0  0  0  0
  1  3  1  0  0  0  0
  1  4  1  0  0  0  0
  1  5  1  0  0  0  0
  5  6  1  0  0  0  0
  5  7  1  0  0  0  0
  5  8  1  0  0  0  0
  8  9  1  0  0  0  0
  8 10  1  0  0  0  0
  8 11  1  0  0  0  0
 11 12  1  0  0  0  0
 11 13  1  0  0  0  0
 11 14  1  0  0  0  0
 14 15  1  0  0  0  0
 14 16  1  0  0  0  0
 14 17  1  0  0  0  0
 17 18  1  0  0  0  0
 17 19  1  0  0  0  0
 19 20  1  0  0  0  0
 19 21  1  0  0  0  0
 19 22  1  0  0  0  0
 17 23  1  0  0  0  0
 23 24  1  0  0  0  0
 23 25  1  0  0  0  0
 23 26  1  0  0  0  0
M  END
> <VConfSearch Rank>
196

> <Conf_Id>
80

> <Delta U+W>
3.351

> <U+W>
-26.948

> <U>
27.261

> <W>
-54.209

> <W(PB)>
-56.471

> <W(SA)>
2.263

> <Valence>
6.230

> <Coulomb>
19.945

> <VdW>
1.087

> <VdW6>
-8.618

> <VdW12>
9.704

> <Bond>
0.277

> <Angle>
1.928

> <Pdih>
4.025

> <Idih>
0.000

> <Tether>
0.000

$$$$
VeraChem MOL file


 26 25  0  0  0  0  0  0  0  0999 V2000     
   23.0224   19.0176   22.1821 C   0  0  0  0  0  0  0  0  0  0  0  0
   23.6635   19.5399   21.4603 H   0  0  0  0  0  0  0  0  0  0  0  0
   23.6737   18.5264   22.9165 H   0  0  0  0  0  0  0  0  0  0  0  0
   22.4732   18.2418   21.6340 H   0  0  0  0  0  0  0  0  0  0  0  0
   22.0601   20.0122   22.8698 C   0  0  0  0  0  0  0  0  0  0  0  0
   21.4025   20.4694   22.1192 H   0  0  0  0  0  0  0  0  0  0  0  0
   22.6498   20.8390   23.2898 H   0  0  0  0  0  0  0  0  0  0  0  0
   21.2224   19.3794   24.0114 C   0  0  0  0  0  0  0  0  0  0  0  0
   21.9074   19.0766   24.8152 H   0  0  0  0  0  0  0  0  0  0  0  0
   20.5860   20.1570   24.4489 H   0  0  0  0  0  0  0  0  0  0  0  0
   20.3655   18.1439   23.6147 C   0  0  0  0  0  0  0  0  0  0  0  0
   19.8807   17.7352   24.5118 H   0  0  0  0  0  0  0  0  0  0  0  0
   21.0420   17.3498   23.2721 H   0  0  0  0  0  0  0  0  0  0  0  0
   19.2924   18.3874   22.5165 C   0  0  0  0  0  0  0  0  0  0  0  0
   19.6251   19.1476   21.8010 H   0  0  0  0  0  0  0  0  0  0  0  0
   19.2028   17.4601   21.9355 H   0  0  0  0  0  0  0  0  0  0  0  0
   17.8786   18.7355   23.0418 C   0  0  1  0  0  0  0  0  0  0  0  0
   17.5502   17.9251   23.6998 H   0  0  0  0  0  0  0  0  0  0  0  0
   17.8413   20.0474   23.8427 C   0  0  0  0  0  0  0  0  0  0  0  0
   18.3760   19.9405   24.7930 H   0  0  0  0  0  0  0  0  0  0  0  0
   16.8081   20.3233   24.0871 H   0  0  0  0  0  0  0  0  0  0  0  0
   18.2904   20.8731   23.2769 H   0  0  0  0  0  0  0  0  0  0  0  0
   16.8860   18.7892   21.9134 N   0  3  0  0  0  0  0  0  0  0  0  0
   16.8576   17.9076   21.3933 H   0  0  0  0  0  0  0  0  0  0  0  0
   15.9385   18.9698   22.2571 H   0  0  0  0  0  0  0  0  0  0  0  0
   17.1159   19.5319   21.2479 H   0  0  0  0  0  0  0  0  0  0  0  0
  1  2  1  0  0  0  0
  1  3  1  0  0  0  0
  1  4  1  0  0  0  0
  1  5  1  0  0  0  0
  5  6  1  0  0  0  0
  5  7  1  0  0  0  0
  5  8  1  0  0  0  0
  8  9  1  0  0  0  0
  8 10  1  0  0  0  0
  8 11  1  0  0  0  0
 11 12  1  0  0  0  0
 11 13  1  0  0  0  0
 11 14  1  0  0  0  0
 14 15  1  0  0  0  0
 14 16  1  0  0  0  0
 14 17  1  0  0  0  0
 17 18  1  0  0  0  0
 17 19  1  0  0  0  0
 19 20  1  0  0  0  0
 19 21  1  0  0  0  0
 19 22  1  0  0  0  0
 17 23  1  0  0  0  0
 23 24  1  0  0  0  0
 23 25  1  0  0  0  0
 23 26  1  0  0  0  0
M  END
> <VConfSearch Rank>
197

> <Conf_Id>
136

> <Delta U+W>
4.272

> <U+W>
-26.026

> <U>
28.262

> <W>
-54.288

> <W(PB)>
-56.488

> <W(SA)>
2.200

> <Valence>
7.096

> <Coulomb>
19.990

> <VdW>
1.175

> <VdW6>
-9.404

> <VdW12>
10.580

> <Bond>
0.360

> <Angle>
2.785

> <Pdih>
3.951

> <Idih>
0.000

> <Tether>
0.000

$$$$
VeraChem MOL file


 26 25  0  0  0  0  0  0  0  0999 V2000     
   20.3864   17.4221   25.3039 C   0  0  0  0  0  0  0  0  0  0  0  0
   21.0082   18.2775   25.0125 H   0  0  0  0  0  0  0  0  0  0  0  0
   20.7781   17.0418   26.2563 H   0  0  0  0  0  0  0  0  0  0  0  0
   20.5044   16.6306   24.5526 H   0  0  0  0  0  0  0  0  0  0  0  0
   18.9048   17.8307   25.4549 C   0  0  0  0  0  0  0  0  0  0  0  0
   18.8272   18.6609   26.1708 H   0  0  0  0  0  0  0  0  0  0  0  0
   18.3520   16.9921   25.9009 H   0  0  0  0  0  0  0  0  0  0  0  0
   18.2118   18.2249   24.1255 C   0  0  0  0  0  0  0  0  0  0  0  0
   18.1945   17.3670   23.4394 H   0  0  0  0  0  0  0  0  0  0  0  0
   17.1591   18.4420   24.3540 H   0  0  0  0  0  0  0  0  0  0  0  0
   18.8197   19.4661   23.4216 C   0  0  0  0  0  0  0  0  0  0  0  0
   19.2753   20.1341   24.1657 H   0  0  0  0  0  0  0  0  0  0  0  0
   17.9994   20.0339   22.9628 H   0  0  0  0  0  0  0  0  0  0  0  0
   19.8487   19.1033   22.3193 C   0  0  0  0  0  0  0  0  0  0  0  0
   20.6212   18.4470   22.7355 H   0  0  0  0  0  0  0  0  0  0  0  0
   19.3515   18.5285   21.5268 H   0  0  0  0  0  0  0  0  0  0  0  0
   20.5339   20.3437   21.7059 C   0  0  1  0  0  0  0  0  0  0  0  0
   21.0004   20.9127   22.5160 H   0  0  0  0  0  0  0  0  0  0  0  0
   21.6344   19.9148   20.7222 C   0  0  0  0  0  0  0  0  0  0  0  0
   21.2176   19.3390   19.8864 H   0  0  0  0  0  0  0  0  0  0  0  0
   22.3858   19.2927   21.2245 H   0  0  0  0  0  0  0  0  0  0  0  0
   22.1501   20.7910   20.3102 H   0  0  0  0  0  0  0  0  0  0  0  0
   19.5568   21.2692   21.0335 N   0  3  0  0  0  0  0  0  0  0  0  0
   19.0743   20.8046   20.2599 H   0  0  0  0  0  0  0  0  0  0  0  0
   18.8432   21.5996   21.6885 H   0  0  0  0  0  0  0  0  0  0  0  0
   20.0261   22.0947   20.6505 H   0  0  0  0  0  0  0  0  0  0  0  0
  1  2  1  0  0  0  0
  1  3  1  0  0  0  0
  1  4  1  0  0  0  0
  1  5  1  0  0  0  0
  5  6  1  0  0  0  0
  5  7  1  0  0  0  0
  5  8  1  0  0  0  0
  8  9  1  0  0  0  0
  8 10  1  0  0  0  0
  8 11  1  0  0  0  0
 11 12  1  0  0  0  0
 11 13  1  0  0  0  0
 11 14  1  0  0  0  0
 14 15  1  0  0  0  0
 14 16  1  0  0  0  0
 14 17  1  0  0  0  0
 17 18  1  0  0  0  0
 17 19  1  0  0  0  0
 19 20  1  0  0  0  0
 19 21  1  0  0  0  0
 19 22  1  0  0  0  0
 17 23  1  0  0  0  0
 23 24  1  0  0  0  0
 23 25  1  0  0  0  0
 23 26  1  0  0  0  0
M  END
> <VConfSearch Rank>
198

> <Conf_Id>
124

> <Delta U+W>
3.001

> <U+W>
-27.298

> <U>
26.787

> <W>
-54.085

> <W(PB)>
-56.347

> <W(SA)>
2.262

> <Valence>
5.742

> <Coulomb>
20.023

> <VdW>
1.022

> <VdW6>
-8.392

> <VdW12>
9.414

> <Bond>
0.261

> <Angle>
1.576

> <Pdih>
3.904

> <Idih>
0.000

> <Tether>
0.000

$$$$
VeraChem MOL file


 26 25  0  0  0  0  0  0  0  0999 V2000     
   20.8996   16.9573   20.9244 C   0  0  0  0  0  0  0  0  0  0  0  0
   20.1847   16.6987   20.1326 H   0  0  0  0  0  0  0  0  0  0  0  0
   21.7804   16.3142   20.8001 H   0  0  0  0  0  0  0  0  0  0  0  0
   20.4409   16.7081   21.8874 H   0  0  0  0  0  0  0  0  0  0  0  0
   21.3025   18.4480   20.8385 C   0  0  0  0  0  0  0  0  0  0  0  0
   21.7806   18.6128   19.8627 H   0  0  0  0  0  0  0  0  0  0  0  0
   22.0673   18.6812   21.5924 H   0  0  0  0  0  0  0  0  0  0  0  0
   20.1018   19.4203   20.9694 C   0  0  0  0  0  0  0  0  0  0  0  0
   20.2896   20.2835   20.3158 H   0  0  0  0  0  0  0  0  0  0  0  0
   19.1875   18.9503   20.5819 H   0  0  0  0  0  0  0  0  0  0  0  0
   19.8574   19.9651   22.4004 C   0  0  0  0  0  0  0  0  0  0  0  0
   19.0435   20.6997   22.3473 H   0  0  0  0  0  0  0  0  0  0  0  0
   20.7486   20.5167   22.7281 H   0  0  0  0  0  0  0  0  0  0  0  0
   19.5025   18.8727   23.4437 C   0  0  0  0  0  0  0  0  0  0  0  0
   18.7075   18.2312   23.0418 H   0  0  0  0  0  0  0  0  0  0  0  0
   20.3735   18.2248   23.6010 H   0  0  0  0  0  0  0  0  0  0  0  0
   19.0497   19.4122   24.8211 C   0  0  1  0  0  0  0  0  0  0  0  0
   18.8369   18.5460   25.4553 H   0  0  0  0  0  0  0  0  0  0  0  0
   20.1529   20.2342   25.5102 C   0  0  0  0  0  0  0  0  0  0  0  0
   20.3561   21.1690   24.9741 H   0  0  0  0  0  0  0  0  0  0  0  0
   21.0867   19.6614   25.5690 H   0  0  0  0  0  0  0  0  0  0  0  0
   19.8562   20.4926   26.5341 H   0  0  0  0  0  0  0  0  0  0  0  0
   17.7664   20.1928   24.7402 N   0  3  0  0  0  0  0  0  0  0  0  0
   17.4483   20.4868   25.6679 H   0  0  0  0  0  0  0  0  0  0  0  0
   17.8790   21.0365   24.1731 H   0  0  0  0  0  0  0  0  0  0  0  0
   17.0149   19.6376   24.3213 H   0  0  0  0  0  0  0  0  0  0  0  0
  1  2  1  0  0  0  0
  1  3  1  0  0  0  0
  1  4  1  0  0  0  0
  1  5  1  0  0  0  0
  5  6  1  0  0  0  0
  5  7  1  0  0  0  0
  5  8  1  0  0  0  0
  8  9  1  0  0  0  0
  8 10  1  0  0  0  0
  8 11  1  0  0  0  0
 11 12  1  0  0  0  0
 11 13  1  0  0  0  0
 11 14  1  0  0  0  0
 14 15  1  0  0  0  0
 14 16  1  0  0  0  0
 14 17  1  0  0  0  0
 17 18  1  0  0  0  0
 17 19  1  0  0  0  0
 19 20  1  0  0  0  0
 19 21  1  0  0  0  0
 19 22  1  0  0  0  0
 17 23  1  0  0  0  0
 23 24  1  0  0  0  0
 23 25  1  0  0  0  0
 23 26  1  0  0  0  0
M  END
> <VConfSearch Rank>
199

> <Conf_Id>
105

> <Delta U+W>
3.442

> <U+W>
-26.857

> <U>
27.313

> <W>
-54.169

> <W(PB)>
-56.414

> <W(SA)>
2.245

> <Valence>
6.229

> <Coulomb>
19.943

> <VdW>
1.140

> <VdW6>
-9.001

> <VdW12>
10.140

> <Bond>
0.294

> <Angle>
1.969

> <Pdih>
3.967

> <Idih>
0.000

> <Tether>
0.000

$$$$
VeraChem MOL file


 26 25  0  0  0  0  0  0  0  0999 V2000     
   19.6938   21.8356   21.5830 C   0  0  0  0  0  0  0  0  0  0  0  0
   18.7722   22.4215   21.6944 H   0  0  0  0  0  0  0  0  0  0  0  0
   20.3283   22.3502   20.8499 H   0  0  0  0  0  0  0  0  0  0  0  0
   19.4250   20.8609   21.1616 H   0  0  0  0  0  0  0  0  0  0  0  0
   20.4306   21.7034   22.9364 C   0  0  0  0  0  0  0  0  0  0  0  0
   20.6965   22.7142   23.2760 H   0  0  0  0  0  0  0  0  0  0  0  0
   21.3819   21.1698   22.8030 H   0  0  0  0  0  0  0  0  0  0  0  0
   19.5799   21.0215   24.0390 C   0  0  0  0  0  0  0  0  0  0  0  0
   19.8332   21.4870   25.0016 H   0  0  0  0  0  0  0  0  0  0  0  0
   18.5132   21.2321   23.8810 H   0  0  0  0  0  0  0  0  0  0  0  0
   19.8075   19.4948   24.1864 C   0  0  0  0  0  0  0  0  0  0  0  0
   19.2140   19.1402   25.0406 H   0  0  0  0  0  0  0  0  0  0  0  0
   20.8592   19.3133   24.4456 H   0  0  0  0  0  0  0  0  0  0  0  0
   19.4251   18.6703   22.9326 C   0  0  0  0  0  0  0  0  0  0  0  0
   18.4227   18.9711   22.6001 H   0  0  0  0  0  0  0  0  0  0  0  0
   20.1174   18.8967   22.1122 H   0  0  0  0  0  0  0  0  0  0  0  0
   19.4286   17.1485   23.1922 C   0  0  1  0  0  0  0  0  0  0  0  0
   18.7477   16.9409   24.0234 H   0  0  0  0  0  0  0  0  0  0  0  0
   18.9213   16.3938   21.9530 C   0  0  0  0  0  0  0  0  0  0  0  0
   19.5735   16.5669   21.0878 H   0  0  0  0  0  0  0  0  0  0  0  0
   17.9075   16.7183   21.6869 H   0  0  0  0  0  0  0  0  0  0  0  0
   18.8855   15.3141   22.1435 H   0  0  0  0  0  0  0  0  0  0  0  0
   20.7827   16.6385   23.6043 N   0  3  0  0  0  0  0  0  0  0  0  0
   21.1143   17.1033   24.4536 H   0  0  0  0  0  0  0  0  0  0  0  0
   20.7618   15.6326   23.7942 H   0  0  0  0  0  0  0  0  0  0  0  0
   21.4802   16.7979   22.8727 H   0  0  0  0  0  0  0  0  0  0  0  0
  1  2  1  0  0  0  0
  1  3  1  0  0  0  0
  1  4  1  0  0  0  0
  1  5  1  0  0  0  0
  5  6  1  0  0  0  0
  5  7  1  0  0  0  0
  5  8  1  0  0  0  0
  8  9  1  0  0  0  0
  8 10  1  0  0  0  0
  8 11  1  0  0  0  0
 11 12  1  0  0  0  0
 11 13  1  0  0  0  0
 11 14  1  0  0  0  0
 14 15  1  0  0  0  0
 14 16  1  0  0  0  0
 14 17  1  0  0  0  0
 17 18  1  0  0  0  0
 17 19  1  0  0  0  0
 19 20  1  0  0  0  0
 19 21  1  0  0  0  0
 19 22  1  0  0  0  0
 17 23  1  0  0  0  0
 23 24  1  0  0  0  0
 23 25  1  0  0  0  0
 23 26  1  0  0  0  0
M  END
> <VConfSearch Rank>
200

> <Conf_Id>
107

> <Delta U+W>
2.995

> <U+W>
-27.304

> <U>
26.796

> <W>
-54.100

> <W(PB)>
-56.404

> <W(SA)>
2.304

> <Valence>
5.706

> <Coulomb>
20.107

> <VdW>
0.982

> <VdW6>
-8.396

> <VdW12>
9.378

> <Bond>
0.254

> <Angle>
1.644

> <Pdih>
3.808

> <Idih>
0.000

> <Tether>
0.000

$$$$
VeraChem MOL file


 26 25  0  0  0  0  0  0  0  0999 V2000     
   16.3458   20.7788   21.3207 C   0  0  0  0  0  0  0  0  0  0  0  0
   16.8247   21.5651   20.7225 H   0  0  0  0  0  0  0  0  0  0  0  0
   15.4599   20.4315   20.7733 H   0  0  0  0  0  0  0  0  0  0  0  0
   16.0054   21.2261   22.2637 H   0  0  0  0  0  0  0  0  0  0  0  0
   17.3189   19.6094   21.5808 C   0  0  0  0  0  0  0  0  0  0  0  0
   17.6149   19.1613   20.6219 H   0  0  0  0  0  0  0  0  0  0  0  0
   16.8018   18.8250   22.1511 H   0  0  0  0  0  0  0  0  0  0  0  0
   18.5759   20.0717   22.3506 C   0  0  0  0  0  0  0  0  0  0  0  0
   19.0869   20.8579   21.7778 H   0  0  0  0  0  0  0  0  0  0  0  0
   18.2749   20.5203   23.3075 H   0  0  0  0  0  0  0  0  0  0  0  0
   19.5534   18.9034   22.6124 C   0  0  0  0  0  0  0  0  0  0  0  0
   19.8563   18.4580   21.6545 H   0  0  0  0  0  0  0  0  0  0  0  0
   19.0332   18.1198   23.1791 H   0  0  0  0  0  0  0  0  0  0  0  0
   20.8112   19.3696   23.3852 C   0  0  0  0  0  0  0  0  0  0  0  0
   21.2854   20.1896   22.8294 H   0  0  0  0  0  0  0  0  0  0  0  0
   20.5172   19.7807   24.3602 H   0  0  0  0  0  0  0  0  0  0  0  0
   21.8467   18.2421   23.5878 C   0  0  1  0  0  0  0  0  0  0  0  0
   22.1052   17.8336   22.6059 H   0  0  0  0  0  0  0  0  0  0  0  0
   23.1266   18.8010   24.2298 C   0  0  0  0  0  0  0  0  0  0  0  0
   22.9217   19.2229   25.2217 H   0  0  0  0  0  0  0  0  0  0  0  0
   23.5628   19.5911   23.6059 H   0  0  0  0  0  0  0  0  0  0  0  0
   23.8807   18.0124   24.3428 H   0  0  0  0  0  0  0  0  0  0  0  0
   21.3033   17.1001   24.4026 N   0  3  0  0  0  0  0  0  0  0  0  0
   21.0342   17.4060   25.3414 H   0  0  0  0  0  0  0  0  0  0  0  0
   20.4761   16.6873   23.9636 H   0  0  0  0  0  0  0  0  0  0  0  0
   21.9966   16.3542   24.5104 H   0  0  0  0  0  0  0  0  0  0  0  0
  1  2  1  0  0  0  0
  1  3  1  0  0  0  0
  1  4  1  0  0  0  0
  1  5  1  0  0  0  0
  5  6  1  0  0  0  0
  5  7  1  0  0  0  0
  5  8  1  0  0  0  0
  8  9  1  0  0  0  0
  8 10  1  0  0  0  0
  8 11  1  0  0  0  0
 11 12  1  0  0  0  0
 11 13  1  0  0  0  0
 11 14  1  0  0  0  0
 14 15  1  0  0  0  0
 14 16  1  0  0  0  0
 14 17  1  0  0  0  0
 17 18  1  0  0  0  0
 17 19  1  0  0  0  0
 19 20  1  0  0  0  0
 19 21  1  0  0  0  0
 19 22  1  0  0  0  0
 17 23  1  0  0  0  0
 23 24  1  0  0  0  0
 23 25  1  0  0  0  0
 23 26  1  0  0  0  0
M  END
> <VConfSearch Rank>
201

> <Conf_Id>
122

> <Delta U+W>
0.000

> <U+W>
-30.299

> <U>
23.517

> <W>
-53.816

> <W(PB)>
-56.162

> <W(SA)>
2.346

> <Valence>
2.737

> <Coulomb>
19.862

> <VdW>
0.919

> <VdW6>
-6.793

> <VdW12>
7.712

> <Bond>
0.171

> <Angle>
0.873

> <Pdih>
1.693

> <Idih>
0.000

> <Tether>
0.000

$$$$
VeraChem MOL file


 26 25  0  0  0  0  0  0  0  0999 V2000     
   20.7396   16.8323   26.3292 C   0  0  0  0  0  0  0  0  0  0  0  0
   21.3093   15.9235   26.5627 H   0  0  0  0  0  0  0  0  0  0  0  0
   21.1347   17.6466   26.9506 H   0  0  0  0  0  0  0  0  0  0  0  0
   19.6947   16.6583   26.6174 H   0  0  0  0  0  0  0  0  0  0  0  0
   20.8516   17.1751   24.8285 C   0  0  0  0  0  0  0  0  0  0  0  0
   20.4808   16.3292   24.2329 H   0  0  0  0  0  0  0  0  0  0  0  0
   21.9097   17.3099   24.5634 H   0  0  0  0  0  0  0  0  0  0  0  0
   20.0579   18.4517   24.4726 C   0  0  0  0  0  0  0  0  0  0  0  0
   19.0014   18.3129   24.7411 H   0  0  0  0  0  0  0  0  0  0  0  0
   20.4305   19.2931   25.0732 H   0  0  0  0  0  0  0  0  0  0  0  0
   20.1679   18.7986   22.9704 C   0  0  0  0  0  0  0  0  0  0  0  0
   19.8013   17.9485   22.3802 H   0  0  0  0  0  0  0  0  0  0  0  0
   21.2243   18.9419   22.7038 H   0  0  0  0  0  0  0  0  0  0  0  0
   19.3677   20.0761   22.6159 C   0  0  0  0  0  0  0  0  0  0  0  0
   18.3010   19.9136   22.8201 H   0  0  0  0  0  0  0  0  0  0  0  0
   19.6917   20.8871   23.2816 H   0  0  0  0  0  0  0  0  0  0  0  0
   19.5523   20.5415   21.1533 C   0  0  1  0  0  0  0  0  0  0  0  0
   20.6238   20.6558   20.9623 H   0  0  0  0  0  0  0  0  0  0  0  0
   18.9833   19.5271   20.1450 C   0  0  0  0  0  0  0  0  0  0  0  0
   17.9212   19.3298   20.3368 H   0  0  0  0  0  0  0  0  0  0  0  0
   19.5236   18.5745   20.1890 H   0  0  0  0  0  0  0  0  0  0  0  0
   19.0789   19.9062   19.1200 H   0  0  0  0  0  0  0  0  0  0  0  0
   18.9358   21.8952   20.9331 N   0  3  0  0  0  0  0  0  0  0  0  0
   17.9246   21.8762   21.0900 H   0  0  0  0  0  0  0  0  0  0  0  0
   19.3319   22.5975   21.5644 H   0  0  0  0  0  0  0  0  0  0  0  0
   19.0901   22.2254   19.9762 H   0  0  0  0  0  0  0  0  0  0  0  0
  1  2  1  0  0  0  0
  1  3  1  0  0  0  0
  1  4  1  0  0  0  0
  1  5  1  0  0  0  0
  5  6  1  0  0  0  0
  5  7  1  0  0  0  0
  5  8  1  0  0  0  0
  8  9  1  0  0  0  0
  8 10  1  0  0  0  0
  8 11  1  0  0  0  0
 11 12  1  0  0  0  0
 11 13  1  0  0  0  0
 11 14  1  0  0  0  0
 14 15  1  0  0  0  0
 14 16  1  0  0  0  0
 14 17  1  0  0  0  0
 17 18  1  0  0  0  0
 17 19  1  0  0  0  0
 19 20  1  0  0  0  0
 19 21  1  0  0  0  0
 19 22  1  0  0  0  0
 17 23  1  0  0  0  0
 23 24  1  0  0  0  0
 23 25  1  0  0  0  0
 23 26  1  0  0  0  0
M  END
> <VConfSearch Rank>
202

> <Conf_Id>
54

> <Delta U+W>
0.453

> <U+W>
-29.845

> <U>
23.817

> <W>
-53.663

> <W(PB)>
-56.021

> <W(SA)>
2.358

> <Valence>
3.277

> <Coulomb>
19.492

> <VdW>
1.049

> <VdW6>
-6.949

> <VdW12>
7.998

> <Bond>
0.183

> <Angle>
1.152

> <Pdih>
1.942

> <Idih>
0.000

> <Tether>
0.000

$$$$
VeraChem MOL file


 26 25  0  0  0  0  0  0  0  0999 V2000     
   16.9392   17.9684   21.0447 C   0  0  0  0  0  0  0  0  0  0  0  0
   16.5679   18.9986   20.9673 H   0  0  0  0  0  0  0  0  0  0  0  0
   17.7027   17.8189   20.2718 H   0  0  0  0  0  0  0  0  0  0  0  0
   16.1042   17.2935   20.8161 H   0  0  0  0  0  0  0  0  0  0  0  0
   17.4929   17.6817   22.4593 C   0  0  0  0  0  0  0  0  0  0  0  0
   17.8894   16.6576   22.5025 H   0  0  0  0  0  0  0  0  0  0  0  0
   16.6597   17.7183   23.1751 H   0  0  0  0  0  0  0  0  0  0  0  0
   18.5797   18.6857   22.9147 C   0  0  0  0  0  0  0  0  0  0  0  0
   18.1863   19.7090   22.8401 H   0  0  0  0  0  0  0  0  0  0  0  0
   18.7795   18.4946   23.9757 H   0  0  0  0  0  0  0  0  0  0  0  0
   19.9022   18.5666   22.1158 C   0  0  0  0  0  0  0  0  0  0  0  0
   19.6848   18.6296   21.0422 H   0  0  0  0  0  0  0  0  0  0  0  0
   20.3392   17.5719   22.2798 H   0  0  0  0  0  0  0  0  0  0  0  0
   20.9602   19.6544   22.4400 C   0  0  0  0  0  0  0  0  0  0  0  0
   21.7921   19.5120   21.7373 H   0  0  0  0  0  0  0  0  0  0  0  0
   20.5555   20.6522   22.2247 H   0  0  0  0  0  0  0  0  0  0  0  0
   21.5188   19.6114   23.8824 C   0  0  1  0  0  0  0  0  0  0  0  0
   21.6257   18.5638   24.1805 H   0  0  0  0  0  0  0  0  0  0  0  0
   22.9066   20.2716   23.9397 C   0  0  0  0  0  0  0  0  0  0  0  0
   23.3148   20.2308   24.9571 H   0  0  0  0  0  0  0  0  0  0  0  0
   22.8584   21.3238   23.6322 H   0  0  0  0  0  0  0  0  0  0  0  0
   23.6134   19.7540   23.2792 H   0  0  0  0  0  0  0  0  0  0  0  0
   20.6055   20.2678   24.8819 N   0  3  0  0  0  0  0  0  0  0  0  0
   19.6749   19.8447   24.8746 H   0  0  0  0  0  0  0  0  0  0  0  0
   20.9739   20.1874   25.8339 H   0  0  0  0  0  0  0  0  0  0  0  0
   20.4916   21.2650   24.6820 H   0  0  0  0  0  0  0  0  0  0  0  0
  1  2  1  0  0  0  0
  1  3  1  0  0  0  0
  1  4  1  0  0  0  0
  1  5  1  0  0  0  0
  5  6  1  0  0  0  0
  5  7  1  0  0  0  0
  5  8  1  0  0  0  0
  8  9  1  0  0  0  0
  8 10  1  0  0  0  0
  8 11  1  0  0  0  0
 11 12  1  0  0  0  0
 11 13  1  0  0  0  0
 11 14  1  0  0  0  0
 14 15  1  0  0  0  0
 14 16  1  0  0  0  0
 14 17  1  0  0  0  0
 17 18  1  0  0  0  0
 17 19  1  0  0  0  0
 19 20  1  0  0  0  0
 19 21  1  0  0  0  0
 19 22  1  0  0  0  0
 17 23  1  0  0  0  0
 23 24  1  0  0  0  0
 23 25  1  0  0  0  0
 23 26  1  0  0  0  0
M  END
> <VConfSearch Rank>
203

> <Conf_Id>
110

> <Delta U+W>
3.764

> <U+W>
-26.535

> <U>
27.400

> <W>
-53.935

> <W(PB)>
-56.238

> <W(SA)>
2.303

> <Valence>
5.205

> <Coulomb>
21.096

> <VdW>
1.098

> <VdW6>
-8.389

> <VdW12>
9.488

> <Bond>
0.270

> <Angle>
1.912

> <Pdih>
3.023

> <Idih>
0.000

> <Tether>
0.000

$$$$
VeraChem MOL file


 26 25  0  0  0  0  0  0  0  0999 V2000     
   19.4864   18.4186   19.3588 C   0  0  0  0  0  0  0  0  0  0  0  0
   18.8439   18.1803   18.5012 H   0  0  0  0  0  0  0  0  0  0  0  0
   19.6250   19.5067   19.3743 H   0  0  0  0  0  0  0  0  0  0  0  0
   20.4636   17.9491   19.1867 H   0  0  0  0  0  0  0  0  0  0  0  0
   18.8481   17.9088   20.6708 C   0  0  0  0  0  0  0  0  0  0  0  0
   18.6175   16.8400   20.5605 H   0  0  0  0  0  0  0  0  0  0  0  0
   17.8866   18.4152   20.8348 H   0  0  0  0  0  0  0  0  0  0  0  0
   19.7555   18.0958   21.9107 C   0  0  0  0  0  0  0  0  0  0  0  0
   19.2749   17.6066   22.7664 H   0  0  0  0  0  0  0  0  0  0  0  0
   20.7038   17.5642   21.7515 H   0  0  0  0  0  0  0  0  0  0  0  0
   20.0455   19.5824   22.2422 C   0  0  0  0  0  0  0  0  0  0  0  0
   19.1110   20.1596   22.2708 H   0  0  0  0  0  0  0  0  0  0  0  0
   20.6424   20.0110   21.4263 H   0  0  0  0  0  0  0  0  0  0  0  0
   20.8308   19.7740   23.5669 C   0  0  0  0  0  0  0  0  0  0  0  0
   21.4384   18.8849   23.7820 H   0  0  0  0  0  0  0  0  0  0  0  0
   21.5450   20.5945   23.4172 H   0  0  0  0  0  0  0  0  0  0  0  0
   19.9577   20.1355   24.7929 C   0  0  1  0  0  0  0  0  0  0  0  0
   19.4033   21.0492   24.5574 H   0  0  0  0  0  0  0  0  0  0  0  0
   18.9415   19.0369   25.1478 C   0  0  0  0  0  0  0  0  0  0  0  0
   19.4389   18.0731   25.3125 H   0  0  0  0  0  0  0  0  0  0  0  0
   18.1991   18.9151   24.3505 H   0  0  0  0  0  0  0  0  0  0  0  0
   18.3933   19.2976   26.0615 H   0  0  0  0  0  0  0  0  0  0  0  0
   20.8125   20.4575   25.9873 N   0  3  0  0  0  0  0  0  0  0  0  0
   21.4651   21.2215   25.7896 H   0  0  0  0  0  0  0  0  0  0  0  0
   20.2431   20.7439   26.7886 H   0  0  0  0  0  0  0  0  0  0  0  0
   21.3663   19.6482   26.2803 H   0  0  0  0  0  0  0  0  0  0  0  0
  1  2  1  0  0  0  0
  1  3  1  0  0  0  0
  1  4  1  0  0  0  0
  1  5  1  0  0  0  0
  5  6  1  0  0  0  0
  5  7  1  0  0  0  0
  5  8  1  0  0  0  0
  8  9  1  0  0  0  0
  8 10  1  0  0  0  0
  8 11  1  0  0  0  0
 11 12  1  0  0  0  0
 11 13  1  0  0  0  0
 11 14  1  0  0  0  0
 14 15  1  0  0  0  0
 14 16  1  0  0  0  0
 14 17  1  0  0  0  0
 17 18  1  0  0  0  0
 17 19  1  0  0  0  0
 19 20  1  0  0  0  0
 19 21  1  0  0  0  0
 19 22  1  0  0  0  0
 17 23  1  0  0  0  0
 23 24  1  0  0  0  0
 23 25  1  0  0  0  0
 23 26  1  0  0  0  0
M  END
> <VConfSearch Rank>
204

> <Conf_Id>
34

> <Delta U+W>
3.568

> <U+W>
-26.731

> <U>
27.221

> <W>
-53.952

> <W(PB)>
-56.213

> <W(SA)>
2.261

> <Valence>
6.368

> <Coulomb>
19.698

> <VdW>
1.155

> <VdW6>
-8.532

> <VdW12>
9.687

> <Bond>
0.272

> <Angle>
1.847

> <Pdih>
4.248

> <Idih>
0.000

> <Tether>
0.000

$$$$
VeraChem MOL file


 26 25  0  0  0  0  0  0  0  0999 V2000     
   21.3562   19.8727   26.6364 C   0  0  0  0  0  0  0  0  0  0  0  0
   22.3869   20.1100   26.3418 H   0  0  0  0  0  0  0  0  0  0  0  0
   20.8294   20.8167   26.8278 H   0  0  0  0  0  0  0  0  0  0  0  0
   21.3959   19.3119   27.5793 H   0  0  0  0  0  0  0  0  0  0  0  0
   20.6419   19.0505   25.5429 C   0  0  0  0  0  0  0  0  0  0  0  0
   19.6264   18.7999   25.8803 H   0  0  0  0  0  0  0  0  0  0  0  0
   21.1719   18.0986   25.3982 H   0  0  0  0  0  0  0  0  0  0  0  0
   20.5724   19.8179   24.2040 C   0  0  0  0  0  0  0  0  0  0  0  0
   20.0441   20.7695   24.3549 H   0  0  0  0  0  0  0  0  0  0  0  0
   21.5897   20.0683   23.8725 H   0  0  0  0  0  0  0  0  0  0  0  0
   19.8580   18.9978   23.1060 C   0  0  0  0  0  0  0  0  0  0  0  0
   18.8434   18.7497   23.4447 H   0  0  0  0  0  0  0  0  0  0  0  0
   20.3904   18.0478   22.9665 H   0  0  0  0  0  0  0  0  0  0  0  0
   19.7943   19.7727   21.7639 C   0  0  0  0  0  0  0  0  0  0  0  0
   19.3036   20.7407   21.9295 H   0  0  0  0  0  0  0  0  0  0  0  0
   20.8144   20.0047   21.4302 H   0  0  0  0  0  0  0  0  0  0  0  0
   19.0529   19.0385   20.6216 C   0  0  1  0  0  0  0  0  0  0  0  0
   19.0563   19.7034   19.7523 H   0  0  0  0  0  0  0  0  0  0  0  0
   19.7636   17.7362   20.2132 C   0  0  0  0  0  0  0  0  0  0  0  0
   19.7147   16.9810   21.0066 H   0  0  0  0  0  0  0  0  0  0  0  0
   20.8193   17.9243   19.9815 H   0  0  0  0  0  0  0  0  0  0  0  0
   19.2974   17.3101   19.3165 H   0  0  0  0  0  0  0  0  0  0  0  0
   17.6063   18.7842   20.9457 N   0  3  0  0  0  0  0  0  0  0  0  0
   17.1157   18.3554   20.1559 H   0  0  0  0  0  0  0  0  0  0  0  0
   17.5097   18.1539   21.7455 H   0  0  0  0  0  0  0  0  0  0  0  0
   17.1147   19.6525   21.1758 H   0  0  0  0  0  0  0  0  0  0  0  0
  1  2  1  0  0  0  0
  1  3  1  0  0  0  0
  1  4  1  0  0  0  0
  1  5  1  0  0  0  0
  5  6  1  0  0  0  0
  5  7  1  0  0  0  0
  5  8  1  0  0  0  0
  8  9  1  0  0  0  0
  8 10  1  0  0  0  0
  8 11  1  0  0  0  0
 11 12  1  0  0  0  0
 11 13  1  0  0  0  0
 11 14  1  0  0  0  0
 14 15  1  0  0  0  0
 14 16  1  0  0  0  0
 14 17  1  0  0  0  0
 17 18  1  0  0  0  0
 17 19  1  0  0  0  0
 19 20  1  0  0  0  0
 19 21  1  0  0  0  0
 19 22  1  0  0  0  0
 17 23  1  0  0  0  0
 23 24  1  0  0  0  0
 23 25  1  0  0  0  0
 23 26  1  0  0  0  0
M  END
> <VConfSearch Rank>
205

> <Conf_Id>
132

> <Delta U+W>
0.363

> <U+W>
-29.936

> <U>
24.060

> <W>
-53.996

> <W(PB)>
-56.327

> <W(SA)>
2.332

> <Valence>
3.249

> <Coulomb>
19.781

> <VdW>
1.030

> <VdW6>
-7.421

> <VdW12>
8.451

> <Bond>
0.207

> <Angle>
1.205

> <Pdih>
1.837

> <Idih>
0.000

> <Tether>
0.000

$$$$
VeraChem MOL file


 26 25  0  0  0  0  0  0  0  0999 V2000     
   18.0908   21.5527   25.4837 C   0  0  0  0  0  0  0  0  0  0  0  0
   17.6189   22.5045   25.2071 H   0  0  0  0  0  0  0  0  0  0  0  0
   17.3616   20.9713   26.0629 H   0  0  0  0  0  0  0  0  0  0  0  0
   18.9450   21.7769   26.1358 H   0  0  0  0  0  0  0  0  0  0  0  0
   18.5418   20.7819   24.2248 C   0  0  0  0  0  0  0  0  0  0  0  0
   19.2359   21.4114   23.6527 H   0  0  0  0  0  0  0  0  0  0  0  0
   17.6715   20.5982   23.5794 H   0  0  0  0  0  0  0  0  0  0  0  0
   19.2146   19.4376   24.5905 C   0  0  0  0  0  0  0  0  0  0  0  0
   20.1162   19.6250   25.1899 H   0  0  0  0  0  0  0  0  0  0  0  0
   18.5331   18.8621   25.2322 H   0  0  0  0  0  0  0  0  0  0  0  0
   19.5788   18.5692   23.3610 C   0  0  0  0  0  0  0  0  0  0  0  0
   18.6720   18.3806   22.7713 H   0  0  0  0  0  0  0  0  0  0  0  0
   19.9192   17.5924   23.7278 H   0  0  0  0  0  0  0  0  0  0  0  0
   20.6793   19.2004   22.4646 C   0  0  0  0  0  0  0  0  0  0  0  0
   20.3275   20.1620   22.0718 H   0  0  0  0  0  0  0  0  0  0  0  0
   21.5616   19.4275   23.0774 H   0  0  0  0  0  0  0  0  0  0  0  0
   21.1186   18.3298   21.2633 C   0  0  1  0  0  0  0  0  0  0  0  0
   21.8484   18.9114   20.6915 H   0  0  0  0  0  0  0  0  0  0  0  0
   21.8107   17.0298   21.7094 C   0  0  0  0  0  0  0  0  0  0  0  0
   21.1113   16.3447   22.2027 H   0  0  0  0  0  0  0  0  0  0  0  0
   22.6317   17.2437   22.4049 H   0  0  0  0  0  0  0  0  0  0  0  0
   22.2363   16.5065   20.8444 H   0  0  0  0  0  0  0  0  0  0  0  0
   19.9844   18.0403   20.3187 N   0  3  0  0  0  0  0  0  0  0  0  0
   19.5481   18.9026   19.9803 H   0  0  0  0  0  0  0  0  0  0  0  0
   20.3046   17.5173   19.4988 H   0  0  0  0  0  0  0  0  0  0  0  0
   19.2561   17.4836   20.7726 H   0  0  0  0  0  0  0  0  0  0  0  0
  1  2  1  0  0  0  0
  1  3  1  0  0  0  0
  1  4  1  0  0  0  0
  1  5  1  0  0  0  0
  5  6  1  0  0  0  0
  5  7  1  0  0  0  0
  5  8  1  0  0  0  0
  8  9  1  0  0  0  0
  8 10  1  0  0  0  0
  8 11  1  0  0  0  0
 11 12  1  0  0  0  0
 11 13  1  0  0  0  0
 11 14  1  0  0  0  0
 14 15  1  0  0  0  0
 14 16  1  0  0  0  0
 14 17  1  0  0  0  0
 17 18  1  0  0  0  0
 17 19  1  0  0  0  0
 19 20  1  0  0  0  0
 19 21  1  0  0  0  0
 19 22  1  0  0  0  0
 17 23  1  0  0  0  0
 23 24  1  0  0  0  0
 23 25  1  0  0  0  0
 23 26  1  0  0  0  0
M  END
> <VConfSearch Rank>
206

> <Conf_Id>
46

> <Delta U+W>
1.114

> <U+W>
-29.185

> <U>
24.990

> <W>
-54.175

> <W(PB)>
-56.455

> <W(SA)>
2.279

> <Valence>
3.862

> <Coulomb>
19.956

> <VdW>
1.172

> <VdW6>
-8.054

> <VdW12>
9.226

> <Bond>
0.258

> <Angle>
1.499

> <Pdih>
2.106

> <Idih>
0.000

> <Tether>
0.000

$$$$
VeraChem MOL file


 26 25  0  0  0  0  0  0  0  0999 V2000     
   22.3197   21.7914   23.4790 C   0  0  0  0  0  0  0  0  0  0  0  0
   22.1622   21.8702   22.3963 H   0  0  0  0  0  0  0  0  0  0  0  0
   21.6389   22.4929   23.9784 H   0  0  0  0  0  0  0  0  0  0  0  0
   23.3475   22.1164   23.6864 H   0  0  0  0  0  0  0  0  0  0  0  0
   22.0977   20.3472   23.9829 C   0  0  0  0  0  0  0  0  0  0  0  0
   22.3908   20.2940   25.0408 H   0  0  0  0  0  0  0  0  0  0  0  0
   22.7660   19.6607   23.4445 H   0  0  0  0  0  0  0  0  0  0  0  0
   20.6329   19.8649   23.8501 C   0  0  0  0  0  0  0  0  0  0  0  0
   20.5498   18.8901   24.3481 H   0  0  0  0  0  0  0  0  0  0  0  0
   19.9711   20.5496   24.3982 H   0  0  0  0  0  0  0  0  0  0  0  0
   20.1556   19.7418   22.3806 C   0  0  0  0  0  0  0  0  0  0  0  0
   20.8324   19.0806   21.8234 H   0  0  0  0  0  0  0  0  0  0  0  0
   20.2190   20.7227   21.8920 H   0  0  0  0  0  0  0  0  0  0  0  0
   18.6949   19.2376   22.2526 C   0  0  0  0  0  0  0  0  0  0  0  0
   18.0280   19.9611   22.7401 H   0  0  0  0  0  0  0  0  0  0  0  0
   18.4126   19.2279   21.1914 H   0  0  0  0  0  0  0  0  0  0  0  0
   18.4475   17.8374   22.8581 C   0  0  1  0  0  0  0  0  0  0  0  0
   18.7082   17.8692   23.9199 H   0  0  0  0  0  0  0  0  0  0  0  0
   16.9621   17.4599   22.7423 C   0  0  0  0  0  0  0  0  0  0  0  0
   16.7722   16.4841   23.2060 H   0  0  0  0  0  0  0  0  0  0  0  0
   16.6462   17.4069   21.6929 H   0  0  0  0  0  0  0  0  0  0  0  0
   16.3315   18.1989   23.2521 H   0  0  0  0  0  0  0  0  0  0  0  0
   19.3136   16.7795   22.2310 N   0  3  0  0  0  0  0  0  0  0  0  0
   20.3070   17.0021   22.3367 H   0  0  0  0  0  0  0  0  0  0  0  0
   19.1563   15.8632   22.6599 H   0  0  0  0  0  0  0  0  0  0  0  0
   19.1229   16.6864   21.2299 H   0  0  0  0  0  0  0  0  0  0  0  0
  1  2  1  0  0  0  0
  1  3  1  0  0  0  0
  1  4  1  0  0  0  0
  1  5  1  0  0  0  0
  5  6  1  0  0  0  0
  5  7  1  0  0  0  0
  5  8  1  0  0  0  0
  8  9  1  0  0  0  0
  8 10  1  0  0  0  0
  8 11  1  0  0  0  0
 11 12  1  0  0  0  0
 11 13  1  0  0  0  0
 11 14  1  0  0  0  0
 14 15  1  0  0  0  0
 14 16  1  0  0  0  0
 14 17  1  0  0  0  0
 17 18  1  0  0  0  0
 17 19  1  0  0  0  0
 19 20  1  0  0  0  0
 19 21  1  0  0  0  0
 19 22  1  0  0  0  0
 17 23  1  0  0  0  0
 23 24  1  0  0  0  0
 23 25  1  0  0  0  0
 23 26  1  0  0  0  0
M  END
> <VConfSearch Rank>
207

> <Conf_Id>
113

> <Delta U+W>
1.137

> <U+W>
-29.162

> <U>
24.833

> <W>
-53.995

> <W(PB)>
-56.288

> <W(SA)>
2.294

> <Valence>
3.589

> <Coulomb>
20.270

> <VdW>
0.974

> <VdW6>
-8.255

> <VdW12>
9.229

> <Bond>
0.244

> <Angle>
1.377

> <Pdih>
1.967

> <Idih>
0.000

> <Tether>
0.000

$$$$
VeraChem MOL file


 26 25  0  0  0  0  0  0  0  0999 V2000     
   22.9396   21.0375   21.4989 C   0  0  0  0  0  0  0  0  0  0  0  0
   23.6902   20.5912   20.8336 H   0  0  0  0  0  0  0  0  0  0  0  0
   22.4191   21.8256   20.9392 H   0  0  0  0  0  0  0  0  0  0  0  0
   23.4698   21.5070   22.3377 H   0  0  0  0  0  0  0  0  0  0  0  0
   21.9481   19.9654   21.9987 C   0  0  0  0  0  0  0  0  0  0  0  0
   22.5010   19.1770   22.5284 H   0  0  0  0  0  0  0  0  0  0  0  0
   21.4695   19.4917   21.1314 H   0  0  0  0  0  0  0  0  0  0  0  0
   20.8769   20.5723   22.9355 C   0  0  0  0  0  0  0  0  0  0  0  0
   21.3801   21.1096   23.7513 H   0  0  0  0  0  0  0  0  0  0  0  0
   20.2894   21.3230   22.3892 H   0  0  0  0  0  0  0  0  0  0  0  0
   19.9264   19.5186   23.5556 C   0  0  0  0  0  0  0  0  0  0  0  0
   19.2878   20.0259   24.2904 H   0  0  0  0  0  0  0  0  0  0  0  0
   20.5214   18.7849   24.1154 H   0  0  0  0  0  0  0  0  0  0  0  0
   19.0379   18.7976   22.5053 C   0  0  0  0  0  0  0  0  0  0  0  0
   18.5329   19.5477   21.8828 H   0  0  0  0  0  0  0  0  0  0  0  0
   19.6699   18.2137   21.8247 H   0  0  0  0  0  0  0  0  0  0  0  0
   17.9665   17.8531   23.1000 C   0  0  1  0  0  0  0  0  0  0  0  0
   17.4112   17.4226   22.2609 H   0  0  0  0  0  0  0  0  0  0  0  0
   18.5951   16.6903   23.8876 C   0  0  0  0  0  0  0  0  0  0  0  0
   19.0930   17.0407   24.7995 H   0  0  0  0  0  0  0  0  0  0  0  0
   19.3335   16.1585   23.2749 H   0  0  0  0  0  0  0  0  0  0  0  0
   17.8254   15.9668   24.1832 H   0  0  0  0  0  0  0  0  0  0  0  0
   16.9534   18.5856   23.9365 N   0  3  0  0  0  0  0  0  0  0  0  0
   16.4993   19.3345   23.4061 H   0  0  0  0  0  0  0  0  0  0  0  0
   16.2170   17.9563   24.2683 H   0  0  0  0  0  0  0  0  0  0  0  0
   17.3874   19.0102   24.7596 H   0  0  0  0  0  0  0  0  0  0  0  0
  1  2  1  0  0  0  0
  1  3  1  0  0  0  0
  1  4  1  0  0  0  0
  1  5  1  0  0  0  0
  5  6  1  0  0  0  0
  5  7  1  0  0  0  0
  5  8  1  0  0  0  0
  8  9  1  0  0  0  0
  8 10  1  0  0  0  0
  8 11  1  0  0  0  0
 11 12  1  0  0  0  0
 11 13  1  0  0  0  0
 11 14  1  0  0  0  0
 14 15  1  0  0  0  0
 14 16  1  0  0  0  0
 14 17  1  0  0  0  0
 17 18  1  0  0  0  0
 17 19  1  0  0  0  0
 19 20  1  0  0  0  0
 19 21  1  0  0  0  0
 19 22  1  0  0  0  0
 17 23  1  0  0  0  0
 23 24  1  0  0  0  0
 23 25  1  0  0  0  0
 23 26  1  0  0  0  0
M  END
> <VConfSearch Rank>
208

> <Conf_Id>
45

> <Delta U+W>
1.035

> <U+W>
-29.264

> <U>
24.725

> <W>
-53.989

> <W(PB)>
-56.298

> <W(SA)>
2.309

> <Valence>
3.780

> <Coulomb>
19.804

> <VdW>
1.141

> <VdW6>
-8.104

> <VdW12>
9.246

> <Bond>
0.254

> <Angle>
1.437

> <Pdih>
2.089

> <Idih>
0.000

> <Tether>
0.000

$$$$
VeraChem MOL file


 26 25  0  0  0  0  0  0  0  0999 V2000     
   16.5547   17.5476   24.6042 C   0  0  0  0  0  0  0  0  0  0  0  0
   16.4702   17.3014   25.6706 H   0  0  0  0  0  0  0  0  0  0  0  0
   15.6433   18.0838   24.3093 H   0  0  0  0  0  0  0  0  0  0  0  0
   16.5938   16.6050   24.0427 H   0  0  0  0  0  0  0  0  0  0  0  0
   17.8124   18.4026   24.3402 C   0  0  0  0  0  0  0  0  0  0  0  0
   18.6960   17.8502   24.6860 H   0  0  0  0  0  0  0  0  0  0  0  0
   17.7579   19.3238   24.9370 H   0  0  0  0  0  0  0  0  0  0  0  0
   17.9550   18.7584   22.8413 C   0  0  0  0  0  0  0  0  0  0  0  0
   18.0664   17.8385   22.2508 H   0  0  0  0  0  0  0  0  0  0  0  0
   17.0249   19.2328   22.4988 H   0  0  0  0  0  0  0  0  0  0  0  0
   19.1331   19.7167   22.5376 C   0  0  0  0  0  0  0  0  0  0  0  0
   19.0193   20.6368   23.1275 H   0  0  0  0  0  0  0  0  0  0  0  0
   19.0639   20.0150   21.4833 H   0  0  0  0  0  0  0  0  0  0  0  0
   20.5259   19.0911   22.8085 C   0  0  0  0  0  0  0  0  0  0  0  0
   20.6003   18.8163   23.8678 H   0  0  0  0  0  0  0  0  0  0  0  0
   20.6341   18.1618   22.2337 H   0  0  0  0  0  0  0  0  0  0  0  0
   21.6912   20.0475   22.4725 C   0  0  1  0  0  0  0  0  0  0  0  0
   21.5420   20.9782   23.0286 H   0  0  0  0  0  0  0  0  0  0  0  0
   23.0300   19.4329   22.9116 C   0  0  0  0  0  0  0  0  0  0  0  0
   23.2286   18.4932   22.3810 H   0  0  0  0  0  0  0  0  0  0  0  0
   23.0288   19.2235   23.9886 H   0  0  0  0  0  0  0  0  0  0  0  0
   23.8590   20.1220   22.7081 H   0  0  0  0  0  0  0  0  0  0  0  0
   21.7351   20.4158   21.0144 N   0  3  0  0  0  0  0  0  0  0  0  0
   20.8679   20.8702   20.7164 H   0  0  0  0  0  0  0  0  0  0  0  0
   22.5032   21.0629   20.8150 H   0  0  0  0  0  0  0  0  0  0  0  0
   21.8693   19.5903   20.4246 H   0  0  0  0  0  0  0  0  0  0  0  0
  1  2  1  0  0  0  0
  1  3  1  0  0  0  0
  1  4  1  0  0  0  0
  1  5  1  0  0  0  0
  5  6  1  0  0  0  0
  5  7  1  0  0  0  0
  5  8  1  0  0  0  0
  8  9  1  0  0  0  0
  8 10  1  0  0  0  0
  8 11  1  0  0  0  0
 11 12  1  0  0  0  0
 11 13  1  0  0  0  0
 11 14  1  0  0  0  0
 14 15  1  0  0  0  0
 14 16  1  0  0  0  0
 14 17  1  0  0  0  0
 17 18  1  0  0  0  0
 17 19  1  0  0  0  0
 19 20  1  0  0  0  0
 19 21  1  0  0  0  0
 19 22  1  0  0  0  0
 17 23  1  0  0  0  0
 23 24  1  0  0  0  0
 23 25  1  0  0  0  0
 23 26  1  0  0  0  0
M  END
> <VConfSearch Rank>
209

> <Conf_Id>
121

> <Delta U+W>
0.736

> <U+W>
-29.562

> <U>
24.282

> <W>
-53.844

> <W(PB)>
-56.205

> <W(SA)>
2.361

> <Valence>
3.311

> <Coulomb>
19.887

> <VdW>
1.083

> <VdW6>
-7.444

> <VdW12>
8.527

> <Bond>
0.219

> <Angle>
1.167

> <Pdih>
1.926

> <Idih>
0.000

> <Tether>
0.000

$$$$
VeraChem MOL file


 26 25  0  0  0  0  0  0  0  0999 V2000     
   16.4751   20.6626   22.7907 C   0  0  0  0  0  0  0  0  0  0  0  0
   15.8011   21.4734   22.4854 H   0  0  0  0  0  0  0  0  0  0  0  0
   15.9318   19.7152   22.6797 H   0  0  0  0  0  0  0  0  0  0  0  0
   16.7022   20.8068   23.8541 H   0  0  0  0  0  0  0  0  0  0  0  0
   17.7576   20.6726   21.9281 C   0  0  0  0  0  0  0  0  0  0  0  0
   18.3003   21.6156   22.0828 H   0  0  0  0  0  0  0  0  0  0  0  0
   17.4694   20.6545   20.8677 H   0  0  0  0  0  0  0  0  0  0  0  0
   18.6983   19.4751   22.2060 C   0  0  0  0  0  0  0  0  0  0  0  0
   18.1534   18.5353   22.0420 H   0  0  0  0  0  0  0  0  0  0  0  0
   19.5062   19.4987   21.4630 H   0  0  0  0  0  0  0  0  0  0  0  0
   19.3049   19.4861   23.6322 C   0  0  0  0  0  0  0  0  0  0  0  0
   18.4970   19.4470   24.3742 H   0  0  0  0  0  0  0  0  0  0  0  0
   19.8295   20.4346   23.8068 H   0  0  0  0  0  0  0  0  0  0  0  0
   20.2576   18.2921   23.9008 C   0  0  0  0  0  0  0  0  0  0  0  0
   20.6226   18.3537   24.9346 H   0  0  0  0  0  0  0  0  0  0  0  0
   19.6748   17.3637   23.8392 H   0  0  0  0  0  0  0  0  0  0  0  0
   21.4662   18.1830   22.9409 C   0  0  1  0  0  0  0  0  0  0  0  0
   21.0889   18.1097   21.9167 H   0  0  0  0  0  0  0  0  0  0  0  0
   22.3910   19.4098   23.0324 C   0  0  0  0  0  0  0  0  0  0  0  0
   22.7511   19.5597   24.0578 H   0  0  0  0  0  0  0  0  0  0  0  0
   21.8742   20.3221   22.7125 H   0  0  0  0  0  0  0  0  0  0  0  0
   23.2639   19.2856   22.3798 H   0  0  0  0  0  0  0  0  0  0  0  0
   22.2457   16.9222   23.1926 N   0  3  0  0  0  0  0  0  0  0  0  0
   21.6582   16.0892   23.0947 H   0  0  0  0  0  0  0  0  0  0  0  0
   23.0233   16.8250   22.5336 H   0  0  0  0  0  0  0  0  0  0  0  0
   22.6422   16.9093   24.1361 H   0  0  0  0  0  0  0  0  0  0  0  0
  1  2  1  0  0  0  0
  1  3  1  0  0  0  0
  1  4  1  0  0  0  0
  1  5  1  0  0  0  0
  5  6  1  0  0  0  0
  5  7  1  0  0  0  0
  5  8  1  0  0  0  0
  8  9  1  0  0  0  0
  8 10  1  0  0  0  0
  8 11  1  0  0  0  0
 11 12  1  0  0  0  0
 11 13  1  0  0  0  0
 11 14  1  0  0  0  0
 14 15  1  0  0  0  0
 14 16  1  0  0  0  0
 14 17  1  0  0  0  0
 17 18  1  0  0  0  0
 17 19  1  0  0  0  0
 19 20  1  0  0  0  0
 19 21  1  0  0  0  0
 19 22  1  0  0  0  0
 17 23  1  0  0  0  0
 23 24  1  0  0  0  0
 23 25  1  0  0  0  0
 23 26  1  0  0  0  0
M  END
> <VConfSearch Rank>
210

> <Conf_Id>
5

> <Delta U+W>
1.233

> <U+W>
-29.065

> <U>
25.023

> <W>
-54.088

> <W(PB)>
-56.383

> <W(SA)>
2.296

> <Valence>
4.083

> <Coulomb>
19.893

> <VdW>
1.047

> <VdW6>
-8.479

> <VdW12>
9.527

> <Bond>
0.256

> <Angle>
1.716

> <Pdih>
2.112

> <Idih>
0.000

> <Tether>
0.000

$$$$
VeraChem MOL file


 26 25  0  0  0  0  0  0  0  0999 V2000     
   20.3234   16.0628   24.8724 C   0  0  0  0  0  0  0  0  0  0  0  0
   19.9799   15.1280   25.3340 H   0  0  0  0  0  0  0  0  0  0  0  0
   20.9018   15.7950   23.9798 H   0  0  0  0  0  0  0  0  0  0  0  0
   20.9965   16.5599   25.5829 H   0  0  0  0  0  0  0  0  0  0  0  0
   19.1193   16.9663   24.5219 C   0  0  0  0  0  0  0  0  0  0  0  0
   18.5038   17.0972   25.4230 H   0  0  0  0  0  0  0  0  0  0  0  0
   18.4798   16.4619   23.7841 H   0  0  0  0  0  0  0  0  0  0  0  0
   19.5271   18.3633   23.9945 C   0  0  0  0  0  0  0  0  0  0  0  0
   18.6165   18.9704   23.9106 H   0  0  0  0  0  0  0  0  0  0  0  0
   20.1702   18.8607   24.7336 H   0  0  0  0  0  0  0  0  0  0  0  0
   20.2421   18.3197   22.6209 C   0  0  0  0  0  0  0  0  0  0  0  0
   19.5820   17.8476   21.8802 H   0  0  0  0  0  0  0  0  0  0  0  0
   21.1326   17.6819   22.6904 H   0  0  0  0  0  0  0  0  0  0  0  0
   20.6901   19.7082   22.0977 C   0  0  0  0  0  0  0  0  0  0  0  0
   21.4184   20.1531   22.7889 H   0  0  0  0  0  0  0  0  0  0  0  0
   21.2364   19.5449   21.1592 H   0  0  0  0  0  0  0  0  0  0  0  0
   19.5189   20.6875   21.8408 C   0  0  1  0  0  0  0  0  0  0  0  0
   18.5941   20.1053   21.7814 H   0  0  0  0  0  0  0  0  0  0  0  0
   19.3819   21.7174   22.9770 C   0  0  0  0  0  0  0  0  0  0  0  0
   20.2691   22.3601   23.0362 H   0  0  0  0  0  0  0  0  0  0  0  0
   19.2552   21.2287   23.9495 H   0  0  0  0  0  0  0  0  0  0  0  0
   18.5083   22.3600   22.8127 H   0  0  0  0  0  0  0  0  0  0  0  0
   19.6548   21.3927   20.5190 N   0  3  0  0  0  0  0  0  0  0  0  0
   19.7000   20.7287   19.7407 H   0  0  0  0  0  0  0  0  0  0  0  0
   18.8600   22.0139   20.3430 H   0  0  0  0  0  0  0  0  0  0  0  0
   20.5027   21.9651   20.4854 H   0  0  0  0  0  0  0  0  0  0  0  0
  1  2  1  0  0  0  0
  1  3  1  0  0  0  0
  1  4  1  0  0  0  0
  1  5  1  0  0  0  0
  5  6  1  0  0  0  0
  5  7  1  0  0  0  0
  5  8  1  0  0  0  0
  8  9  1  0  0  0  0
  8 10  1  0  0  0  0
  8 11  1  0  0  0  0
 11 12  1  0  0  0  0
 11 13  1  0  0  0  0
 11 14  1  0  0  0  0
 14 15  1  0  0  0  0
 14 16  1  0  0  0  0
 14 17  1  0  0  0  0
 17 18  1  0  0  0  0
 17 19  1  0  0  0  0
 19 20  1  0  0  0  0
 19 21  1  0  0  0  0
 19 22  1  0  0  0  0
 17 23  1  0  0  0  0
 23 24  1  0  0  0  0
 23 25  1  0  0  0  0
 23 26  1  0  0  0  0
M  END
> <VConfSearch Rank>
211

> <Conf_Id>
100

> <Delta U+W>
3.818

> <U+W>
-26.481

> <U>
27.496

> <W>
-53.977

> <W(PB)>
-56.267

> <W(SA)>
2.290

> <Valence>
6.472

> <Coulomb>
19.839

> <VdW>
1.185

> <VdW6>
-8.405

> <VdW12>
9.590

> <Bond>
0.248

> <Angle>
1.619

> <Pdih>
4.604

> <Idih>
0.000

> <Tether>
0.000

$$$$
VeraChem MOL file


 26 25  0  0  0  0  0  0  0  0999 V2000     
   22.9326   20.1405   21.1928 C   0  0  0  0  0  0  0  0  0  0  0  0
   23.3399   20.9869   20.6247 H   0  0  0  0  0  0  0  0  0  0  0  0
   23.3469   20.1859   22.2084 H   0  0  0  0  0  0  0  0  0  0  0  0
   23.2873   19.2154   20.7199 H   0  0  0  0  0  0  0  0  0  0  0  0
   21.3904   20.1939   21.2196 C   0  0  0  0  0  0  0  0  0  0  0  0
   21.0074   20.1820   20.1895 H   0  0  0  0  0  0  0  0  0  0  0  0
   21.0666   21.1440   21.6673 H   0  0  0  0  0  0  0  0  0  0  0  0
   20.7906   19.0122   22.0134 C   0  0  0  0  0  0  0  0  0  0  0  0
   21.1193   18.0666   21.5606 H   0  0  0  0  0  0  0  0  0  0  0  0
   21.1902   19.0254   23.0343 H   0  0  0  0  0  0  0  0  0  0  0  0
   19.2430   19.0616   22.0349 C   0  0  0  0  0  0  0  0  0  0  0  0
   18.8880   19.0223   20.9957 H   0  0  0  0  0  0  0  0  0  0  0  0
   18.8997   20.0250   22.4333 H   0  0  0  0  0  0  0  0  0  0  0  0
   18.5952   17.8834   22.8150 C   0  0  0  0  0  0  0  0  0  0  0  0
   17.6672   17.5996   22.3015 H   0  0  0  0  0  0  0  0  0  0  0  0
   19.2399   16.9966   22.7559 H   0  0  0  0  0  0  0  0  0  0  0  0
   18.2383   18.1616   24.2965 C   0  0  1  0  0  0  0  0  0  0  0  0
   17.8071   17.2404   24.7007 H   0  0  0  0  0  0  0  0  0  0  0  0
   19.4659   18.5104   25.1534 C   0  0  0  0  0  0  0  0  0  0  0  0
   19.8784   19.4901   24.8844 H   0  0  0  0  0  0  0  0  0  0  0  0
   20.2525   17.7550   25.0349 H   0  0  0  0  0  0  0  0  0  0  0  0
   19.1943   18.5435   26.2156 H   0  0  0  0  0  0  0  0  0  0  0  0
   17.1711   19.2124   24.4382 N   0  3  0  0  0  0  0  0  0  0  0  0
   16.3266   18.9630   23.9156 H   0  0  0  0  0  0  0  0  0  0  0  0
   16.8982   19.3384   25.4170 H   0  0  0  0  0  0  0  0  0  0  0  0
   17.4919   20.1190   24.0901 H   0  0  0  0  0  0  0  0  0  0  0  0
  1  2  1  0  0  0  0
  1  3  1  0  0  0  0
  1  4  1  0  0  0  0
  1  5  1  0  0  0  0
  5  6  1  0  0  0  0
  5  7  1  0  0  0  0
  5  8  1  0  0  0  0
  8  9  1  0  0  0  0
  8 10  1  0  0  0  0
  8 11  1  0  0  0  0
 11 12  1  0  0  0  0
 11 13  1  0  0  0  0
 11 14  1  0  0  0  0
 14 15  1  0  0  0  0
 14 16  1  0  0  0  0
 14 17  1  0  0  0  0
 17 18  1  0  0  0  0
 17 19  1  0  0  0  0
 19 20  1  0  0  0  0
 19 21  1  0  0  0  0
 19 22  1  0  0  0  0
 17 23  1  0  0  0  0
 23 24  1  0  0  0  0
 23 25  1  0  0  0  0
 23 26  1  0  0  0  0
M  END
> <VConfSearch Rank>
212

> <Conf_Id>
142

> <Delta U+W>
2.978

> <U+W>
-27.320

> <U>
26.848

> <W>
-54.168

> <W(PB)>
-56.427

> <W(SA)>
2.259

> <Valence>
5.823

> <Coulomb>
20.057

> <VdW>
0.968

> <VdW6>
-8.367

> <VdW12>
9.335

> <Bond>
0.267

> <Angle>
1.799

> <Pdih>
3.758

> <Idih>
0.000

> <Tether>
0.000

$$$$
VeraChem MOL file


 26 25  0  0  0  0  0  0  0  0999 V2000     
   22.3010   21.5309   22.4034 C   0  0  0  0  0  0  0  0  0  0  0  0
   22.0297   22.1189   23.2898 H   0  0  0  0  0  0  0  0  0  0  0  0
   23.3288   21.7984   22.1257 H   0  0  0  0  0  0  0  0  0  0  0  0
   21.6482   21.8344   21.5760 H   0  0  0  0  0  0  0  0  0  0  0  0
   22.1960   20.0151   22.6880 C   0  0  0  0  0  0  0  0  0  0  0  0
   22.9609   19.7442   23.4292 H   0  0  0  0  0  0  0  0  0  0  0  0
   22.4371   19.4489   21.7775 H   0  0  0  0  0  0  0  0  0  0  0  0
   20.8111   19.5801   23.2258 C   0  0  0  0  0  0  0  0  0  0  0  0
   20.8935   18.5330   23.5394 H   0  0  0  0  0  0  0  0  0  0  0  0
   20.5666   20.1648   24.1232 H   0  0  0  0  0  0  0  0  0  0  0  0
   19.6743   19.7148   22.1814 C   0  0  0  0  0  0  0  0  0  0  0  0
   19.8927   19.0780   21.3138 H   0  0  0  0  0  0  0  0  0  0  0  0
   19.6582   20.7426   21.7978 H   0  0  0  0  0  0  0  0  0  0  0  0
   18.2510   19.4048   22.7262 C   0  0  0  0  0  0  0  0  0  0  0  0
   17.9988   20.1279   23.5128 H   0  0  0  0  0  0  0  0  0  0  0  0
   17.5362   19.5974   21.9153 H   0  0  0  0  0  0  0  0  0  0  0  0
   17.9797   17.9724   23.2535 C   0  0  1  0  0  0  0  0  0  0  0  0
   16.8950   17.8791   23.3650 H   0  0  0  0  0  0  0  0  0  0  0  0
   18.4328   16.8844   22.2643 C   0  0  0  0  0  0  0  0  0  0  0  0
   19.5247   16.8528   22.1689 H   0  0  0  0  0  0  0  0  0  0  0  0
   18.0051   17.0613   21.2697 H   0  0  0  0  0  0  0  0  0  0  0  0
   18.0967   15.8958   22.6002 H   0  0  0  0  0  0  0  0  0  0  0  0
   18.5386   17.7314   24.6291 N   0  3  0  0  0  0  0  0  0  0  0  0
   18.1797   18.4131   25.3036 H   0  0  0  0  0  0  0  0  0  0  0  0
   18.2897   16.8004   24.9751 H   0  0  0  0  0  0  0  0  0  0  0  0
   19.5580   17.7999   24.6348 H   0  0  0  0  0  0  0  0  0  0  0  0
  1  2  1  0  0  0  0
  1  3  1  0  0  0  0
  1  4  1  0  0  0  0
  1  5  1  0  0  0  0
  5  6  1  0  0  0  0
  5  7  1  0  0  0  0
  5  8  1  0  0  0  0
  8  9  1  0  0  0  0
  8 10  1  0  0  0  0
  8 11  1  0  0  0  0
 11 12  1  0  0  0  0
 11 13  1  0  0  0  0
 11 14  1  0  0  0  0
 14 15  1  0  0  0  0
 14 16  1  0  0  0  0
 14 17  1  0  0  0  0
 17 18  1  0  0  0  0
 17 19  1  0  0  0  0
 19 20  1  0  0  0  0
 19 21  1  0  0  0  0
 19 22  1  0  0  0  0
 17 23  1  0  0  0  0
 23 24  1  0  0  0  0
 23 25  1  0  0  0  0
 23 26  1  0  0  0  0
M  END
> <VConfSearch Rank>
213

> <Conf_Id>
119

> <Delta U+W>
3.538

> <U+W>
-26.761

> <U>
27.482

> <W>
-54.243

> <W(PB)>
-56.494

> <W(SA)>
2.251

> <Valence>
5.284

> <Coulomb>
21.247

> <VdW>
0.951

> <VdW6>
-9.416

> <VdW12>
10.367

> <Bond>
0.323

> <Angle>
2.522

> <Pdih>
2.439

> <Idih>
0.000

> <Tether>
0.000

$$$$
VeraChem MOL file


 26 25  0  0  0  0  0  0  0  0999 V2000     
   21.1155   16.2835   24.6389 C   0  0  0  0  0  0  0  0  0  0  0  0
   21.0321   15.4848   23.8905 H   0  0  0  0  0  0  0  0  0  0  0  0
   21.9961   16.8915   24.3972 H   0  0  0  0  0  0  0  0  0  0  0  0
   21.2976   15.8126   25.6135 H   0  0  0  0  0  0  0  0  0  0  0  0
   19.8294   17.1396   24.6840 C   0  0  0  0  0  0  0  0  0  0  0  0
   19.9502   17.9493   25.4171 H   0  0  0  0  0  0  0  0  0  0  0  0
   19.0017   16.5156   25.0492 H   0  0  0  0  0  0  0  0  0  0  0  0
   19.4348   17.7328   23.3099 C   0  0  0  0  0  0  0  0  0  0  0  0
   19.2895   16.9164   22.5890 H   0  0  0  0  0  0  0  0  0  0  0  0
   18.4592   18.2217   23.4147 H   0  0  0  0  0  0  0  0  0  0  0  0
   20.4754   18.7376   22.7517 C   0  0  0  0  0  0  0  0  0  0  0  0
   21.4065   18.1936   22.5457 H   0  0  0  0  0  0  0  0  0  0  0  0
   20.7253   19.4867   23.5139 H   0  0  0  0  0  0  0  0  0  0  0  0
   20.0223   19.4260   21.4337 C   0  0  0  0  0  0  0  0  0  0  0  0
   20.9020   19.5478   20.7882 H   0  0  0  0  0  0  0  0  0  0  0  0
   19.3469   18.7620   20.8783 H   0  0  0  0  0  0  0  0  0  0  0  0
   19.3632   20.8195   21.5870 C   0  0  1  0  0  0  0  0  0  0  0  0
   19.0959   21.1607   20.5820 H   0  0  0  0  0  0  0  0  0  0  0  0
   18.0719   20.7822   22.4203 C   0  0  0  0  0  0  0  0  0  0  0  0
   18.2788   20.5523   23.4723 H   0  0  0  0  0  0  0  0  0  0  0  0
   17.3763   20.0300   22.0284 H   0  0  0  0  0  0  0  0  0  0  0  0
   17.5646   21.7541   22.3843 H   0  0  0  0  0  0  0  0  0  0  0  0
   20.3203   21.8459   22.1291 N   0  3  0  0  0  0  0  0  0  0  0  0
   21.1612   21.9185   21.5494 H   0  0  0  0  0  0  0  0  0  0  0  0
   19.8919   22.7752   22.1633 H   0  0  0  0  0  0  0  0  0  0  0  0
   20.6202   21.6112   23.0783 H   0  0  0  0  0  0  0  0  0  0  0  0
  1  2  1  0  0  0  0
  1  3  1  0  0  0  0
  1  4  1  0  0  0  0
  1  5  1  0  0  0  0
  5  6  1  0  0  0  0
  5  7  1  0  0  0  0
  5  8  1  0  0  0  0
  8  9  1  0  0  0  0
  8 10  1  0  0  0  0
  8 11  1  0  0  0  0
 11 12  1  0  0  0  0
 11 13  1  0  0  0  0
 11 14  1  0  0  0  0
 14 15  1  0  0  0  0
 14 16  1  0  0  0  0
 14 17  1  0  0  0  0
 17 18  1  0  0  0  0
 17 19  1  0  0  0  0
 19 20  1  0  0  0  0
 19 21  1  0  0  0  0
 19 22  1  0  0  0  0
 17 23  1  0  0  0  0
 23 24  1  0  0  0  0
 23 25  1  0  0  0  0
 23 26  1  0  0  0  0
M  END
> <VConfSearch Rank>
214

> <Conf_Id>
127

> <Delta U+W>
3.544

> <U+W>
-26.754

> <U>
27.509

> <W>
-54.263

> <W(PB)>
-56.496

> <W(SA)>
2.232

> <Valence>
6.375

> <Coulomb>
20.014

> <VdW>
1.120

> <VdW6>
-8.976

> <VdW12>
10.096

> <Bond>
0.304

> <Angle>
1.986

> <Pdih>
4.086

> <Idih>
0.000

> <Tether>
0.000

$$$$
VeraChem MOL file


 26 25  0  0  0  0  0  0  0  0999 V2000     
   22.4989   17.4261   22.5009 C   0  0  0  0  0  0  0  0  0  0  0  0
   22.7468   16.4243   22.1270 H   0  0  0  0  0  0  0  0  0  0  0  0
   23.4336   17.8993   22.8290 H   0  0  0  0  0  0  0  0  0  0  0  0
   21.8573   17.3029   23.3802 H   0  0  0  0  0  0  0  0  0  0  0  0
   21.8165   18.2631   21.3938 C   0  0  0  0  0  0  0  0  0  0  0  0
   20.9227   17.7452   21.0190 H   0  0  0  0  0  0  0  0  0  0  0  0
   22.5083   18.3252   20.5421 H   0  0  0  0  0  0  0  0  0  0  0  0
   21.4574   19.7026   21.8442 C   0  0  0  0  0  0  0  0  0  0  0  0
   22.1562   20.0438   22.6204 H   0  0  0  0  0  0  0  0  0  0  0  0
   21.6136   20.3762   20.9902 H   0  0  0  0  0  0  0  0  0  0  0  0
   19.9947   19.8903   22.3238 C   0  0  0  0  0  0  0  0  0  0  0  0
   19.3136   19.6457   21.4980 H   0  0  0  0  0  0  0  0  0  0  0  0
   19.8487   20.9567   22.5375 H   0  0  0  0  0  0  0  0  0  0  0  0
   19.6248   19.0514   23.5760 C   0  0  0  0  0  0  0  0  0  0  0  0
   19.6788   17.9855   23.3240 H   0  0  0  0  0  0  0  0  0  0  0  0
   20.3706   19.2212   24.3636 H   0  0  0  0  0  0  0  0  0  0  0  0
   18.2162   19.3279   24.1534 C   0  0  1  0  0  0  0  0  0  0  0  0
   18.0586   18.6212   24.9741 H   0  0  0  0  0  0  0  0  0  0  0  0
   18.0951   20.7468   24.7367 C   0  0  0  0  0  0  0  0  0  0  0  0
   18.8988   20.9424   25.4574 H   0  0  0  0  0  0  0  0  0  0  0  0
   17.1406   20.8632   25.2646 H   0  0  0  0  0  0  0  0  0  0  0  0
   18.1396   21.5143   23.9552 H   0  0  0  0  0  0  0  0  0  0  0  0
   17.1230   19.0591   23.1560 N   0  3  0  0  0  0  0  0  0  0  0  0
   17.1678   18.1005   22.7989 H   0  0  0  0  0  0  0  0  0  0  0  0
   16.1965   19.1874   23.5726 H   0  0  0  0  0  0  0  0  0  0  0  0
   17.1891   19.6905   22.3540 H   0  0  0  0  0  0  0  0  0  0  0  0
  1  2  1  0  0  0  0
  1  3  1  0  0  0  0
  1  4  1  0  0  0  0
  1  5  1  0  0  0  0
  5  6  1  0  0  0  0
  5  7  1  0  0  0  0
  5  8  1  0  0  0  0
  8  9  1  0  0  0  0
  8 10  1  0  0  0  0
  8 11  1  0  0  0  0
 11 12  1  0  0  0  0
 11 13  1  0  0  0  0
 11 14  1  0  0  0  0
 14 15  1  0  0  0  0
 14 16  1  0  0  0  0
 14 17  1  0  0  0  0
 17 18  1  0  0  0  0
 17 19  1  0  0  0  0
 19 20  1  0  0  0  0
 19 21  1  0  0  0  0
 19 22  1  0  0  0  0
 17 23  1  0  0  0  0
 23 24  1  0  0  0  0
 23 25  1  0  0  0  0
 23 26  1  0  0  0  0
M  END
> <VConfSearch Rank>
215

> <Conf_Id>
131

> <Delta U+W>
3.589

> <U+W>
-26.710

> <U>
27.573

> <W>
-54.283

> <W(PB)>
-56.537

> <W(SA)>
2.254

> <Valence>
6.363

> <Coulomb>
20.026

> <VdW>
1.184

> <VdW6>
-8.939

> <VdW12>
10.123

> <Bond>
0.298

> <Angle>
2.018

> <Pdih>
4.047

> <Idih>
0.000

> <Tether>
0.000

$$$$
VeraChem MOL file


 26 25  0  0  0  0  0  0  0  0999 V2000     
   19.3405   21.7303   22.0943 C   0  0  0  0  0  0  0  0  0  0  0  0
   19.4282   21.3122   21.0832 H   0  0  0  0  0  0  0  0  0  0  0  0
   18.6400   21.1129   22.6699 H   0  0  0  0  0  0  0  0  0  0  0  0
   18.8983   22.7311   22.0068 H   0  0  0  0  0  0  0  0  0  0  0  0
   20.7183   21.8084   22.7871 C   0  0  0  0  0  0  0  0  0  0  0  0
   20.5870   22.1610   23.8197 H   0  0  0  0  0  0  0  0  0  0  0  0
   21.3245   22.5721   22.2801 H   0  0  0  0  0  0  0  0  0  0  0  0
   21.5098   20.4756   22.7896 C   0  0  0  0  0  0  0  0  0  0  0  0
   21.7431   20.1737   21.7594 H   0  0  0  0  0  0  0  0  0  0  0  0
   22.4803   20.6695   23.2672 H   0  0  0  0  0  0  0  0  0  0  0  0
   20.8212   19.3127   23.5512 C   0  0  0  0  0  0  0  0  0  0  0  0
   20.2077   19.7208   24.3647 H   0  0  0  0  0  0  0  0  0  0  0  0
   21.5995   18.7039   24.0318 H   0  0  0  0  0  0  0  0  0  0  0  0
   19.9842   18.3845   22.6316 C   0  0  0  0  0  0  0  0  0  0  0  0
   19.1784   18.9451   22.1450 H   0  0  0  0  0  0  0  0  0  0  0  0
   20.6342   18.0199   21.8254 H   0  0  0  0  0  0  0  0  0  0  0  0
   19.3867   17.1619   23.3649 C   0  0  1  0  0  0  0  0  0  0  0  0
   20.1971   16.6453   23.8883 H   0  0  0  0  0  0  0  0  0  0  0  0
   18.3206   17.5708   24.3973 C   0  0  0  0  0  0  0  0  0  0  0  0
   17.5144   18.1482   23.9279 H   0  0  0  0  0  0  0  0  0  0  0  0
   18.7540   18.1766   25.2012 H   0  0  0  0  0  0  0  0  0  0  0  0
   17.8756   16.6838   24.8647 H   0  0  0  0  0  0  0  0  0  0  0  0
   18.8126   16.1714   22.3901 N   0  3  0  0  0  0  0  0  0  0  0  0
   18.0397   16.5767   21.8555 H   0  0  0  0  0  0  0  0  0  0  0  0
   19.5165   15.8511   21.7188 H   0  0  0  0  0  0  0  0  0  0  0  0
   18.4505   15.3421   22.8693 H   0  0  0  0  0  0  0  0  0  0  0  0
  1  2  1  0  0  0  0
  1  3  1  0  0  0  0
  1  4  1  0  0  0  0
  1  5  1  0  0  0  0
  5  6  1  0  0  0  0
  5  7  1  0  0  0  0
  5  8  1  0  0  0  0
  8  9  1  0  0  0  0
  8 10  1  0  0  0  0
  8 11  1  0  0  0  0
 11 12  1  0  0  0  0
 11 13  1  0  0  0  0
 11 14  1  0  0  0  0
 14 15  1  0  0  0  0
 14 16  1  0  0  0  0
 14 17  1  0  0  0  0
 17 18  1  0  0  0  0
 17 19  1  0  0  0  0
 19 20  1  0  0  0  0
 19 21  1  0  0  0  0
 19 22  1  0  0  0  0
 17 23  1  0  0  0  0
 23 24  1  0  0  0  0
 23 25  1  0  0  0  0
 23 26  1  0  0  0  0
M  END
> <VConfSearch Rank>
216

> <Conf_Id>
80

> <Delta U+W>
3.351

> <U+W>
-26.948

> <U>
27.261

> <W>
-54.209

> <W(PB)>
-56.471

> <W(SA)>
2.263

> <Valence>
6.230

> <Coulomb>
19.945

> <VdW>
1.087

> <VdW6>
-8.618

> <VdW12>
9.704

> <Bond>
0.277

> <Angle>
1.928

> <Pdih>
4.025

> <Idih>
0.000

> <Tether>
0.000

$$$$
VeraChem MOL file


 26 25  0  0  0  0  0  0  0  0999 V2000     
   21.1709   20.3830   25.6700 C   0  0  0  0  0  0  0  0  0  0  0  0
   21.4600   21.3906   25.9958 H   0  0  0  0  0  0  0  0  0  0  0  0
   21.1557   19.7347   26.5557 H   0  0  0  0  0  0  0  0  0  0  0  0
   21.9515   20.0201   24.9898 H   0  0  0  0  0  0  0  0  0  0  0  0
   19.7889   20.4133   24.9794 C   0  0  0  0  0  0  0  0  0  0  0  0
   19.8371   21.0454   24.0834 H   0  0  0  0  0  0  0  0  0  0  0  0
   19.0709   20.9051   25.6504 H   0  0  0  0  0  0  0  0  0  0  0  0
   19.2406   19.0071   24.6223 C   0  0  0  0  0  0  0  0  0  0  0  0
   19.0563   18.4607   25.5574 H   0  0  0  0  0  0  0  0  0  0  0  0
   18.2562   19.1252   24.1552 H   0  0  0  0  0  0  0  0  0  0  0  0
   20.1603   18.1324   23.7239 C   0  0  0  0  0  0  0  0  0  0  0  0
   19.7095   17.1379   23.6023 H   0  0  0  0  0  0  0  0  0  0  0  0
   21.1001   17.9528   24.2625 H   0  0  0  0  0  0  0  0  0  0  0  0
   20.4968   18.7186   22.3239 C   0  0  0  0  0  0  0  0  0  0  0  0
   20.5457   19.8127   22.3554 H   0  0  0  0  0  0  0  0  0  0  0  0
   21.5121   18.3890   22.0668 H   0  0  0  0  0  0  0  0  0  0  0  0
   19.5641   18.2617   21.1762 C   0  0  1  0  0  0  0  0  0  0  0  0
   19.5902   17.1686   21.1301 H   0  0  0  0  0  0  0  0  0  0  0  0
   18.1036   18.6974   21.3791 C   0  0  0  0  0  0  0  0  0  0  0  0
   17.6487   18.1605   22.2188 H   0  0  0  0  0  0  0  0  0  0  0  0
   17.5033   18.4675   20.4903 H   0  0  0  0  0  0  0  0  0  0  0  0
   18.0318   19.7754   21.5701 H   0  0  0  0  0  0  0  0  0  0  0  0
   20.0706   18.7506   19.8473 N   0  3  0  0  0  0  0  0  0  0  0  0
   21.0270   18.4321   19.6674 H   0  0  0  0  0  0  0  0  0  0  0  0
   19.4874   18.4114   19.0771 H   0  0  0  0  0  0  0  0  0  0  0  0
   20.0729   19.7730   19.8010 H   0  0  0  0  0  0  0  0  0  0  0  0
  1  2  1  0  0  0  0
  1  3  1  0  0  0  0
  1  4  1  0  0  0  0
  1  5  1  0  0  0  0
  5  6  1  0  0  0  0
  5  7  1  0  0  0  0
  5  8  1  0  0  0  0
  8  9  1  0  0  0  0
  8 10  1  0  0  0  0
  8 11  1  0  0  0  0
 11 12  1  0  0  0  0
 11 13  1  0  0  0  0
 11 14  1  0  0  0  0
 14 15  1  0  0  0  0
 14 16  1  0  0  0  0
 14 17  1  0  0  0  0
 17 18  1  0  0  0  0
 17 19  1  0  0  0  0
 19 20  1  0  0  0  0
 19 21  1  0  0  0  0
 19 22  1  0  0  0  0
 17 23  1  0  0  0  0
 23 24  1  0  0  0  0
 23 25  1  0  0  0  0
 23 26  1  0  0  0  0
M  END
> <VConfSearch Rank>
217

> <Conf_Id>
136

> <Delta U+W>
4.272

> <U+W>
-26.026

> <U>
28.262

> <W>
-54.288

> <W(PB)>
-56.488

> <W(SA)>
2.200

> <Valence>
7.096

> <Coulomb>
19.990

> <VdW>
1.175

> <VdW6>
-9.404

> <VdW12>
10.580

> <Bond>
0.360

> <Angle>
2.785

> <Pdih>
3.951

> <Idih>
0.000

> <Tether>
0.000

$$$$
VeraChem MOL file


 26 25  0  0  0  0  0  0  0  0999 V2000     
   20.8712   17.1600   24.8745 C   0  0  0  0  0  0  0  0  0  0  0  0
   19.9944   16.9980   24.2354 H   0  0  0  0  0  0  0  0  0  0  0  0
   21.1027   16.2038   25.3614 H   0  0  0  0  0  0  0  0  0  0  0  0
   20.6052   17.8803   25.6588 H   0  0  0  0  0  0  0  0  0  0  0  0
   22.0817   17.6533   24.0521 C   0  0  0  0  0  0  0  0  0  0  0  0
   22.2870   16.9395   23.2422 H   0  0  0  0  0  0  0  0  0  0  0  0
   22.9718   17.6457   24.6967 H   0  0  0  0  0  0  0  0  0  0  0  0
   21.9152   19.0763   23.4603 C   0  0  0  0  0  0  0  0  0  0  0  0
   21.8109   19.8124   24.2693 H   0  0  0  0  0  0  0  0  0  0  0  0
   22.8527   19.3320   22.9472 H   0  0  0  0  0  0  0  0  0  0  0  0
   20.7524   19.2232   22.4444 C   0  0  0  0  0  0  0  0  0  0  0  0
   20.5660   18.2620   21.9456 H   0  0  0  0  0  0  0  0  0  0  0  0
   21.0729   19.9188   21.6575 H   0  0  0  0  0  0  0  0  0  0  0  0
   19.4458   19.7635   23.0818 C   0  0  0  0  0  0  0  0  0  0  0  0
   19.1669   19.1406   23.9390 H   0  0  0  0  0  0  0  0  0  0  0  0
   19.6201   20.7723   23.4789 H   0  0  0  0  0  0  0  0  0  0  0  0
   18.2627   19.7957   22.0902 C   0  0  1  0  0  0  0  0  0  0  0  0
   18.1241   18.7866   21.6898 H   0  0  0  0  0  0  0  0  0  0  0  0
   16.9706   20.2092   22.8128 C   0  0  0  0  0  0  0  0  0  0  0  0
   17.0567   21.2187   23.2338 H   0  0  0  0  0  0  0  0  0  0  0  0
   16.7427   19.5157   23.6318 H   0  0  0  0  0  0  0  0  0  0  0  0
   16.1187   20.1986   22.1217 H   0  0  0  0  0  0  0  0  0  0  0  0
   18.5205   20.6968   20.9133 N   0  3  0  0  0  0  0  0  0  0  0  0
   18.6640   21.6658   21.2094 H   0  0  0  0  0  0  0  0  0  0  0  0
   19.3536   20.4058   20.3949 H   0  0  0  0  0  0  0  0  0  0  0  0
   17.7343   20.6899   20.2574 H   0  0  0  0  0  0  0  0  0  0  0  0
  1  2  1  0  0  0  0
  1  3  1  0  0  0  0
  1  4  1  0  0  0  0
  1  5  1  0  0  0  0
  5  6  1  0  0  0  0
  5  7  1  0  0  0  0
  5  8  1  0  0  0  0
  8  9  1  0  0  0  0
  8 10  1  0  0  0  0
  8 11  1  0  0  0  0
 11 12  1  0  0  0  0
 11 13  1  0  0  0  0
 11 14  1  0  0  0  0
 14 15  1  0  0  0  0
 14 16  1  0  0  0  0
 14 17  1  0  0  0  0
 17 18  1  0  0  0  0
 17 19  1  0  0  0  0
 19 20  1  0  0  0  0
 19 21  1  0  0  0  0
 19 22  1  0  0  0  0
 17 23  1  0  0  0  0
 23 24  1  0  0  0  0
 23 25  1  0  0  0  0
 23 26  1  0  0  0  0
M  END
> <VConfSearch Rank>
218

> <Conf_Id>
124

> <Delta U+W>
3.001

> <U+W>
-27.298

> <U>
26.787

> <W>
-54.085

> <W(PB)>
-56.347

> <W(SA)>
2.262

> <Valence>
5.742

> <Coulomb>
20.023

> <VdW>
1.022

> <VdW6>
-8.392

> <VdW12>
9.414

> <Bond>
0.261

> <Angle>
1.576

> <Pdih>
3.904

> <Idih>
0.000

> <Tether>
0.000

$$$$
VeraChem MOL file


 26 25  0  0  0  0  0  0  0  0999 V2000     
   17.0224   17.7153   23.4055 C   0  0  0  0  0  0  0  0  0  0  0  0
   16.9538   17.1435   24.3400 H   0  0  0  0  0  0  0  0  0  0  0  0
   16.0843   17.5666   22.8552 H   0  0  0  0  0  0  0  0  0  0  0  0
   17.8306   17.2841   22.8049 H   0  0  0  0  0  0  0  0  0  0  0  0
   17.2474   19.2181   23.6935 C   0  0  0  0  0  0  0  0  0  0  0  0
   16.3860   19.5840   24.2697 H   0  0  0  0  0  0  0  0  0  0  0  0
   17.2484   19.7909   22.7557 H   0  0  0  0  0  0  0  0  0  0  0  0
   18.5389   19.5048   24.5022 C   0  0  0  0  0  0  0  0  0  0  0  0
   18.3386   20.3496   25.1757 H   0  0  0  0  0  0  0  0  0  0  0  0
   18.7743   18.6547   25.1572 H   0  0  0  0  0  0  0  0  0  0  0  0
   19.7758   19.8770   23.6444 C   0  0  0  0  0  0  0  0  0  0  0  0
   20.5945   20.1370   24.3278 H   0  0  0  0  0  0  0  0  0  0  0  0
   19.5515   20.7875   23.0730 H   0  0  0  0  0  0  0  0  0  0  0  0
   20.2418   18.7535   22.6809 C   0  0  0  0  0  0  0  0  0  0  0  0
   20.3198   17.8090   23.2350 H   0  0  0  0  0  0  0  0  0  0  0  0
   19.4780   18.5976   21.9092 H   0  0  0  0  0  0  0  0  0  0  0  0
   21.5915   19.0219   21.9741 C   0  0  1  0  0  0  0  0  0  0  0  0
   21.7966   18.1623   21.3284 H   0  0  0  0  0  0  0  0  0  0  0  0
   21.5363   20.2732   21.0804 C   0  0  0  0  0  0  0  0  0  0  0  0
   21.4227   21.1891   21.6726 H   0  0  0  0  0  0  0  0  0  0  0  0
   20.6974   20.2125   20.3761 H   0  0  0  0  0  0  0  0  0  0  0  0
   22.4578   20.3661   20.4928 H   0  0  0  0  0  0  0  0  0  0  0  0
   22.7419   19.0993   22.9402 N   0  3  0  0  0  0  0  0  0  0  0  0
   23.6341   19.2128   22.4509 H   0  0  0  0  0  0  0  0  0  0  0  0
   22.6393   19.8919   23.5784 H   0  0  0  0  0  0  0  0  0  0  0  0
   22.8115   18.2514   23.5099 H   0  0  0  0  0  0  0  0  0  0  0  0
  1  2  1  0  0  0  0
  1  3  1  0  0  0  0
  1  4  1  0  0  0  0
  1  5  1  0  0  0  0
  5  6  1  0  0  0  0
  5  7  1  0  0  0  0
  5  8  1  0  0  0  0
  8  9  1  0  0  0  0
  8 10  1  0  0  0  0
  8 11  1  0  0  0  0
 11 12  1  0  0  0  0
 11 13  1  0  0  0  0
 11 14  1  0  0  0  0
 14 15  1  0  0  0  0
 14 16  1  0  0  0  0
 14 17  1  0  0  0  0
 17 18  1  0  0  0  0
 17 19  1  0  0  0  0
 19 20  1  0  0  0  0
 19 21  1  0  0  0  0
 19 22  1  0  0  0  0
 17 23  1  0  0  0  0
 23 24  1  0  0  0  0
 23 25  1  0  0  0  0
 23 26  1  0  0  0  0
M  END
> <VConfSearch Rank>
219

> <Conf_Id>
105

> <Delta U+W>
3.442

> <U+W>
-26.857

> <U>
27.313

> <W>
-54.169

> <W(PB)>
-56.414

> <W(SA)>
2.245

> <Valence>
6.229

> <Coulomb>
19.943

> <VdW>
1.140

> <VdW6>
-9.001

> <VdW12>
10.140

> <Bond>
0.294

> <Angle>
1.969

> <Pdih>
3.967

> <Idih>
0.000

> <Tether>
0.000

$$$$
VeraChem MOL file


 26 25  0  0  0  0  0  0  0  0999 V2000     
   21.6845   17.9622   20.8541 C   0  0  0  0  0  0  0  0  0  0  0  0
   22.6699   18.4385   20.7693 H   0  0  0  0  0  0  0  0  0  0  0  0
   21.5841   17.2553   20.0203 H   0  0  0  0  0  0  0  0  0  0  0  0
   20.9224   18.7381   20.7236 H   0  0  0  0  0  0  0  0  0  0  0  0
   21.5421   17.2257   22.2066 C   0  0  0  0  0  0  0  0  0  0  0  0
   22.3141   16.4445   22.2483 H   0  0  0  0  0  0  0  0  0  0  0  0
   20.5782   16.7004   22.2560 H   0  0  0  0  0  0  0  0  0  0  0  0
   21.7141   18.1539   23.4367 C   0  0  0  0  0  0  0  0  0  0  0  0
   22.2092   17.5786   24.2313 H   0  0  0  0  0  0  0  0  0  0  0  0
   22.4001   18.9783   23.1981 H   0  0  0  0  0  0  0  0  0  0  0  0
   20.3909   18.7116   24.0219 C   0  0  0  0  0  0  0  0  0  0  0  0
   20.6313   19.2871   24.9266 H   0  0  0  0  0  0  0  0  0  0  0  0
   19.7625   17.8723   24.3486 H   0  0  0  0  0  0  0  0  0  0  0  0
   19.5957   19.6160   23.0483 C   0  0  0  0  0  0  0  0  0  0  0  0
   20.2766   20.3624   22.6182 H   0  0  0  0  0  0  0  0  0  0  0  0
   19.2081   19.0165   22.2152 H   0  0  0  0  0  0  0  0  0  0  0  0
   18.4219   20.3480   23.7338 C   0  0  1  0  0  0  0  0  0  0  0  0
   18.8217   20.9268   24.5722 H   0  0  0  0  0  0  0  0  0  0  0  0
   17.7524   21.3218   22.7510 C   0  0  0  0  0  0  0  0  0  0  0  0
   17.3308   20.7893   21.8893 H   0  0  0  0  0  0  0  0  0  0  0  0
   18.4756   22.0574   22.3776 H   0  0  0  0  0  0  0  0  0  0  0  0
   16.9412   21.8730   23.2425 H   0  0  0  0  0  0  0  0  0  0  0  0
   17.4081   19.3968   24.3089 N   0  3  0  0  0  0  0  0  0  0  0  0
   17.8327   18.7695   24.9972 H   0  0  0  0  0  0  0  0  0  0  0  0
   16.6491   19.8981   24.7790 H   0  0  0  0  0  0  0  0  0  0  0  0
   16.9862   18.8152   23.5802 H   0  0  0  0  0  0  0  0  0  0  0  0
  1  2  1  0  0  0  0
  1  3  1  0  0  0  0
  1  4  1  0  0  0  0
  1  5  1  0  0  0  0
  5  6  1  0  0  0  0
  5  7  1  0  0  0  0
  5  8  1  0  0  0  0
  8  9  1  0  0  0  0
  8 10  1  0  0  0  0
  8 11  1  0  0  0  0
 11 12  1  0  0  0  0
 11 13  1  0  0  0  0
 11 14  1  0  0  0  0
 14 15  1  0  0  0  0
 14 16  1  0  0  0  0
 14 17  1  0  0  0  0
 17 18  1  0  0  0  0
 17 19  1  0  0  0  0
 19 20  1  0  0  0  0
 19 21  1  0  0  0  0
 19 22  1  0  0  0  0
 17 23  1  0  0  0  0
 23 24  1  0  0  0  0
 23 25  1  0  0  0  0
 23 26  1  0  0  0  0
M  END
> <VConfSearch Rank>
220

> <Conf_Id>
107

> <Delta U+W>
2.995

> <U+W>
-27.304

> <U>
26.796

> <W>
-54.100

> <W(PB)>
-56.404

> <W(SA)>
2.304

> <Valence>
5.706

> <Coulomb>
20.107

> <VdW>
0.982

> <VdW6>
-8.396

> <VdW12>
9.378

> <Bond>
0.254

> <Angle>
1.644

> <Pdih>
3.808

> <Idih>
0.000

> <Tether>
0.000

$$$$
VeraChem MOL file


 26 25  0  0  0  0  0  0  0  0999 V2000     
   18.5773   21.9811   25.7425 C   0  0  0  0  0  0  0  0  0  0  0  0
   17.6753   22.3153   25.2134 H   0  0  0  0  0  0  0  0  0  0  0  0
   18.3732   22.0296   26.8201 H   0  0  0  0  0  0  0  0  0  0  0  0
   19.3861   22.6894   25.5205 H   0  0  0  0  0  0  0  0  0  0  0  0
   18.9658   20.5468   25.3255 C   0  0  0  0  0  0  0  0  0  0  0  0
   18.1523   19.8571   25.5907 H   0  0  0  0  0  0  0  0  0  0  0  0
   19.8499   20.2284   25.8956 H   0  0  0  0  0  0  0  0  0  0  0  0
   19.2585   20.4507   23.8117 C   0  0  0  0  0  0  0  0  0  0  0  0
   18.3729   20.7733   23.2469 H   0  0  0  0  0  0  0  0  0  0  0  0
   20.0711   21.1431   23.5512 H   0  0  0  0  0  0  0  0  0  0  0  0
   19.6473   19.0156   23.3900 C   0  0  0  0  0  0  0  0  0  0  0  0
   18.8324   18.3249   23.6478 H   0  0  0  0  0  0  0  0  0  0  0  0
   20.5285   18.6987   23.9635 H   0  0  0  0  0  0  0  0  0  0  0  0
   19.9413   18.9229   21.8728 C   0  0  0  0  0  0  0  0  0  0  0  0
   19.0691   19.2954   21.3191 H   0  0  0  0  0  0  0  0  0  0  0  0
   20.7807   19.5828   21.6160 H   0  0  0  0  0  0  0  0  0  0  0  0
   20.2500   17.4839   21.4053 C   0  0  1  0  0  0  0  0  0  0  0  0
   19.4112   16.8426   21.6932 H   0  0  0  0  0  0  0  0  0  0  0  0
   20.3894   17.4376   19.8752 C   0  0  0  0  0  0  0  0  0  0  0  0
   21.2216   18.0656   19.5331 H   0  0  0  0  0  0  0  0  0  0  0  0
   19.4719   17.7917   19.3891 H   0  0  0  0  0  0  0  0  0  0  0  0
   20.5722   16.4115   19.5328 H   0  0  0  0  0  0  0  0  0  0  0  0
   21.4767   16.9144   22.0642 N   0  3  0  0  0  0  0  0  0  0  0  0
   22.3097   17.4662   21.8428 H   0  0  0  0  0  0  0  0  0  0  0  0
   21.3802   16.8963   23.0829 H   0  0  0  0  0  0  0  0  0  0  0  0
   21.6548   15.9541   21.7568 H   0  0  0  0  0  0  0  0  0  0  0  0
  1  2  1  0  0  0  0
  1  3  1  0  0  0  0
  1  4  1  0  0  0  0
  1  5  1  0  0  0  0
  5  6  1  0  0  0  0
  5  7  1  0  0  0  0
  5  8  1  0  0  0  0
  8  9  1  0  0  0  0
  8 10  1  0  0  0  0
  8 11  1  0  0  0  0
 11 12  1  0  0  0  0
 11 13  1  0  0  0  0
 11 14  1  0  0  0  0
 14 15  1  0  0  0  0
 14 16  1  0  0  0  0
 14 17  1  0  0  0  0
 17 18  1  0  0  0  0
 17 19  1  0  0  0  0
 19 20  1  0  0  0  0
 19 21  1  0  0  0  0
 19 22  1  0  0  0  0
 17 23  1  0  0  0  0
 23 24  1  0  0  0  0
 23 25  1  0  0  0  0
 23 26  1  0  0  0  0
M  END
> <VConfSearch Rank>
221

> <Conf_Id>
122

> <Delta U+W>
0.000

> <U+W>
-30.299

> <U>
23.517

> <W>
-53.816

> <W(PB)>
-56.162

> <W(SA)>
2.346

> <Valence>
2.737

> <Coulomb>
19.862

> <VdW>
0.919

> <VdW6>
-6.793

> <VdW12>
7.712

> <Bond>
0.171

> <Angle>
0.873

> <Pdih>
1.693

> <Idih>
0.000

> <Tether>
0.000

$$$$
VeraChem MOL file


 26 25  0  0  0  0  0  0  0  0999 V2000     
   20.2632   17.0633   26.5675 C   0  0  0  0  0  0  0  0  0  0  0  0
   21.0760   16.6092   27.1491 H   0  0  0  0  0  0  0  0  0  0  0  0
   19.7546   17.7925   27.2117 H   0  0  0  0  0  0  0  0  0  0  0  0
   19.5462   16.2713   26.3151 H   0  0  0  0  0  0  0  0  0  0  0  0
   20.8155   17.7382   25.2941 C   0  0  0  0  0  0  0  0  0  0  0  0
   21.3473   16.9917   24.6876 H   0  0  0  0  0  0  0  0  0  0  0  0
   21.5541   18.5013   25.5770 H   0  0  0  0  0  0  0  0  0  0  0  0
   19.6908   18.3861   24.4563 C   0  0  0  0  0  0  0  0  0  0  0  0
   18.9542   17.6199   24.1775 H   0  0  0  0  0  0  0  0  0  0  0  0
   19.1606   19.1287   25.0685 H   0  0  0  0  0  0  0  0  0  0  0  0
   20.2401   19.0633   23.1802 C   0  0  0  0  0  0  0  0  0  0  0  0
   20.7747   18.3147   22.5809 H   0  0  0  0  0  0  0  0  0  0  0  0
   20.9731   19.8326   23.4601 H   0  0  0  0  0  0  0  0  0  0  0  0
   19.1099   19.7079   22.3403 C   0  0  0  0  0  0  0  0  0  0  0  0
   18.4099   18.9317   22.0035 H   0  0  0  0  0  0  0  0  0  0  0  0
   18.5362   20.3844   22.9876 H   0  0  0  0  0  0  0  0  0  0  0  0
   19.6195   20.5125   21.1226 C   0  0  1  0  0  0  0  0  0  0  0  0
   20.3455   21.2501   21.4783 H   0  0  0  0  0  0  0  0  0  0  0  0
   20.3091   19.6138   20.0803 C   0  0  0  0  0  0  0  0  0  0  0  0
   19.6386   18.8153   19.7389 H   0  0  0  0  0  0  0  0  0  0  0  0
   21.2149   19.1513   20.4888 H   0  0  0  0  0  0  0  0  0  0  0  0
   20.6123   20.2007   19.2045 H   0  0  0  0  0  0  0  0  0  0  0  0
   18.5041   21.2907   20.4816 N   0  3  0  0  0  0  0  0  0  0  0  0
   17.7765   20.6706   20.1162 H   0  0  0  0  0  0  0  0  0  0  0  0
   18.0585   21.9292   21.1467 H   0  0  0  0  0  0  0  0  0  0  0  0
   18.8442   21.8564   19.6988 H   0  0  0  0  0  0  0  0  0  0  0  0
  1  2  1  0  0  0  0
  1  3  1  0  0  0  0
  1  4  1  0  0  0  0
  1  5  1  0  0  0  0
  5  6  1  0  0  0  0
  5  7  1  0  0  0  0
  5  8  1  0  0  0  0
  8  9  1  0  0  0  0
  8 10  1  0  0  0  0
  8 11  1  0  0  0  0
 11 12  1  0  0  0  0
 11 13  1  0  0  0  0
 11 14  1  0  0  0  0
 14 15  1  0  0  0  0
 14 16  1  0  0  0  0
 14 17  1  0  0  0  0
 17 18  1  0  0  0  0
 17 19  1  0  0  0  0
 19 20  1  0  0  0  0
 19 21  1  0  0  0  0
 19 22  1  0  0  0  0
 17 23  1  0  0  0  0
 23 24  1  0  0  0  0
 23 25  1  0  0  0  0
 23 26  1  0  0  0  0
M  END
> <VConfSearch Rank>
222

> <Conf_Id>
54

> <Delta U+W>
0.453

> <U+W>
-29.845

> <U>
23.817

> <W>
-53.663

> <W(PB)>
-56.021

> <W(SA)>
2.358

> <Valence>
3.277

> <Coulomb>
19.492

> <VdW>
1.049

> <VdW6>
-6.949

> <VdW12>
7.998

> <Bond>
0.183

> <Angle>
1.152

> <Pdih>
1.942

> <Idih>
0.000

> <Tether>
0.000

$$$$
VeraChem MOL file


 26 25  0  0  0  0  0  0  0  0999 V2000     
   23.1818   17.8311   23.6827 C   0  0  0  0  0  0  0  0  0  0  0  0
   23.0951   18.1589   24.7268 H   0  0  0  0  0  0  0  0  0  0  0  0
   22.6675   16.8678   23.5807 H   0  0  0  0  0  0  0  0  0  0  0  0
   24.2455   17.6590   23.4731 H   0  0  0  0  0  0  0  0  0  0  0  0
   22.6063   18.8923   22.7170 C   0  0  0  0  0  0  0  0  0  0  0  0
   22.6726   18.5278   21.6823 H   0  0  0  0  0  0  0  0  0  0  0  0
   23.2383   19.7900   22.7670 H   0  0  0  0  0  0  0  0  0  0  0  0
   21.1471   19.2969   23.0392 C   0  0  0  0  0  0  0  0  0  0  0  0
   21.0828   19.6315   24.0838 H   0  0  0  0  0  0  0  0  0  0  0  0
   20.8989   20.1595   22.4095 H   0  0  0  0  0  0  0  0  0  0  0  0
   20.1222   18.1637   22.7813 C   0  0  0  0  0  0  0  0  0  0  0  0
   20.4416   17.2577   23.3114 H   0  0  0  0  0  0  0  0  0  0  0  0
   20.1229   17.9072   21.7129 H   0  0  0  0  0  0  0  0  0  0  0  0
   18.6723   18.4802   23.2346 C   0  0  0  0  0  0  0  0  0  0  0  0
   18.0838   17.5644   23.0890 H   0  0  0  0  0  0  0  0  0  0  0  0
   18.6484   18.6815   24.3137 H   0  0  0  0  0  0  0  0  0  0  0  0
   17.9865   19.6355   22.4668 C   0  0  1  0  0  0  0  0  0  0  0  0
   18.2869   19.5783   21.4160 H   0  0  0  0  0  0  0  0  0  0  0  0
   16.4570   19.4930   22.5382 C   0  0  0  0  0  0  0  0  0  0  0  0
   15.9649   20.3010   21.9828 H   0  0  0  0  0  0  0  0  0  0  0  0
   16.1033   19.5266   23.5763 H   0  0  0  0  0  0  0  0  0  0  0  0
   16.1317   18.5428   22.0965 H   0  0  0  0  0  0  0  0  0  0  0  0
   18.3915   20.9936   22.9724 N   0  3  0  0  0  0  0  0  0  0  0  0
   19.4046   21.1233   22.9298 H   0  0  0  0  0  0  0  0  0  0  0  0
   17.9609   21.7413   22.4209 H   0  0  0  0  0  0  0  0  0  0  0  0
   18.1047   21.1283   23.9455 H   0  0  0  0  0  0  0  0  0  0  0  0
  1  2  1  0  0  0  0
  1  3  1  0  0  0  0
  1  4  1  0  0  0  0
  1  5  1  0  0  0  0
  5  6  1  0  0  0  0
  5  7  1  0  0  0  0
  5  8  1  0  0  0  0
  8  9  1  0  0  0  0
  8 10  1  0  0  0  0
  8 11  1  0  0  0  0
 11 12  1  0  0  0  0
 11 13  1  0  0  0  0
 11 14  1  0  0  0  0
 14 15  1  0  0  0  0
 14 16  1  0  0  0  0
 14 17  1  0  0  0  0
 17 18  1  0  0  0  0
 17 19  1  0  0  0  0
 19 20  1  0  0  0  0
 19 21  1  0  0  0  0
 19 22  1  0  0  0  0
 17 23  1  0  0  0  0
 23 24  1  0  0  0  0
 23 25  1  0  0  0  0
 23 26  1  0  0  0  0
M  END
> <VConfSearch Rank>
223

> <Conf_Id>
110

> <Delta U+W>
3.764

> <U+W>
-26.535

> <U>
27.400

> <W>
-53.935

> <W(PB)>
-56.238

> <W(SA)>
2.303

> <Valence>
5.205

> <Coulomb>
21.096

> <VdW>
1.098

> <VdW6>
-8.389

> <VdW12>
9.488

> <Bond>
0.270

> <Angle>
1.912

> <Pdih>
3.023

> <Idih>
0.000

> <Tether>
0.000

$$$$
VeraChem MOL file


 26 25  0  0  0  0  0  0  0  0999 V2000     
   21.5674   22.2385   23.9501 C   0  0  0  0  0  0  0  0  0  0  0  0
   22.2102   22.7679   24.6653 H   0  0  0  0  0  0  0  0  0  0  0  0
   22.2148   21.8337   23.1623 H   0  0  0  0  0  0  0  0  0  0  0  0
   20.8920   22.9754   23.4964 H   0  0  0  0  0  0  0  0  0  0  0  0
   20.7727   21.1204   24.6621 C   0  0  0  0  0  0  0  0  0  0  0  0
   20.2366   21.5563   25.5168 H   0  0  0  0  0  0  0  0  0  0  0  0
   21.4697   20.3814   25.0812 H   0  0  0  0  0  0  0  0  0  0  0  0
   19.7490   20.4111   23.7431 C   0  0  0  0  0  0  0  0  0  0  0  0
   19.1571   19.7201   24.3552 H   0  0  0  0  0  0  0  0  0  0  0  0
   19.0386   21.1513   23.3497 H   0  0  0  0  0  0  0  0  0  0  0  0
   20.4061   19.6477   22.5643 C   0  0  0  0  0  0  0  0  0  0  0  0
   21.2157   19.0004   22.9288 H   0  0  0  0  0  0  0  0  0  0  0  0
   20.8795   20.3795   21.8964 H   0  0  0  0  0  0  0  0  0  0  0  0
   19.3942   18.8172   21.7308 C   0  0  0  0  0  0  0  0  0  0  0  0
   18.3917   19.2606   21.7961 H   0  0  0  0  0  0  0  0  0  0  0  0
   19.6866   18.8947   20.6752 H   0  0  0  0  0  0  0  0  0  0  0  0
   19.3387   17.3123   22.0886 C   0  0  1  0  0  0  0  0  0  0  0  0
   20.3442   16.8974   21.9681 H   0  0  0  0  0  0  0  0  0  0  0  0
   18.8864   17.0585   23.5365 C   0  0  0  0  0  0  0  0  0  0  0  0
   17.9156   17.5281   23.7381 H   0  0  0  0  0  0  0  0  0  0  0  0
   19.6189   17.4497   24.2520 H   0  0  0  0  0  0  0  0  0  0  0  0
   18.7906   15.9828   23.7289 H   0  0  0  0  0  0  0  0  0  0  0  0
   18.4559   16.5625   21.1298 N   0  3  0  0  0  0  0  0  0  0  0  0
   18.7678   16.6767   20.1611 H   0  0  0  0  0  0  0  0  0  0  0  0
   18.4523   15.5586   21.3315 H   0  0  0  0  0  0  0  0  0  0  0  0
   17.4868   16.8874   21.1811 H   0  0  0  0  0  0  0  0  0  0  0  0
  1  2  1  0  0  0  0
  1  3  1  0  0  0  0
  1  4  1  0  0  0  0
  1  5  1  0  0  0  0
  5  6  1  0  0  0  0
  5  7  1  0  0  0  0
  5  8  1  0  0  0  0
  8  9  1  0  0  0  0
  8 10  1  0  0  0  0
  8 11  1  0  0  0  0
 11 12  1  0  0  0  0
 11 13  1  0  0  0  0
 11 14  1  0  0  0  0
 14 15  1  0  0  0  0
 14 16  1  0  0  0  0
 14 17  1  0  0  0  0
 17 18  1  0  0  0  0
 17 19  1  0  0  0  0
 19 20  1  0  0  0  0
 19 21  1  0  0  0  0
 19 22  1  0  0  0  0
 17 23  1  0  0  0  0
 23 24  1  0  0  0  0
 23 25  1  0  0  0  0
 23 26  1  0  0  0  0
M  END
> <VConfSearch Rank>
224

> <Conf_Id>
34

> <Delta U+W>
3.568

> <U+W>
-26.731

> <U>
27.221

> <W>
-53.952

> <W(PB)>
-56.213

> <W(SA)>
2.261

> <Valence>
6.368

> <Coulomb>
19.698

> <VdW>
1.155

> <VdW6>
-8.532

> <VdW12>
9.687

> <Bond>
0.272

> <Angle>
1.847

> <Pdih>
4.248

> <Idih>
0.000

> <Tether>
0.000

$$$$
VeraChem MOL file


 26 25  0  0  0  0  0  0  0  0999 V2000     
   23.0340   21.5026   23.7321 C   0  0  0  0  0  0  0  0  0  0  0  0
   22.4875   22.4035   24.0403 H   0  0  0  0  0  0  0  0  0  0  0  0
   23.3886   20.9916   24.6367 H   0  0  0  0  0  0  0  0  0  0  0  0
   23.9139   21.8219   23.1586 H   0  0  0  0  0  0  0  0  0  0  0  0
   22.1390   20.5735   22.8849 C   0  0  0  0  0  0  0  0  0  0  0  0
   22.7223   19.6992   22.5636 H   0  0  0  0  0  0  0  0  0  0  0  0
   21.8282   21.1003   21.9717 H   0  0  0  0  0  0  0  0  0  0  0  0
   20.8919   20.1091   23.6695 C   0  0  0  0  0  0  0  0  0  0  0  0
   21.2082   19.5856   24.5823 H   0  0  0  0  0  0  0  0  0  0  0  0
   20.3138   20.9867   23.9906 H   0  0  0  0  0  0  0  0  0  0  0  0
   19.9927   19.1786   22.8244 C   0  0  0  0  0  0  0  0  0  0  0  0
   20.5771   18.3054   22.5056 H   0  0  0  0  0  0  0  0  0  0  0  0
   19.6864   19.7091   21.9132 H   0  0  0  0  0  0  0  0  0  0  0  0
   18.7413   18.7186   23.6169 C   0  0  0  0  0  0  0  0  0  0  0  0
   19.0625   18.2341   24.5483 H   0  0  0  0  0  0  0  0  0  0  0  0
   18.1597   19.5993   23.9200 H   0  0  0  0  0  0  0  0  0  0  0  0
   17.8093   17.7455   22.8566 C   0  0  1  0  0  0  0  0  0  0  0  0
   16.9926   17.4811   23.5355 H   0  0  0  0  0  0  0  0  0  0  0  0
   17.1850   18.3969   21.6102 C   0  0  0  0  0  0  0  0  0  0  0  0
   17.9374   18.6026   20.8396 H   0  0  0  0  0  0  0  0  0  0  0  0
   16.6910   19.3414   21.8698 H   0  0  0  0  0  0  0  0  0  0  0  0
   16.4281   17.7358   21.1707 H   0  0  0  0  0  0  0  0  0  0  0  0
   18.4928   16.4528   22.5041 N   0  3  0  0  0  0  0  0  0  0  0  0
   17.8452   15.7967   22.0585 H   0  0  0  0  0  0  0  0  0  0  0  0
   19.2681   16.6071   21.8549 H   0  0  0  0  0  0  0  0  0  0  0  0
   18.8730   15.9902   23.3347 H   0  0  0  0  0  0  0  0  0  0  0  0
  1  2  1  0  0  0  0
  1  3  1  0  0  0  0
  1  4  1  0  0  0  0
  1  5  1  0  0  0  0
  5  6  1  0  0  0  0
  5  7  1  0  0  0  0
  5  8  1  0  0  0  0
  8  9  1  0  0  0  0
  8 10  1  0  0  0  0
  8 11  1  0  0  0  0
 11 12  1  0  0  0  0
 11 13  1  0  0  0  0
 11 14  1  0  0  0  0
 14 15  1  0  0  0  0
 14 16  1  0  0  0  0
 14 17  1  0  0  0  0
 17 18  1  0  0  0  0
 17 19  1  0  0  0  0
 19 20  1  0  0  0  0
 19 21  1  0  0  0  0
 19 22  1  0  0  0  0
 17 23  1  0  0  0  0
 23 24  1  0  0  0  0
 23 25  1  0  0  0  0
 23 26  1  0  0  0  0
M  END
> <VConfSearch Rank>
225

> <Conf_Id>
132

> <Delta U+W>
0.363

> <U+W>
-29.936

> <U>
24.060

> <W>
-53.996

> <W(PB)>
-56.327

> <W(SA)>
2.332

> <Valence>
3.249

> <Coulomb>
19.781

> <VdW>
1.030

> <VdW6>
-7.421

> <VdW12>
8.451

> <Bond>
0.207

> <Angle>
1.205

> <Pdih>
1.837

> <Idih>
0.000

> <Tether>
0.000

$$$$
VeraChem MOL file


 26 25  0  0  0  0  0  0  0  0999 V2000     
   23.6527   18.1674   22.8403 C   0  0  0  0  0  0  0  0  0  0  0  0
   24.4507   18.7466   23.3228 H   0  0  0  0  0  0  0  0  0  0  0  0
   23.7506   17.1235   23.1657 H   0  0  0  0  0  0  0  0  0  0  0  0
   23.8178   18.2045   21.7556 H   0  0  0  0  0  0  0  0  0  0  0  0
   22.2664   18.7367   23.2098 C   0  0  0  0  0  0  0  0  0  0  0  0
   22.2233   19.7910   22.9065 H   0  0  0  0  0  0  0  0  0  0  0  0
   22.1426   18.7132   24.3015 H   0  0  0  0  0  0  0  0  0  0  0  0
   21.1249   17.9383   22.5368 C   0  0  0  0  0  0  0  0  0  0  0  0
   21.2176   18.0080   21.4442 H   0  0  0  0  0  0  0  0  0  0  0  0
   21.2394   16.8746   22.7877 H   0  0  0  0  0  0  0  0  0  0  0  0
   19.7088   18.3929   22.9687 C   0  0  0  0  0  0  0  0  0  0  0  0
   19.6220   18.3138   24.0604 H   0  0  0  0  0  0  0  0  0  0  0  0
   18.9846   17.6839   22.5475 H   0  0  0  0  0  0  0  0  0  0  0  0
   19.3559   19.8332   22.5060 C   0  0  0  0  0  0  0  0  0  0  0  0
   20.0600   20.5461   22.9520 H   0  0  0  0  0  0  0  0  0  0  0  0
   19.4937   19.9103   21.4195 H   0  0  0  0  0  0  0  0  0  0  0  0
   17.9231   20.2977   22.8601 C   0  0  1  0  0  0  0  0  0  0  0  0
   17.8287   21.3369   22.5301 H   0  0  0  0  0  0  0  0  0  0  0  0
   16.8479   19.4792   22.1238 C   0  0  0  0  0  0  0  0  0  0  0  0
   16.8113   18.4426   22.4785 H   0  0  0  0  0  0  0  0  0  0  0  0
   17.0384   19.4671   21.0435 H   0  0  0  0  0  0  0  0  0  0  0  0
   15.8563   19.9210   22.2810 H   0  0  0  0  0  0  0  0  0  0  0  0
   17.6725   20.3071   24.3430 N   0  3  0  0  0  0  0  0  0  0  0  0
   18.3565   20.8881   24.8360 H   0  0  0  0  0  0  0  0  0  0  0  0
   16.7430   20.6758   24.5631 H   0  0  0  0  0  0  0  0  0  0  0  0
   17.7292   19.3640   24.7352 H   0  0  0  0  0  0  0  0  0  0  0  0
  1  2  1  0  0  0  0
  1  3  1  0  0  0  0
  1  4  1  0  0  0  0
  1  5  1  0  0  0  0
  5  6  1  0  0  0  0
  5  7  1  0  0  0  0
  5  8  1  0  0  0  0
  8  9  1  0  0  0  0
  8 10  1  0  0  0  0
  8 11  1  0  0  0  0
 11 12  1  0  0  0  0
 11 13  1  0  0  0  0
 11 14  1  0  0  0  0
 14 15  1  0  0  0  0
 14 16  1  0  0  0  0
 14 17  1  0  0  0  0
 17 18  1  0  0  0  0
 17 19  1  0  0  0  0
 19 20  1  0  0  0  0
 19 21  1  0  0  0  0
 19 22  1  0  0  0  0
 17 23  1  0  0  0  0
 23 24  1  0  0  0  0
 23 25  1  0  0  0  0
 23 26  1  0  0  0  0
M  END
> <VConfSearch Rank>
226

> <Conf_Id>
46

> <Delta U+W>
1.114

> <U+W>
-29.185

> <U>
24.990

> <W>
-54.175

> <W(PB)>
-56.455

> <W(SA)>
2.279

> <Valence>
3.862

> <Coulomb>
19.956

> <VdW>
1.172

> <VdW6>
-8.054

> <VdW12>
9.226

> <Bond>
0.258

> <Angle>
1.499

> <Pdih>
2.106

> <Idih>
0.000

> <Tether>
0.000

$$$$
VeraChem MOL file


 26 25  0  0  0  0  0  0  0  0999 V2000     
   20.0166   22.7230   22.2294 C   0  0  0  0  0  0  0  0  0  0  0  0
   19.0967   22.6823   22.8256 H   0  0  0  0  0  0  0  0  0  0  0  0
   20.8547   22.9429   22.9033 H   0  0  0  0  0  0  0  0  0  0  0  0
   19.9187   23.5637   21.5304 H   0  0  0  0  0  0  0  0  0  0  0  0
   20.2541   21.4044   21.4586 C   0  0  0  0  0  0  0  0  0  0  0  0
   21.1098   21.5406   20.7826 H   0  0  0  0  0  0  0  0  0  0  0  0
   19.3877   21.1894   20.8177 H   0  0  0  0  0  0  0  0  0  0  0  0
   20.5385   20.1933   22.3796 C   0  0  0  0  0  0  0  0  0  0  0  0
   20.8203   19.3429   21.7450 H   0  0  0  0  0  0  0  0  0  0  0  0
   21.4111   20.4105   23.0109 H   0  0  0  0  0  0  0  0  0  0  0  0
   19.3332   19.8011   23.2716 C   0  0  0  0  0  0  0  0  0  0  0  0
   18.4520   19.6115   22.6446 H   0  0  0  0  0  0  0  0  0  0  0  0
   19.0681   20.6458   23.9205 H   0  0  0  0  0  0  0  0  0  0  0  0
   19.6160   18.5739   24.1762 C   0  0  0  0  0  0  0  0  0  0  0  0
   20.4430   18.8196   24.8556 H   0  0  0  0  0  0  0  0  0  0  0  0
   18.7406   18.3912   24.8135 H   0  0  0  0  0  0  0  0  0  0  0  0
   19.9644   17.2800   23.4064 C   0  0  1  0  0  0  0  0  0  0  0  0
   20.8526   17.4694   22.7966 H   0  0  0  0  0  0  0  0  0  0  0  0
   20.2933   16.1452   24.3894 C   0  0  0  0  0  0  0  0  0  0  0  0
   20.5804   15.2346   23.8493 H   0  0  0  0  0  0  0  0  0  0  0  0
   19.4312   15.9080   25.0253 H   0  0  0  0  0  0  0  0  0  0  0  0
   21.1314   16.4243   25.0402 H   0  0  0  0  0  0  0  0  0  0  0  0
   18.8713   16.8623   22.4613 N   0  3  0  0  0  0  0  0  0  0  0  0
   18.6710   17.5968   21.7772 H   0  0  0  0  0  0  0  0  0  0  0  0
   19.1277   16.0186   21.9408 H   0  0  0  0  0  0  0  0  0  0  0  0
   18.0018   16.6614   22.9622 H   0  0  0  0  0  0  0  0  0  0  0  0
  1  2  1  0  0  0  0
  1  3  1  0  0  0  0
  1  4  1  0  0  0  0
  1  5  1  0  0  0  0
  5  6  1  0  0  0  0
  5  7  1  0  0  0  0
  5  8  1  0  0  0  0
  8  9  1  0  0  0  0
  8 10  1  0  0  0  0
  8 11  1  0  0  0  0
 11 12  1  0  0  0  0
 11 13  1  0  0  0  0
 11 14  1  0  0  0  0
 14 15  1  0  0  0  0
 14 16  1  0  0  0  0
 14 17  1  0  0  0  0
 17 18  1  0  0  0  0
 17 19  1  0  0  0  0
 19 20  1  0  0  0  0
 19 21  1  0  0  0  0
 19 22  1  0  0  0  0
 17 23  1  0  0  0  0
 23 24  1  0  0  0  0
 23 25  1  0  0  0  0
 23 26  1  0  0  0  0
M  END
> <VConfSearch Rank>
227

> <Conf_Id>
113

> <Delta U+W>
1.137

> <U+W>
-29.162

> <U>
24.833

> <W>
-53.995

> <W(PB)>
-56.288

> <W(SA)>
2.294

> <Valence>
3.589

> <Coulomb>
20.270

> <VdW>
0.974

> <VdW6>
-8.255

> <VdW12>
9.229

> <Bond>
0.244

> <Angle>
1.377

> <Pdih>
1.967

> <Idih>
0.000

> <Tether>
0.000

$$$$
VeraChem MOL file


 26 25  0  0  0  0  0  0  0  0999 V2000     
   19.0389   15.7557   21.0895 C   0  0  0  0  0  0  0  0  0  0  0  0
   18.1011   15.5335   20.5639 H   0  0  0  0  0  0  0  0  0  0  0  0
   19.8458   15.7759   20.3454 H   0  0  0  0  0  0  0  0  0  0  0  0
   19.2373   14.9314   21.7869 H   0  0  0  0  0  0  0  0  0  0  0  0
   18.9393   17.1030   21.8359 C   0  0  0  0  0  0  0  0  0  0  0  0
   18.1060   17.0622   22.5512 H   0  0  0  0  0  0  0  0  0  0  0  0
   18.6999   17.8935   21.1123 H   0  0  0  0  0  0  0  0  0  0  0  0
   20.2523   17.4400   22.5814 C   0  0  0  0  0  0  0  0  0  0  0  0
   20.5143   16.5997   23.2392 H   0  0  0  0  0  0  0  0  0  0  0  0
   21.0750   17.5332   21.8591 H   0  0  0  0  0  0  0  0  0  0  0  0
   20.1657   18.7260   23.4398 C   0  0  0  0  0  0  0  0  0  0  0  0
   21.0946   18.8131   24.0183 H   0  0  0  0  0  0  0  0  0  0  0  0
   19.3540   18.6147   24.1708 H   0  0  0  0  0  0  0  0  0  0  0  0
   19.9551   20.0145   22.5984 C   0  0  0  0  0  0  0  0  0  0  0  0
   20.7108   20.0547   21.8031 H   0  0  0  0  0  0  0  0  0  0  0  0
   18.9830   19.9703   22.0917 H   0  0  0  0  0  0  0  0  0  0  0  0
   20.0210   21.3338   23.4038 C   0  0  1  0  0  0  0  0  0  0  0  0
   19.8676   22.1544   22.6961 H   0  0  0  0  0  0  0  0  0  0  0  0
   18.9089   21.4194   24.4637 C   0  0  0  0  0  0  0  0  0  0  0  0
   19.0516   20.6809   25.2616 H   0  0  0  0  0  0  0  0  0  0  0  0
   17.9243   21.2501   24.0104 H   0  0  0  0  0  0  0  0  0  0  0  0
   18.8954   22.4139   24.9262 H   0  0  0  0  0  0  0  0  0  0  0  0
   21.3731   21.5648   24.0211 N   0  3  0  0  0  0  0  0  0  0  0  0
   22.1152   21.5519   23.3157 H   0  0  0  0  0  0  0  0  0  0  0  0
   21.4180   22.4712   24.4951 H   0  0  0  0  0  0  0  0  0  0  0  0
   21.5938   20.8454   24.7139 H   0  0  0  0  0  0  0  0  0  0  0  0
  1  2  1  0  0  0  0
  1  3  1  0  0  0  0
  1  4  1  0  0  0  0
  1  5  1  0  0  0  0
  5  6  1  0  0  0  0
  5  7  1  0  0  0  0
  5  8  1  0  0  0  0
  8  9  1  0  0  0  0
  8 10  1  0  0  0  0
  8 11  1  0  0  0  0
 11 12  1  0  0  0  0
 11 13  1  0  0  0  0
 11 14  1  0  0  0  0
 14 15  1  0  0  0  0
 14 16  1  0  0  0  0
 14 17  1  0  0  0  0
 17 18  1  0  0  0  0
 17 19  1  0  0  0  0
 19 20  1  0  0  0  0
 19 21  1  0  0  0  0
 19 22  1  0  0  0  0
 17 23  1  0  0  0  0
 23 24  1  0  0  0  0
 23 25  1  0  0  0  0
 23 26  1  0  0  0  0
M  END
> <VConfSearch Rank>
228

> <Conf_Id>
45

> <Delta U+W>
1.035

> <U+W>
-29.264

> <U>
24.725

> <W>
-53.989

> <W(PB)>
-56.298

> <W(SA)>
2.309

> <Valence>
3.780

> <Coulomb>
19.804

> <VdW>
1.141

> <VdW6>
-8.104

> <VdW12>
9.246

> <Bond>
0.254

> <Angle>
1.437

> <Pdih>
2.089

> <Idih>
0.000

> <Tether>
0.000

$$$$
VeraChem MOL file


 26 25  0  0  0  0  0  0  0  0999 V2000     
   20.8421   18.1292   26.6554 C   0  0  0  0  0  0  0  0  0  0  0  0
   20.1801   18.2327   27.5250 H   0  0  0  0  0  0  0  0  0  0  0  0
   21.2940   17.1294   26.6936 H   0  0  0  0  0  0  0  0  0  0  0  0
   21.6451   18.8715   26.7528 H   0  0  0  0  0  0  0  0  0  0  0  0
   20.0546   18.3332   25.3437 C   0  0  0  0  0  0  0  0  0  0  0  0
   19.5848   19.3254   25.3625 H   0  0  0  0  0  0  0  0  0  0  0  0
   19.2416   17.5959   25.2890 H   0  0  0  0  0  0  0  0  0  0  0  0
   20.9690   18.1963   24.1032 C   0  0  0  0  0  0  0  0  0  0  0  0
   21.7483   18.9703   24.1297 H   0  0  0  0  0  0  0  0  0  0  0  0
   21.4923   17.2313   24.1525 H   0  0  0  0  0  0  0  0  0  0  0  0
   20.2077   18.2711   22.7565 C   0  0  0  0  0  0  0  0  0  0  0  0
   19.4300   17.4953   22.7309 H   0  0  0  0  0  0  0  0  0  0  0  0
   20.9152   18.0262   21.9536 H   0  0  0  0  0  0  0  0  0  0  0  0
   19.5716   19.6582   22.4811 C   0  0  0  0  0  0  0  0  0  0  0  0
   18.8479   19.8890   23.2724 H   0  0  0  0  0  0  0  0  0  0  0  0
   20.3446   20.4369   22.5245 H   0  0  0  0  0  0  0  0  0  0  0  0
   18.8420   19.7268   21.1216 C   0  0  1  0  0  0  0  0  0  0  0  0
   18.1030   18.9202   21.0880 H   0  0  0  0  0  0  0  0  0  0  0  0
   18.1007   21.0660   20.9801 C   0  0  0  0  0  0  0  0  0  0  0  0
   18.7995   21.9115   21.0075 H   0  0  0  0  0  0  0  0  0  0  0  0
   17.3738   21.1972   21.7913 H   0  0  0  0  0  0  0  0  0  0  0  0
   17.5511   21.1074   20.0317 H   0  0  0  0  0  0  0  0  0  0  0  0
   19.7694   19.5139   19.9561 N   0  3  0  0  0  0  0  0  0  0  0  0
   20.2361   18.6047   20.0098 H   0  0  0  0  0  0  0  0  0  0  0  0
   19.2648   19.5461   19.0658 H   0  0  0  0  0  0  0  0  0  0  0  0
   20.4971   20.2327   19.9218 H   0  0  0  0  0  0  0  0  0  0  0  0
  1  2  1  0  0  0  0
  1  3  1  0  0  0  0
  1  4  1  0  0  0  0
  1  5  1  0  0  0  0
  5  6  1  0  0  0  0
  5  7  1  0  0  0  0
  5  8  1  0  0  0  0
  8  9  1  0  0  0  0
  8 10  1  0  0  0  0
  8 11  1  0  0  0  0
 11 12  1  0  0  0  0
 11 13  1  0  0  0  0
 11 14  1  0  0  0  0
 14 15  1  0  0  0  0
 14 16  1  0  0  0  0
 14 17  1  0  0  0  0
 17 18  1  0  0  0  0
 17 19  1  0  0  0  0
 19 20  1  0  0  0  0
 19 21  1  0  0  0  0
 19 22  1  0  0  0  0
 17 23  1  0  0  0  0
 23 24  1  0  0  0  0
 23 25  1  0  0  0  0
 23 26  1  0  0  0  0
M  END
> <VConfSearch Rank>
229

> <Conf_Id>
121

> <Delta U+W>
0.736

> <U+W>
-29.562

> <U>
24.282

> <W>
-53.844

> <W(PB)>
-56.205

> <W(SA)>
2.361

> <Valence>
3.311

> <Coulomb>
19.887

> <VdW>
1.083

> <VdW6>
-7.444

> <VdW12>
8.527

> <Bond>
0.219

> <Angle>
1.167

> <Pdih>
1.926

> <Idih>
0.000

> <Tether>
0.000

$$$$
VeraChem MOL file


 26 25  0  0  0  0  0  0  0  0999 V2000     
   17.9631   18.3324   19.8979 C   0  0  0  0  0  0  0  0  0  0  0  0
   17.1877   18.5597   19.1548 H   0  0  0  0  0  0  0  0  0  0  0  0
   18.8126   17.8812   19.3688 H   0  0  0  0  0  0  0  0  0  0  0  0
   17.5497   17.5850   20.5862 H   0  0  0  0  0  0  0  0  0  0  0  0
   18.3909   19.6174   20.6427 C   0  0  0  0  0  0  0  0  0  0  0  0
   17.5328   20.0303   21.1912 H   0  0  0  0  0  0  0  0  0  0  0  0
   18.6752   20.3767   19.9008 H   0  0  0  0  0  0  0  0  0  0  0  0
   19.5784   19.4032   21.6121 C   0  0  0  0  0  0  0  0  0  0  0  0
   20.4360   18.9983   21.0572 H   0  0  0  0  0  0  0  0  0  0  0  0
   19.8897   20.3859   21.9898 H   0  0  0  0  0  0  0  0  0  0  0  0
   19.2404   18.4727   22.8046 C   0  0  0  0  0  0  0  0  0  0  0  0
   18.9440   17.4858   22.4266 H   0  0  0  0  0  0  0  0  0  0  0  0
   18.3686   18.8628   23.3462 H   0  0  0  0  0  0  0  0  0  0  0  0
   20.4291   18.2727   23.7805 C   0  0  0  0  0  0  0  0  0  0  0  0
   20.1224   17.5832   24.5781 H   0  0  0  0  0  0  0  0  0  0  0  0
   21.2405   17.7690   23.2387 H   0  0  0  0  0  0  0  0  0  0  0  0
   20.9872   19.5685   24.4155 C   0  0  1  0  0  0  0  0  0  0  0  0
   21.3003   20.2408   23.6114 H   0  0  0  0  0  0  0  0  0  0  0  0
   19.9345   20.2928   25.2734 C   0  0  0  0  0  0  0  0  0  0  0  0
   19.5461   19.6370   26.0624 H   0  0  0  0  0  0  0  0  0  0  0  0
   19.0902   20.6337   24.6629 H   0  0  0  0  0  0  0  0  0  0  0  0
   20.3686   21.1798   25.7509 H   0  0  0  0  0  0  0  0  0  0  0  0
   22.2189   19.2856   25.2300 N   0  3  0  0  0  0  0  0  0  0  0  0
   22.9499   18.8413   24.6671 H   0  0  0  0  0  0  0  0  0  0  0  0
   22.6156   20.1453   25.6198 H   0  0  0  0  0  0  0  0  0  0  0  0
   22.0136   18.6614   26.0147 H   0  0  0  0  0  0  0  0  0  0  0  0
  1  2  1  0  0  0  0
  1  3  1  0  0  0  0
  1  4  1  0  0  0  0
  1  5  1  0  0  0  0
  5  6  1  0  0  0  0
  5  7  1  0  0  0  0
  5  8  1  0  0  0  0
  8  9  1  0  0  0  0
  8 10  1  0  0  0  0
  8 11  1  0  0  0  0
 11 12  1  0  0  0  0
 11 13  1  0  0  0  0
 11 14  1  0  0  0  0
 14 15  1  0  0  0  0
 14 16  1  0  0  0  0
 14 17  1  0  0  0  0
 17 18  1  0  0  0  0
 17 19  1  0  0  0  0
 19 20  1  0  0  0  0
 19 21  1  0  0  0  0
 19 22  1  0  0  0  0
 17 23  1  0  0  0  0
 23 24  1  0  0  0  0
 23 25  1  0  0  0  0
 23 26  1  0  0  0  0
M  END
> <VConfSearch Rank>
230

> <Conf_Id>
5

> <Delta U+W>
1.233

> <U+W>
-29.065

> <U>
25.023

> <W>
-54.088

> <W(PB)>
-56.383

> <W(SA)>
2.296

> <Valence>
4.083

> <Coulomb>
19.893

> <VdW>
1.047

> <VdW6>
-8.479

> <VdW12>
9.527

> <Bond>
0.256

> <Angle>
1.716

> <Pdih>
2.112

> <Idih>
0.000

> <Tether>
0.000

$$$$
VeraChem MOL file


 26 25  0  0  0  0  0  0  0  0999 V2000     
   21.2211   20.6546   19.9094 C   0  0  0  0  0  0  0  0  0  0  0  0
   21.9438   21.2784   19.3676 H   0  0  0  0  0  0  0  0  0  0  0  0
   21.4720   19.6069   19.7031 H   0  0  0  0  0  0  0  0  0  0  0  0
   20.2252   20.8586   19.4952 H   0  0  0  0  0  0  0  0  0  0  0  0
   21.2680   20.9648   21.4230 C   0  0  0  0  0  0  0  0  0  0  0  0
   21.1387   22.0470   21.5642 H   0  0  0  0  0  0  0  0  0  0  0  0
   22.2628   20.7201   21.8208 H   0  0  0  0  0  0  0  0  0  0  0  0
   20.1802   20.2260   22.2397 C   0  0  0  0  0  0  0  0  0  0  0  0
   20.2060   20.6167   23.2652 H   0  0  0  0  0  0  0  0  0  0  0  0
   19.1887   20.4703   21.8345 H   0  0  0  0  0  0  0  0  0  0  0  0
   20.3705   18.6889   22.2721 C   0  0  0  0  0  0  0  0  0  0  0  0
   21.3519   18.4512   22.7053 H   0  0  0  0  0  0  0  0  0  0  0  0
   20.3841   18.2988   21.2463 H   0  0  0  0  0  0  0  0  0  0  0  0
   19.2673   17.9323   23.0550 C   0  0  0  0  0  0  0  0  0  0  0  0
   18.2910   18.0930   22.5784 H   0  0  0  0  0  0  0  0  0  0  0  0
   19.4710   16.8581   22.9541 H   0  0  0  0  0  0  0  0  0  0  0  0
   19.2034   18.2991   24.5577 C   0  0  1  0  0  0  0  0  0  0  0  0
   20.1465   18.7821   24.8315 H   0  0  0  0  0  0  0  0  0  0  0  0
   18.0466   19.2705   24.8551 C   0  0  0  0  0  0  0  0  0  0  0  0
   17.0758   18.8044   24.6449 H   0  0  0  0  0  0  0  0  0  0  0  0
   18.1204   20.1810   24.2501 H   0  0  0  0  0  0  0  0  0  0  0  0
   18.0565   19.5717   25.9098 H   0  0  0  0  0  0  0  0  0  0  0  0
   19.0897   17.0790   25.4303 N   0  3  0  0  0  0  0  0  0  0  0  0
   19.8749   16.4377   25.2853 H   0  0  0  0  0  0  0  0  0  0  0  0
   19.0805   17.3288   26.4233 H   0  0  0  0  0  0  0  0  0  0  0  0
   18.2285   16.5602   25.2382 H   0  0  0  0  0  0  0  0  0  0  0  0
  1  2  1  0  0  0  0
  1  3  1  0  0  0  0
  1  4  1  0  0  0  0
  1  5  1  0  0  0  0
  5  6  1  0  0  0  0
  5  7  1  0  0  0  0
  5  8  1  0  0  0  0
  8  9  1  0  0  0  0
  8 10  1  0  0  0  0
  8 11  1  0  0  0  0
 11 12  1  0  0  0  0
 11 13  1  0  0  0  0
 11 14  1  0  0  0  0
 14 15  1  0  0  0  0
 14 16  1  0  0  0  0
 14 17  1  0  0  0  0
 17 18  1  0  0  0  0
 17 19  1  0  0  0  0
 19 20  1  0  0  0  0
 19 21  1  0  0  0  0
 19 22  1  0  0  0  0
 17 23  1  0  0  0  0
 23 24  1  0  0  0  0
 23 25  1  0  0  0  0
 23 26  1  0  0  0  0
M  END
> <VConfSearch Rank>
231

> <Conf_Id>
100

> <Delta U+W>
3.818

> <U+W>
-26.481

> <U>
27.496

> <W>
-53.977

> <W(PB)>
-56.267

> <W(SA)>
2.290

> <Valence>
6.472

> <Coulomb>
19.839

> <VdW>
1.185

> <VdW6>
-8.405

> <VdW12>
9.590

> <Bond>
0.248

> <Angle>
1.619

> <Pdih>
4.604

> <Idih>
0.000

> <Tether>
0.000

$$$$
VeraChem MOL file


 26 25  0  0  0  0  0  0  0  0999 V2000     
   21.6602   17.2740   25.6042 C   0  0  0  0  0  0  0  0  0  0  0  0
   21.8005   16.2598   26.0003 H   0  0  0  0  0  0  0  0  0  0  0  0
   22.5467   17.5288   25.0089 H   0  0  0  0  0  0  0  0  0  0  0  0
   21.6104   17.9645   26.4562 H   0  0  0  0  0  0  0  0  0  0  0  0
   20.3768   17.3529   24.7504 C   0  0  0  0  0  0  0  0  0  0  0  0
   19.5129   17.0593   25.3631 H   0  0  0  0  0  0  0  0  0  0  0  0
   20.4423   16.6282   23.9267 H   0  0  0  0  0  0  0  0  0  0  0  0
   20.1551   18.7714   24.1805 C   0  0  0  0  0  0  0  0  0  0  0  0
   20.0915   19.4898   25.0095 H   0  0  0  0  0  0  0  0  0  0  0  0
   21.0283   19.0594   23.5835 H   0  0  0  0  0  0  0  0  0  0  0  0
   18.8639   18.8528   23.3294 C   0  0  0  0  0  0  0  0  0  0  0  0
   18.0159   18.5799   23.9727 H   0  0  0  0  0  0  0  0  0  0  0  0
   18.8885   18.1010   22.5300 H   0  0  0  0  0  0  0  0  0  0  0  0
   18.5947   20.2673   22.7438 C   0  0  0  0  0  0  0  0  0  0  0  0
   17.5105   20.4405   22.7470 H   0  0  0  0  0  0  0  0  0  0  0  0
   19.0108   21.0336   23.4111 H   0  0  0  0  0  0  0  0  0  0  0  0
   19.0990   20.5144   21.3001 C   0  0  1  0  0  0  0  0  0  0  0  0
   18.8445   21.5476   21.0442 H   0  0  0  0  0  0  0  0  0  0  0  0
   20.6232   20.3681   21.1644 C   0  0  0  0  0  0  0  0  0  0  0  0
   20.9391   19.3252   21.2854 H   0  0  0  0  0  0  0  0  0  0  0  0
   21.1425   20.9801   21.9121 H   0  0  0  0  0  0  0  0  0  0  0  0
   20.9530   20.7033   20.1734 H   0  0  0  0  0  0  0  0  0  0  0  0
   18.3872   19.6535   20.2925 N   0  3  0  0  0  0  0  0  0  0  0  0
   17.3726   19.7847   20.3361 H   0  0  0  0  0  0  0  0  0  0  0  0
   18.6826   19.8740   19.3372 H   0  0  0  0  0  0  0  0  0  0  0  0
   18.5761   18.6608   20.4504 H   0  0  0  0  0  0  0  0  0  0  0  0
  1  2  1  0  0  0  0
  1  3  1  0  0  0  0
  1  4  1  0  0  0  0
  1  5  1  0  0  0  0
  5  6  1  0  0  0  0
  5  7  1  0  0  0  0
  5  8  1  0  0  0  0
  8  9  1  0  0  0  0
  8 10  1  0  0  0  0
  8 11  1  0  0  0  0
 11 12  1  0  0  0  0
 11 13  1  0  0  0  0
 11 14  1  0  0  0  0
 14 15  1  0  0  0  0
 14 16  1  0  0  0  0
 14 17  1  0  0  0  0
 17 18  1  0  0  0  0
 17 19  1  0  0  0  0
 19 20  1  0  0  0  0
 19 21  1  0  0  0  0
 19 22  1  0  0  0  0
 17 23  1  0  0  0  0
 23 24  1  0  0  0  0
 23 25  1  0  0  0  0
 23 26  1  0  0  0  0
M  END
> <VConfSearch Rank>
232

> <Conf_Id>
142

> <Delta U+W>
2.978

> <U+W>
-27.320

> <U>
26.848

> <W>
-54.168

> <W(PB)>
-56.427

> <W(SA)>
2.259

> <Valence>
5.823

> <Coulomb>
20.057

> <VdW>
0.968

> <VdW6>
-8.367

> <VdW12>
9.335

> <Bond>
0.267

> <Angle>
1.799

> <Pdih>
3.758

> <Idih>
0.000

> <Tether>
0.000

$$$$
VeraChem MOL file


 26 25  0  0  0  0  0  0  0  0999 V2000     
   21.2504   20.0655   19.8742 C   0  0  0  0  0  0  0  0  0  0  0  0
   21.2723   21.1341   20.1246 H   0  0  0  0  0  0  0  0  0  0  0  0
   21.9728   19.8961   19.0653 H   0  0  0  0  0  0  0  0  0  0  0  0
   20.2553   19.8243   19.4811 H   0  0  0  0  0  0  0  0  0  0  0  0
   21.6047   19.1988   21.1042 C   0  0  0  0  0  0  0  0  0  0  0  0
   22.6535   19.3857   21.3740 H   0  0  0  0  0  0  0  0  0  0  0  0
   21.5412   18.1342   20.8389 H   0  0  0  0  0  0  0  0  0  0  0  0
   20.7181   19.4856   22.3405 C   0  0  0  0  0  0  0  0  0  0  0  0
   21.1492   18.9413   23.1886 H   0  0  0  0  0  0  0  0  0  0  0  0
   20.7689   20.5551   22.5872 H   0  0  0  0  0  0  0  0  0  0  0  0
   19.2410   19.0563   22.1527 C   0  0  0  0  0  0  0  0  0  0  0  0
   19.1915   17.9746   21.9701 H   0  0  0  0  0  0  0  0  0  0  0  0
   18.8418   19.5282   21.2462 H   0  0  0  0  0  0  0  0  0  0  0  0
   18.2974   19.4433   23.3266 C   0  0  0  0  0  0  0  0  0  0  0  0
   18.2639   20.5367   23.4192 H   0  0  0  0  0  0  0  0  0  0  0  0
   17.2788   19.1449   23.0457 H   0  0  0  0  0  0  0  0  0  0  0  0
   18.5935   18.8292   24.7190 C   0  0  1  0  0  0  0  0  0  0  0  0
   17.7121   19.0184   25.3395 H   0  0  0  0  0  0  0  0  0  0  0  0
   18.7927   17.3046   24.6606 C   0  0  0  0  0  0  0  0  0  0  0  0
   19.7139   17.0363   24.1299 H   0  0  0  0  0  0  0  0  0  0  0  0
   17.9491   16.8219   24.1518 H   0  0  0  0  0  0  0  0  0  0  0  0
   18.8545   16.8863   25.6726 H   0  0  0  0  0  0  0  0  0  0  0  0
   19.7309   19.5048   25.4350 N   0  3  0  0  0  0  0  0  0  0  0  0
   19.5642   20.5098   25.5379 H   0  0  0  0  0  0  0  0  0  0  0  0
   19.8613   19.1199   26.3748 H   0  0  0  0  0  0  0  0  0  0  0  0
   20.6113   19.3888   24.9296 H   0  0  0  0  0  0  0  0  0  0  0  0
  1  2  1  0  0  0  0
  1  3  1  0  0  0  0
  1  4  1  0  0  0  0
  1  5  1  0  0  0  0
  5  6  1  0  0  0  0
  5  7  1  0  0  0  0
  5  8  1  0  0  0  0
  8  9  1  0  0  0  0
  8 10  1  0  0  0  0
  8 11  1  0  0  0  0
 11 12  1  0  0  0  0
 11 13  1  0  0  0  0
 11 14  1  0  0  0  0
 14 15  1  0  0  0  0
 14 16  1  0  0  0  0
 14 17  1  0  0  0  0
 17 18  1  0  0  0  0
 17 19  1  0  0  0  0
 19 20  1  0  0  0  0
 19 21  1  0  0  0  0
 19 22  1  0  0  0  0
 17 23  1  0  0  0  0
 23 24  1  0  0  0  0
 23 25  1  0  0  0  0
 23 26  1  0  0  0  0
M  END
> <VConfSearch Rank>
233

> <Conf_Id>
119

> <Delta U+W>
3.538

> <U+W>
-26.761

> <U>
27.482

> <W>
-54.243

> <W(PB)>
-56.494

> <W(SA)>
2.251

> <Valence>
5.284

> <Coulomb>
21.247

> <VdW>
0.951

> <VdW6>
-9.416

> <VdW12>
10.367

> <Bond>
0.323

> <Angle>
2.522

> <Pdih>
2.439

> <Idih>
0.000

> <Tether>
0.000

$$$$
VeraChem MOL file


 26 25  0  0  0  0  0  0  0  0999 V2000     
   18.7104   16.3798   20.9984 C   0  0  0  0  0  0  0  0  0  0  0  0
   18.2112   16.8742   20.1549 H   0  0  0  0  0  0  0  0  0  0  0  0
   19.7934   16.4171   20.8276 H   0  0  0  0  0  0  0  0  0  0  0  0
   18.4120   15.3235   20.9927 H   0  0  0  0  0  0  0  0  0  0  0  0
   18.3238   17.0435   22.3396 C   0  0  0  0  0  0  0  0  0  0  0  0
   18.8597   16.5514   23.1632 H   0  0  0  0  0  0  0  0  0  0  0  0
   17.2539   16.8723   22.5237 H   0  0  0  0  0  0  0  0  0  0  0  0
   18.5958   18.5668   22.3749 C   0  0  0  0  0  0  0  0  0  0  0  0
   18.0359   19.0556   21.5658 H   0  0  0  0  0  0  0  0  0  0  0  0
   18.1874   18.9666   23.3105 H   0  0  0  0  0  0  0  0  0  0  0  0
   20.0993   18.9264   22.2552 C   0  0  0  0  0  0  0  0  0  0  0  0
   20.4508   18.6195   21.2613 H   0  0  0  0  0  0  0  0  0  0  0  0
   20.6866   18.3442   22.9767 H   0  0  0  0  0  0  0  0  0  0  0  0
   20.3844   20.4461   22.4148 C   0  0  0  0  0  0  0  0  0  0  0  0
   21.1940   20.7194   21.7253 H   0  0  0  0  0  0  0  0  0  0  0  0
   19.5139   21.0267   22.0818 H   0  0  0  0  0  0  0  0  0  0  0  0
   20.8037   20.9135   23.8309 C   0  0  1  0  0  0  0  0  0  0  0  0
   20.9569   21.9960   23.7797 H   0  0  0  0  0  0  0  0  0  0  0  0
   19.7233   20.6501   24.8923 C   0  0  0  0  0  0  0  0  0  0  0  0
   19.5936   19.5770   25.0762 H   0  0  0  0  0  0  0  0  0  0  0  0
   18.7592   21.0703   24.5801 H   0  0  0  0  0  0  0  0  0  0  0  0
   19.9982   21.1213   25.8439 H   0  0  0  0  0  0  0  0  0  0  0  0
   22.1241   20.3307   24.2555 N   0  3  0  0  0  0  0  0  0  0  0  0
   22.8643   20.5475   23.5821 H   0  0  0  0  0  0  0  0  0  0  0  0
   22.4204   20.6987   25.1639 H   0  0  0  0  0  0  0  0  0  0  0  0
   22.0725   19.3126   24.3389 H   0  0  0  0  0  0  0  0  0  0  0  0
  1  2  1  0  0  0  0
  1  3  1  0  0  0  0
  1  4  1  0  0  0  0
  1  5  1  0  0  0  0
  5  6  1  0  0  0  0
  5  7  1  0  0  0  0
  5  8  1  0  0  0  0
  8  9  1  0  0  0  0
  8 10  1  0  0  0  0
  8 11  1  0  0  0  0
 11 12  1  0  0  0  0
 11 13  1  0  0  0  0
 11 14  1  0  0  0  0
 14 15  1  0  0  0  0
 14 16  1  0  0  0  0
 14 17  1  0  0  0  0
 17 18  1  0  0  0  0
 17 19  1  0  0  0  0
 19 20  1  0  0  0  0
 19 21  1  0  0  0  0
 19 22  1  0  0  0  0
 17 23  1  0  0  0  0
 23 24  1  0  0  0  0
 23 25  1  0  0  0  0
 23 26  1  0  0  0  0
M  END
> <VConfSearch Rank>
234

> <Conf_Id>
127

> <Delta U+W>
3.544

> <U+W>
-26.754

> <U>
27.509

> <W>
-54.263

> <W(PB)>
-56.496

> <W(SA)>
2.232

> <Valence>
6.375

> <Coulomb>
20.014

> <VdW>
1.120

> <VdW6>
-8.976

> <VdW12>
10.096

> <Bond>
0.304

> <Angle>
1.986

> <Pdih>
4.086

> <Idih>
0.000

> <Tether>
0.000

$$$$
VeraChem MOL file


 26 25  0  0  0  0  0  0  0  0999 V2000     
   19.6965   18.9233   26.1651 C   0  0  0  0  0  0  0  0  0  0  0  0
   19.1583   19.4180   26.9840 H   0  0  0  0  0  0  0  0  0  0  0  0
   20.3836   18.1931   26.6120 H   0  0  0  0  0  0  0  0  0  0  0  0
   20.2983   19.6842   25.6561 H   0  0  0  0  0  0  0  0  0  0  0  0
   18.7017   18.2289   25.2059 C   0  0  0  0  0  0  0  0  0  0  0  0
   17.9711   18.9544   24.8218 H   0  0  0  0  0  0  0  0  0  0  0  0
   18.1234   17.4987   25.7892 H   0  0  0  0  0  0  0  0  0  0  0  0
   19.3939   17.4872   24.0333 C   0  0  0  0  0  0  0  0  0  0  0  0
   20.3950   17.1496   24.3349 H   0  0  0  0  0  0  0  0  0  0  0  0
   18.8240   16.5710   23.8253 H   0  0  0  0  0  0  0  0  0  0  0  0
   19.4787   18.2930   22.7111 C   0  0  0  0  0  0  0  0  0  0  0  0
   18.4619   18.5291   22.3705 H   0  0  0  0  0  0  0  0  0  0  0  0
   19.9140   17.6355   21.9480 H   0  0  0  0  0  0  0  0  0  0  0  0
   20.3140   19.5969   22.8150 C   0  0  0  0  0  0  0  0  0  0  0  0
   19.8178   20.2881   23.5069 H   0  0  0  0  0  0  0  0  0  0  0  0
   21.2940   19.3697   23.2547 H   0  0  0  0  0  0  0  0  0  0  0  0
   20.5276   20.3430   21.4765 C   0  0  1  0  0  0  0  0  0  0  0  0
   21.0577   21.2727   21.7053 H   0  0  0  0  0  0  0  0  0  0  0  0
   21.4035   19.5416   20.4973 C   0  0  0  0  0  0  0  0  0  0  0  0
   22.3445   19.2391   20.9733 H   0  0  0  0  0  0  0  0  0  0  0  0
   21.6559   20.1524   19.6219 H   0  0  0  0  0  0  0  0  0  0  0  0
   20.8939   18.6396   20.1387 H   0  0  0  0  0  0  0  0  0  0  0  0
   19.2310   20.7502   20.8320 N   0  3  0  0  0  0  0  0  0  0  0  0
   18.6631   21.3249   21.4609 H   0  0  0  0  0  0  0  0  0  0  0  0
   19.3915   21.2955   19.9804 H   0  0  0  0  0  0  0  0  0  0  0  0
   18.6730   19.9330   20.5725 H   0  0  0  0  0  0  0  0  0  0  0  0
  1  2  1  0  0  0  0
  1  3  1  0  0  0  0
  1  4  1  0  0  0  0
  1  5  1  0  0  0  0
  5  6  1  0  0  0  0
  5  7  1  0  0  0  0
  5  8  1  0  0  0  0
  8  9  1  0  0  0  0
  8 10  1  0  0  0  0
  8 11  1  0  0  0  0
 11 12  1  0  0  0  0
 11 13  1  0  0  0  0
 11 14  1  0  0  0  0
 14 15  1  0  0  0  0
 14 16  1  0  0  0  0
 14 17  1  0  0  0  0
 17 18  1  0  0  0  0
 17 19  1  0  0  0  0
 19 20  1  0  0  0  0
 19 21  1  0  0  0  0
 19 22  1  0  0  0  0
 17 23  1  0  0  0  0
 23 24  1  0  0  0  0
 23 25  1  0  0  0  0
 23 26  1  0  0  0  0
M  END
> <VConfSearch Rank>
235

> <Conf_Id>
131

> <Delta U+W>
3.589

> <U+W>
-26.710

> <U>
27.573

> <W>
-54.283

> <W(PB)>
-56.537

> <W(SA)>
2.254

> <Valence>
6.363

> <Coulomb>
20.026

> <VdW>
1.184

> <VdW6>
-8.939

> <VdW12>
10.123

> <Bond>
0.298

> <Angle>
2.018

> <Pdih>
4.047

> <Idih>
0.000

> <Tether>
0.000

$$$$
VeraChem MOL file


 26 25  0  0  0  0  0  0  0  0999 V2000     
   21.3906   21.2744   22.2447 C   0  0  0  0  0  0  0  0  0  0  0  0
   21.5203   20.7452   21.2918 H   0  0  0  0  0  0  0  0  0  0  0  0
   20.3212   21.3051   22.4865 H   0  0  0  0  0  0  0  0  0  0  0  0
   21.7232   22.3106   22.1016 H   0  0  0  0  0  0  0  0  0  0  0  0
   22.2010   20.5992   23.3725 C   0  0  0  0  0  0  0  0  0  0  0  0
   21.9926   21.1070   24.3246 H   0  0  0  0  0  0  0  0  0  0  0  0
   23.2716   20.7501   23.1757 H   0  0  0  0  0  0  0  0  0  0  0  0
   21.9397   19.0789   23.5262 C   0  0  0  0  0  0  0  0  0  0  0  0
   22.2518   18.5489   22.6159 H   0  0  0  0  0  0  0  0  0  0  0  0
   22.6000   18.7100   24.3234 H   0  0  0  0  0  0  0  0  0  0  0  0
   20.4805   18.7049   23.8967 C   0  0  0  0  0  0  0  0  0  0  0  0
   20.0324   19.5170   24.4834 H   0  0  0  0  0  0  0  0  0  0  0  0
   20.5046   17.8278   24.5582 H   0  0  0  0  0  0  0  0  0  0  0  0
   19.6030   18.3547   22.6658 C   0  0  0  0  0  0  0  0  0  0  0  0
   19.5313   19.2100   21.9848 H   0  0  0  0  0  0  0  0  0  0  0  0
   20.1019   17.5552   22.1023 H   0  0  0  0  0  0  0  0  0  0  0  0
   18.1812   17.8744   23.0356 C   0  0  1  0  0  0  0  0  0  0  0  0
   18.2715   17.0560   23.7566 H   0  0  0  0  0  0  0  0  0  0  0  0
   17.3391   18.9952   23.6717 C   0  0  0  0  0  0  0  0  0  0  0  0
   17.2720   19.8664   23.0083 H   0  0  0  0  0  0  0  0  0  0  0  0
   17.7654   19.3226   24.6267 H   0  0  0  0  0  0  0  0  0  0  0  0
   16.3201   18.6441   23.8757 H   0  0  0  0  0  0  0  0  0  0  0  0
   17.4708   17.3074   21.8377 N   0  3  0  0  0  0  0  0  0  0  0  0
   17.3418   18.0145   21.1092 H   0  0  0  0  0  0  0  0  0  0  0  0
   17.9922   16.5297   21.4229 H   0  0  0  0  0  0  0  0  0  0  0  0
   16.5431   16.9526   22.0865 H   0  0  0  0  0  0  0  0  0  0  0  0
  1  2  1  0  0  0  0
  1  3  1  0  0  0  0
  1  4  1  0  0  0  0
  1  5  1  0  0  0  0
  5  6  1  0  0  0  0
  5  7  1  0  0  0  0
  5  8  1  0  0  0  0
  8  9  1  0  0  0  0
  8 10  1  0  0  0  0
  8 11  1  0  0  0  0
 11 12  1  0  0  0  0
 11 13  1  0  0  0  0
 11 14  1  0  0  0  0
 14 15  1  0  0  0  0
 14 16  1  0  0  0  0
 14 17  1  0  0  0  0
 17 18  1  0  0  0  0
 17 19  1  0  0  0  0
 19 20  1  0  0  0  0
 19 21  1  0  0  0  0
 19 22  1  0  0  0  0
 17 23  1  0  0  0  0
 23 24  1  0  0  0  0
 23 25  1  0  0  0  0
 23 26  1  0  0  0  0
M  END
> <VConfSearch Rank>
236

> <Conf_Id>
80

> <Delta U+W>
3.351

> <U+W>
-26.948

> <U>
27.261

> <W>
-54.209

> <W(PB)>
-56.471

> <W(SA)>
2.263

> <Valence>
6.230

> <Coulomb>
19.945

> <VdW>
1.087

> <VdW6>
-8.618

> <VdW12>
9.704

> <Bond>
0.277

> <Angle>
1.928

> <Pdih>
4.025

> <Idih>
0.000

> <Tether>
0.000

$$$$
VeraChem MOL file


 26 25  0  0  0  0  0  0  0  0999 V2000     
   18.1382   21.8096   23.7152 C   0  0  0  0  0  0  0  0  0  0  0  0
   18.3692   22.7620   24.2094 H   0  0  0  0  0  0  0  0  0  0  0  0
   17.1768   21.9237   23.1978 H   0  0  0  0  0  0  0  0  0  0  0  0
   18.0205   21.0514   24.4995 H   0  0  0  0  0  0  0  0  0  0  0  0
   19.2609   21.4279   22.7242 C   0  0  0  0  0  0  0  0  0  0  0  0
   20.2045   21.2935   23.2685 H   0  0  0  0  0  0  0  0  0  0  0  0
   19.4303   22.2728   22.0421 H   0  0  0  0  0  0  0  0  0  0  0  0
   18.9405   20.1702   21.8751 C   0  0  0  0  0  0  0  0  0  0  0  0
   18.0836   20.4002   21.2271 H   0  0  0  0  0  0  0  0  0  0  0  0
   19.7794   19.9866   21.1942 H   0  0  0  0  0  0  0  0  0  0  0  0
   18.6077   18.8807   22.6780 C   0  0  0  0  0  0  0  0  0  0  0  0
   18.3228   18.0817   21.9797 H   0  0  0  0  0  0  0  0  0  0  0  0
   17.7061   19.0688   23.2756 H   0  0  0  0  0  0  0  0  0  0  0  0
   19.7281   18.3621   23.6227 C   0  0  0  0  0  0  0  0  0  0  0  0
   20.3180   19.1916   24.0282 H   0  0  0  0  0  0  0  0  0  0  0  0
   19.2373   17.9023   24.4906 H   0  0  0  0  0  0  0  0  0  0  0  0
   20.6657   17.2940   23.0095 C   0  0  1  0  0  0  0  0  0  0  0  0
   20.0513   16.4523   22.6754 H   0  0  0  0  0  0  0  0  0  0  0  0
   21.4614   17.8151   21.8014 C   0  0  0  0  0  0  0  0  0  0  0  0
   20.7998   17.9997   20.9479 H   0  0  0  0  0  0  0  0  0  0  0  0
   22.2025   17.0745   21.4766 H   0  0  0  0  0  0  0  0  0  0  0  0
   21.9912   18.7447   22.0437 H   0  0  0  0  0  0  0  0  0  0  0  0
   21.6031   16.7437   24.0487 N   0  3  0  0  0  0  0  0  0  0  0  0
   21.0943   16.3464   24.8435 H   0  0  0  0  0  0  0  0  0  0  0  0
   22.1936   16.0010   23.6639 H   0  0  0  0  0  0  0  0  0  0  0  0
   22.2252   17.4700   24.4134 H   0  0  0  0  0  0  0  0  0  0  0  0
  1  2  1  0  0  0  0
  1  3  1  0  0  0  0
  1  4  1  0  0  0  0
  1  5  1  0  0  0  0
  5  6  1  0  0  0  0
  5  7  1  0  0  0  0
  5  8  1  0  0  0  0
  8  9  1  0  0  0  0
  8 10  1  0  0  0  0
  8 11  1  0  0  0  0
 11 12  1  0  0  0  0
 11 13  1  0  0  0  0
 11 14  1  0  0  0  0
 14 15  1  0  0  0  0
 14 16  1  0  0  0  0
 14 17  1  0  0  0  0
 17 18  1  0  0  0  0
 17 19  1  0  0  0  0
 19 20  1  0  0  0  0
 19 21  1  0  0  0  0
 19 22  1  0  0  0  0
 17 23  1  0  0  0  0
 23 24  1  0  0  0  0
 23 25  1  0  0  0  0
 23 26  1  0  0  0  0
M  END
> <VConfSearch Rank>
237

> <Conf_Id>
136

> <Delta U+W>
4.272

> <U+W>
-26.026

> <U>
28.262

> <W>
-54.288

> <W(PB)>
-56.488

> <W(SA)>
2.200

> <Valence>
7.096

> <Coulomb>
19.990

> <VdW>
1.175

> <VdW6>
-9.404

> <VdW12>
10.580

> <Bond>
0.360

> <Angle>
2.785

> <Pdih>
3.951

> <Idih>
0.000

> <Tether>
0.000

$$$$
VeraChem MOL file


 26 25  0  0  0  0  0  0  0  0999 V2000     
   17.5534   18.4835   21.1675 C   0  0  0  0  0  0  0  0  0  0  0  0
   17.4192   18.9538   22.1494 H   0  0  0  0  0  0  0  0  0  0  0  0
   16.5707   18.4591   20.6790 H   0  0  0  0  0  0  0  0  0  0  0  0
   17.8796   17.4462   21.3171 H   0  0  0  0  0  0  0  0  0  0  0  0
   18.5657   19.2669   20.3035 C   0  0  0  0  0  0  0  0  0  0  0  0
   18.2399   20.3131   20.2194 H   0  0  0  0  0  0  0  0  0  0  0  0
   18.5467   18.8598   19.2829 H   0  0  0  0  0  0  0  0  0  0  0  0
   20.0245   19.2177   20.8255 C   0  0  0  0  0  0  0  0  0  0  0  0
   20.3944   18.1831   20.8168 H   0  0  0  0  0  0  0  0  0  0  0  0
   20.6512   19.7617   20.1052 H   0  0  0  0  0  0  0  0  0  0  0  0
   20.2333   19.8532   22.2248 C   0  0  0  0  0  0  0  0  0  0  0  0
   19.4847   20.6393   22.3957 H   0  0  0  0  0  0  0  0  0  0  0  0
   21.2100   20.3552   22.2291 H   0  0  0  0  0  0  0  0  0  0  0  0
   20.2029   18.8180   23.3793 C   0  0  0  0  0  0  0  0  0  0  0  0
   19.2781   18.2325   23.3273 H   0  0  0  0  0  0  0  0  0  0  0  0
   21.0267   18.1029   23.2539 H   0  0  0  0  0  0  0  0  0  0  0  0
   20.2942   19.4722   24.7749 C   0  0  1  0  0  0  0  0  0  0  0  0
   19.4796   20.1972   24.8672 H   0  0  0  0  0  0  0  0  0  0  0  0
   20.1226   18.4120   25.8746 C   0  0  0  0  0  0  0  0  0  0  0  0
   20.9184   17.6581   25.8270 H   0  0  0  0  0  0  0  0  0  0  0  0
   19.1586   17.8981   25.7739 H   0  0  0  0  0  0  0  0  0  0  0  0
   20.1499   18.8755   26.8685 H   0  0  0  0  0  0  0  0  0  0  0  0
   21.5764   20.2342   24.9722 N   0  3  0  0  0  0  0  0  0  0  0  0
   22.3912   19.6197   24.8972 H   0  0  0  0  0  0  0  0  0  0  0  0
   21.6828   20.9745   24.2736 H   0  0  0  0  0  0  0  0  0  0  0  0
   21.6103   20.6770   25.8948 H   0  0  0  0  0  0  0  0  0  0  0  0
  1  2  1  0  0  0  0
  1  3  1  0  0  0  0
  1  4  1  0  0  0  0
  1  5  1  0  0  0  0
  5  6  1  0  0  0  0
  5  7  1  0  0  0  0
  5  8  1  0  0  0  0
  8  9  1  0  0  0  0
  8 10  1  0  0  0  0
  8 11  1  0  0  0  0
 11 12  1  0  0  0  0
 11 13  1  0  0  0  0
 11 14  1  0  0  0  0
 14 15  1  0  0  0  0
 14 16  1  0  0  0  0
 14 17  1  0  0  0  0
 17 18  1  0  0  0  0
 17 19  1  0  0  0  0
 19 20  1  0  0  0  0
 19 21  1  0  0  0  0
 19 22  1  0  0  0  0
 17 23  1  0  0  0  0
 23 24  1  0  0  0  0
 23 25  1  0  0  0  0
 23 26  1  0  0  0  0
M  END
> <VConfSearch Rank>
238

> <Conf_Id>
124

> <Delta U+W>
3.001

> <U+W>
-27.298

> <U>
26.787

> <W>
-54.085

> <W(PB)>
-56.347

> <W(SA)>
2.262

> <Valence>
5.742

> <Coulomb>
20.023

> <VdW>
1.022

> <VdW6>
-8.392

> <VdW12>
9.414

> <Bond>
0.261

> <Angle>
1.576

> <Pdih>
3.904

> <Idih>
0.000

> <Tether>
0.000

$$$$
VeraChem MOL file


 26 25  0  0  0  0  0  0  0  0999 V2000     
   22.5490   20.8132   22.5693 C   0  0  0  0  0  0  0  0  0  0  0  0
   22.4360   21.8993   22.6817 H   0  0  0  0  0  0  0  0  0  0  0  0
   23.5920   20.6144   22.2909 H   0  0  0  0  0  0  0  0  0  0  0  0
   21.9165   20.4931   21.7342 H   0  0  0  0  0  0  0  0  0  0  0  0
   22.1923   20.0824   23.8848 C   0  0  0  0  0  0  0  0  0  0  0  0
   22.8851   20.4313   24.6634 H   0  0  0  0  0  0  0  0  0  0  0  0
   22.3716   19.0030   23.7831 H   0  0  0  0  0  0  0  0  0  0  0  0
   20.7409   20.3455   24.3629 C   0  0  0  0  0  0  0  0  0  0  0  0
   20.7449   20.3796   25.4612 H   0  0  0  0  0  0  0  0  0  0  0  0
   20.4077   21.3408   24.0381 H   0  0  0  0  0  0  0  0  0  0  0  0
   19.7087   19.2704   23.9348 C   0  0  0  0  0  0  0  0  0  0  0  0
   18.7469   19.5218   24.4003 H   0  0  0  0  0  0  0  0  0  0  0  0
   20.0096   18.3013   24.3547 H   0  0  0  0  0  0  0  0  0  0  0  0
   19.5241   19.1432   22.3994 C   0  0  0  0  0  0  0  0  0  0  0  0
   19.3712   20.1410   21.9680 H   0  0  0  0  0  0  0  0  0  0  0  0
   20.4470   18.7514   21.9543 H   0  0  0  0  0  0  0  0  0  0  0  0
   18.3537   18.2325   21.9589 C   0  0  1  0  0  0  0  0  0  0  0  0
   18.3395   18.2283   20.8645 H   0  0  0  0  0  0  0  0  0  0  0  0
   18.5447   16.7795   22.4279 C   0  0  0  0  0  0  0  0  0  0  0  0
   18.4789   16.6942   23.5191 H   0  0  0  0  0  0  0  0  0  0  0  0
   19.5211   16.3927   22.1107 H   0  0  0  0  0  0  0  0  0  0  0  0
   17.7733   16.1316   21.9938 H   0  0  0  0  0  0  0  0  0  0  0  0
   17.0150   18.7667   22.3893 N   0  3  0  0  0  0  0  0  0  0  0  0
   16.2493   18.1867   22.0348 H   0  0  0  0  0  0  0  0  0  0  0  0
   16.9343   18.7912   23.4086 H   0  0  0  0  0  0  0  0  0  0  0  0
   16.8621   19.7187   22.0448 H   0  0  0  0  0  0  0  0  0  0  0  0
  1  2  1  0  0  0  0
  1  3  1  0  0  0  0
  1  4  1  0  0  0  0
  1  5  1  0  0  0  0
  5  6  1  0  0  0  0
  5  7  1  0  0  0  0
  5  8  1  0  0  0  0
  8  9  1  0  0  0  0
  8 10  1  0  0  0  0
  8 11  1  0  0  0  0
 11 12  1  0  0  0  0
 11 13  1  0  0  0  0
 11 14  1  0  0  0  0
 14 15  1  0  0  0  0
 14 16  1  0  0  0  0
 14 17  1  0  0  0  0
 17 18  1  0  0  0  0
 17 19  1  0  0  0  0
 19 20  1  0  0  0  0
 19 21  1  0  0  0  0
 19 22  1  0  0  0  0
 17 23  1  0  0  0  0
 23 24  1  0  0  0  0
 23 25  1  0  0  0  0
 23 26  1  0  0  0  0
M  END
> <VConfSearch Rank>
239

> <Conf_Id>
105

> <Delta U+W>
3.442

> <U+W>
-26.857

> <U>
27.313

> <W>
-54.169

> <W(PB)>
-56.414

> <W(SA)>
2.245

> <Valence>
6.229

> <Coulomb>
19.943

> <VdW>
1.140

> <VdW6>
-9.001

> <VdW12>
10.140

> <Bond>
0.294

> <Angle>
1.969

> <Pdih>
3.967

> <Idih>
0.000

> <Tether>
0.000

$$$$
VeraChem MOL file


 26 25  0  0  0  0  0  0  0  0999 V2000     
   17.2945   20.8847   22.6536 C   0  0  0  0  0  0  0  0  0  0  0  0
   16.4311   20.4460   22.1367 H   0  0  0  0  0  0  0  0  0  0  0  0
   17.0833   21.9508   22.8075 H   0  0  0  0  0  0  0  0  0  0  0  0
   18.1599   20.8119   21.9861 H   0  0  0  0  0  0  0  0  0  0  0  0
   17.5418   20.1819   24.0089 C   0  0  0  0  0  0  0  0  0  0  0  0
   16.6485   20.3276   24.6324 H   0  0  0  0  0  0  0  0  0  0  0  0
   18.3676   20.6684   24.5464 H   0  0  0  0  0  0  0  0  0  0  0  0
   17.8068   18.6599   23.8765 C   0  0  0  0  0  0  0  0  0  0  0  0
   17.3676   18.1601   24.7510 H   0  0  0  0  0  0  0  0  0  0  0  0
   17.2725   18.2552   23.0060 H   0  0  0  0  0  0  0  0  0  0  0  0
   19.3044   18.2624   23.8170 C   0  0  0  0  0  0  0  0  0  0  0  0
   19.3680   17.1654   23.8015 H   0  0  0  0  0  0  0  0  0  0  0  0
   19.7976   18.5864   24.7432 H   0  0  0  0  0  0  0  0  0  0  0  0
   20.0645   18.8266   22.5914 C   0  0  0  0  0  0  0  0  0  0  0  0
   19.4818   18.6195   21.6841 H   0  0  0  0  0  0  0  0  0  0  0  0
   20.1510   19.9170   22.6761 H   0  0  0  0  0  0  0  0  0  0  0  0
   21.4741   18.2184   22.4285 C   0  0  1  0  0  0  0  0  0  0  0  0
   21.3727   17.1306   22.3632 H   0  0  0  0  0  0  0  0  0  0  0  0
   22.1262   18.7209   21.1306 C   0  0  0  0  0  0  0  0  0  0  0  0
   22.2536   19.8106   21.1461 H   0  0  0  0  0  0  0  0  0  0  0  0
   21.5117   18.4612   20.2596 H   0  0  0  0  0  0  0  0  0  0  0  0
   23.1132   18.2633   20.9894 H   0  0  0  0  0  0  0  0  0  0  0  0
   22.3620   18.5000   23.6099 N   0  3  0  0  0  0  0  0  0  0  0  0
   21.9591   18.1328   24.4761 H   0  0  0  0  0  0  0  0  0  0  0  0
   23.2845   18.0707   23.4954 H   0  0  0  0  0  0  0  0  0  0  0  0
   22.5055   19.5051   23.7380 H   0  0  0  0  0  0  0  0  0  0  0  0
  1  2  1  0  0  0  0
  1  3  1  0  0  0  0
  1  4  1  0  0  0  0
  1  5  1  0  0  0  0
  5  6  1  0  0  0  0
  5  7  1  0  0  0  0
  5  8  1  0  0  0  0
  8  9  1  0  0  0  0
  8 10  1  0  0  0  0
  8 11  1  0  0  0  0
 11 12  1  0  0  0  0
 11 13  1  0  0  0  0
 11 14  1  0  0  0  0
 14 15  1  0  0  0  0
 14 16  1  0  0  0  0
 14 17  1  0  0  0  0
 17 18  1  0  0  0  0
 17 19  1  0  0  0  0
 19 20  1  0  0  0  0
 19 21  1  0  0  0  0
 19 22  1  0  0  0  0
 17 23  1  0  0  0  0
 23 24  1  0  0  0  0
 23 25  1  0  0  0  0
 23 26  1  0  0  0  0
M  END
> <VConfSearch Rank>
240

> <Conf_Id>
107

> <Delta U+W>
2.995

> <U+W>
-27.304

> <U>
26.796

> <W>
-54.100

> <W(PB)>
-56.404

> <W(SA)>
2.304

> <Valence>
5.706

> <Coulomb>
20.107

> <VdW>
0.982

> <VdW6>
-8.396

> <VdW12>
9.378

> <Bond>
0.254

> <Angle>
1.644

> <Pdih>
3.808

> <Idih>
0.000

> <Tether>
0.000

$$$$
VeraChem MOL file


 26 25  0  0  0  0  0  0  0  0999 V2000     
   18.3496   15.6811   24.8303 C   0  0  0  0  0  0  0  0  0  0  0  0
   18.2231   15.0659   23.9299 H   0  0  0  0  0  0  0  0  0  0  0  0
   18.6403   15.0166   25.6543 H   0  0  0  0  0  0  0  0  0  0  0  0
   17.3768   16.1236   25.0815 H   0  0  0  0  0  0  0  0  0  0  0  0
   19.4162   16.7747   24.6098 C   0  0  0  0  0  0  0  0  0  0  0  0
   20.3844   16.3013   24.3942 H   0  0  0  0  0  0  0  0  0  0  0  0
   19.5445   17.3507   25.5370 H   0  0  0  0  0  0  0  0  0  0  0  0
   19.0311   17.7247   23.4542 C   0  0  0  0  0  0  0  0  0  0  0  0
   18.9007   17.1433   22.5309 H   0  0  0  0  0  0  0  0  0  0  0  0
   18.0620   18.1941   23.6736 H   0  0  0  0  0  0  0  0  0  0  0  0
   20.0972   18.8208   23.2298 C   0  0  0  0  0  0  0  0  0  0  0  0
   21.0650   18.3501   23.0070 H   0  0  0  0  0  0  0  0  0  0  0  0
   20.2261   19.3924   24.1585 H   0  0  0  0  0  0  0  0  0  0  0  0
   19.7077   19.7720   22.0721 C   0  0  0  0  0  0  0  0  0  0  0  0
   19.5303   19.1755   21.1673 H   0  0  0  0  0  0  0  0  0  0  0  0
   18.7599   20.2745   22.3070 H   0  0  0  0  0  0  0  0  0  0  0  0
   20.7934   20.8270   21.7673 C   0  0  1  0  0  0  0  0  0  0  0  0
   21.7318   20.3033   21.5603 H   0  0  0  0  0  0  0  0  0  0  0  0
   20.4113   21.6425   20.5217 C   0  0  0  0  0  0  0  0  0  0  0  0
   19.4739   22.1909   20.6782 H   0  0  0  0  0  0  0  0  0  0  0  0
   20.2825   20.9874   19.6511 H   0  0  0  0  0  0  0  0  0  0  0  0
   21.1958   22.3693   20.2776 H   0  0  0  0  0  0  0  0  0  0  0  0
   21.0548   21.7390   22.9349 N   0  3  0  0  0  0  0  0  0  0  0  0
   20.2161   22.2658   23.1925 H   0  0  0  0  0  0  0  0  0  0  0  0
   21.3549   21.2136   23.7603 H   0  0  0  0  0  0  0  0  0  0  0  0
   21.7901   22.4189   22.7213 H   0  0  0  0  0  0  0  0  0  0  0  0
  1  2  1  0  0  0  0
  1  3  1  0  0  0  0
  1  4  1  0  0  0  0
  1  5  1  0  0  0  0
  5  6  1  0  0  0  0
  5  7  1  0  0  0  0
  5  8  1  0  0  0  0
  8  9  1  0  0  0  0
  8 10  1  0  0  0  0
  8 11  1  0  0  0  0
 11 12  1  0  0  0  0
 11 13  1  0  0  0  0
 11 14  1  0  0  0  0
 14 15  1  0  0  0  0
 14 16  1  0  0  0  0
 14 17  1  0  0  0  0
 17 18  1  0  0  0  0
 17 19  1  0  0  0  0
 19 20  1  0  0  0  0
 19 21  1  0  0  0  0
 19 22  1  0  0  0  0
 17 23  1  0  0  0  0
 23 24  1  0  0  0  0
 23 25  1  0  0  0  0
 23 26  1  0  0  0  0
M  END
> <VConfSearch Rank>
241

> <Conf_Id>
122

> <Delta U+W>
0.000

> <U+W>
-30.299

> <U>
23.517

> <W>
-53.816

> <W(PB)>
-56.162

> <W(SA)>
2.346

> <Valence>
2.737

> <Coulomb>
19.862

> <VdW>
0.919

> <VdW6>
-6.793

> <VdW12>
7.712

> <Bond>
0.171

> <Angle>
0.873

> <Pdih>
1.693

> <Idih>
0.000

> <Tether>
0.000

$$$$
VeraChem MOL file


 26 25  0  0  0  0  0  0  0  0999 V2000     
   17.6820   20.5766   19.6272 C   0  0  0  0  0  0  0  0  0  0  0  0
   17.7619   21.3972   18.9024 H   0  0  0  0  0  0  0  0  0  0  0  0
   17.6440   19.6339   19.0659 H   0  0  0  0  0  0  0  0  0  0  0  0
   16.7319   20.6931   20.1647 H   0  0  0  0  0  0  0  0  0  0  0  0
   18.8774   20.5934   20.6034 C   0  0  0  0  0  0  0  0  0  0  0  0
   18.9087   21.5605   21.1245 H   0  0  0  0  0  0  0  0  0  0  0  0
   19.8139   20.5094   20.0343 H   0  0  0  0  0  0  0  0  0  0  0  0
   18.7894   19.4471   21.6352 C   0  0  0  0  0  0  0  0  0  0  0  0
   17.8510   19.5342   22.2002 H   0  0  0  0  0  0  0  0  0  0  0  0
   18.7551   18.4832   21.1087 H   0  0  0  0  0  0  0  0  0  0  0  0
   19.9852   19.4603   22.6145 C   0  0  0  0  0  0  0  0  0  0  0  0
   20.0148   20.4302   23.1282 H   0  0  0  0  0  0  0  0  0  0  0  0
   20.9229   19.3684   22.0491 H   0  0  0  0  0  0  0  0  0  0  0  0
   19.8918   18.3129   23.6503 C   0  0  0  0  0  0  0  0  0  0  0  0
   18.9881   18.4382   24.2615 H   0  0  0  0  0  0  0  0  0  0  0  0
   19.7731   17.3640   23.1106 H   0  0  0  0  0  0  0  0  0  0  0  0
   21.1298   18.2006   24.5694 C   0  0  1  0  0  0  0  0  0  0  0  0
   22.0197   18.1189   23.9377 H   0  0  0  0  0  0  0  0  0  0  0  0
   21.2903   19.4310   25.4803 C   0  0  0  0  0  0  0  0  0  0  0  0
   20.3929   19.5930   26.0904 H   0  0  0  0  0  0  0  0  0  0  0  0
   21.4773   20.3390   24.8955 H   0  0  0  0  0  0  0  0  0  0  0  0
   22.1431   19.3013   26.1580 H   0  0  0  0  0  0  0  0  0  0  0  0
   21.0798   16.9451   25.3953 N   0  3  0  0  0  0  0  0  0  0  0  0
   20.2708   16.9411   26.0222 H   0  0  0  0  0  0  0  0  0  0  0  0
   21.0175   16.1088   24.8075 H   0  0  0  0  0  0  0  0  0  0  0  0
   21.9169   16.8461   25.9766 H   0  0  0  0  0  0  0  0  0  0  0  0
  1  2  1  0  0  0  0
  1  3  1  0  0  0  0
  1  4  1  0  0  0  0
  1  5  1  0  0  0  0
  5  6  1  0  0  0  0
  5  7  1  0  0  0  0
  5  8  1  0  0  0  0
  8  9  1  0  0  0  0
  8 10  1  0  0  0  0
  8 11  1  0  0  0  0
 11 12  1  0  0  0  0
 11 13  1  0  0  0  0
 11 14  1  0  0  0  0
 14 15  1  0  0  0  0
 14 16  1  0  0  0  0
 14 17  1  0  0  0  0
 17 18  1  0  0  0  0
 17 19  1  0  0  0  0
 19 20  1  0  0  0  0
 19 21  1  0  0  0  0
 19 22  1  0  0  0  0
 17 23  1  0  0  0  0
 23 24  1  0  0  0  0
 23 25  1  0  0  0  0
 23 26  1  0  0  0  0
M  END
> <VConfSearch Rank>
242

> <Conf_Id>
54

> <Delta U+W>
0.453

> <U+W>
-29.845

> <U>
23.817

> <W>
-53.663

> <W(PB)>
-56.021

> <W(SA)>
2.358

> <Valence>
3.277

> <Coulomb>
19.492

> <VdW>
1.049

> <VdW6>
-6.949

> <VdW12>
7.998

> <Bond>
0.183

> <Angle>
1.152

> <Pdih>
1.942

> <Idih>
0.000

> <Tether>
0.000

$$$$
VeraChem MOL file


 26 25  0  0  0  0  0  0  0  0999 V2000     
   18.8096   22.3720   21.6597 C   0  0  0  0  0  0  0  0  0  0  0  0
   17.9022   21.9285   21.2295 H   0  0  0  0  0  0  0  0  0  0  0  0
   18.6264   22.5667   22.7233 H   0  0  0  0  0  0  0  0  0  0  0  0
   18.9720   23.3418   21.1717 H   0  0  0  0  0  0  0  0  0  0  0  0
   20.0327   21.4504   21.4489 C   0  0  0  0  0  0  0  0  0  0  0  0
   20.9204   21.8984   21.9170 H   0  0  0  0  0  0  0  0  0  0  0  0
   20.2482   21.3959   20.3726 H   0  0  0  0  0  0  0  0  0  0  0  0
   19.8251   20.0128   21.9845 C   0  0  0  0  0  0  0  0  0  0  0  0
   18.9193   19.5826   21.5352 H   0  0  0  0  0  0  0  0  0  0  0  0
   20.6728   19.4086   21.6403 H   0  0  0  0  0  0  0  0  0  0  0  0
   19.7375   19.9376   23.5298 C   0  0  0  0  0  0  0  0  0  0  0  0
   18.9734   20.6406   23.8847 H   0  0  0  0  0  0  0  0  0  0  0  0
   20.6877   20.2753   23.9660 H   0  0  0  0  0  0  0  0  0  0  0  0
   19.3790   18.5377   24.0952 C   0  0  0  0  0  0  0  0  0  0  0  0
   19.2504   18.6534   25.1798 H   0  0  0  0  0  0  0  0  0  0  0  0
   18.4025   18.2133   23.7122 H   0  0  0  0  0  0  0  0  0  0  0  0
   20.4384   17.4396   23.8377 C   0  0  1  0  0  0  0  0  0  0  0  0
   21.4318   17.8884   23.9340 H   0  0  0  0  0  0  0  0  0  0  0  0
   20.3138   16.3188   24.8831 C   0  0  0  0  0  0  0  0  0  0  0  0
   21.0722   15.5442   24.7150 H   0  0  0  0  0  0  0  0  0  0  0  0
   19.3251   15.8447   24.8407 H   0  0  0  0  0  0  0  0  0  0  0  0
   20.4617   16.7114   25.8969 H   0  0  0  0  0  0  0  0  0  0  0  0
   20.3469   16.8532   22.4550 N   0  3  0  0  0  0  0  0  0  0  0  0
   20.4350   17.5736   21.7350 H   0  0  0  0  0  0  0  0  0  0  0  0
   21.0849   16.1622   22.2925 H   0  0  0  0  0  0  0  0  0  0  0  0
   19.4502   16.3817   22.3102 H   0  0  0  0  0  0  0  0  0  0  0  0
  1  2  1  0  0  0  0
  1  3  1  0  0  0  0
  1  4  1  0  0  0  0
  1  5  1  0  0  0  0
  5  6  1  0  0  0  0
  5  7  1  0  0  0  0
  5  8  1  0  0  0  0
  8  9  1  0  0  0  0
  8 10  1  0  0  0  0
  8 11  1  0  0  0  0
 11 12  1  0  0  0  0
 11 13  1  0  0  0  0
 11 14  1  0  0  0  0
 14 15  1  0  0  0  0
 14 16  1  0  0  0  0
 14 17  1  0  0  0  0
 17 18  1  0  0  0  0
 17 19  1  0  0  0  0
 19 20  1  0  0  0  0
 19 21  1  0  0  0  0
 19 22  1  0  0  0  0
 17 23  1  0  0  0  0
 23 24  1  0  0  0  0
 23 25  1  0  0  0  0
 23 26  1  0  0  0  0
M  END
> <VConfSearch Rank>
243

> <Conf_Id>
110

> <Delta U+W>
3.764

> <U+W>
-26.535

> <U>
27.400

> <W>
-53.935

> <W(PB)>
-56.238

> <W(SA)>
2.303

> <Valence>
5.205

> <Coulomb>
21.096

> <VdW>
1.098

> <VdW6>
-8.389

> <VdW12>
9.488

> <Bond>
0.270

> <Angle>
1.912

> <Pdih>
3.023

> <Idih>
0.000

> <Tether>
0.000

$$$$
VeraChem MOL file


 26 25  0  0  0  0  0  0  0  0999 V2000     
   18.7240   21.3690   25.6796 C   0  0  0  0  0  0  0  0  0  0  0  0
   18.9120   21.8148   26.6649 H   0  0  0  0  0  0  0  0  0  0  0  0
   19.0901   22.0744   24.9234 H   0  0  0  0  0  0  0  0  0  0  0  0
   17.6376   21.2675   25.5589 H   0  0  0  0  0  0  0  0  0  0  0  0
   19.4266   19.9973   25.5637 C   0  0  0  0  0  0  0  0  0  0  0  0
   19.1191   19.3692   26.4115 H   0  0  0  0  0  0  0  0  0  0  0  0
   20.5135   20.1300   25.6580 H   0  0  0  0  0  0  0  0  0  0  0  0
   19.1036   19.2487   24.2481 C   0  0  0  0  0  0  0  0  0  0  0  0
   19.5474   18.2474   24.3033 H   0  0  0  0  0  0  0  0  0  0  0  0
   18.0183   19.0949   24.1735 H   0  0  0  0  0  0  0  0  0  0  0  0
   19.6097   19.9852   22.9810 C   0  0  0  0  0  0  0  0  0  0  0  0
   20.6650   20.2684   23.0963 H   0  0  0  0  0  0  0  0  0  0  0  0
   19.0522   20.9257   22.8791 H   0  0  0  0  0  0  0  0  0  0  0  0
   19.4172   19.1663   21.6769 C   0  0  0  0  0  0  0  0  0  0  0  0
   18.5735   18.4716   21.7840 H   0  0  0  0  0  0  0  0  0  0  0  0
   19.1286   19.8661   20.8815 H   0  0  0  0  0  0  0  0  0  0  0  0
   20.6774   18.4080   21.1944 C   0  0  1  0  0  0  0  0  0  0  0  0
   21.4808   19.1381   21.0562 H   0  0  0  0  0  0  0  0  0  0  0  0
   21.1601   17.3497   22.2007 C   0  0  0  0  0  0  0  0  0  0  0  0
   20.3621   16.6364   22.4412 H   0  0  0  0  0  0  0  0  0  0  0  0
   21.5019   17.8181   23.1309 H   0  0  0  0  0  0  0  0  0  0  0  0
   22.0085   16.7866   21.7927 H   0  0  0  0  0  0  0  0  0  0  0  0
   20.4451   17.7776   19.8492 N   0  3  0  0  0  0  0  0  0  0  0  0
   20.1698   18.4724   19.1491 H   0  0  0  0  0  0  0  0  0  0  0  0
   21.2899   17.3147   19.5021 H   0  0  0  0  0  0  0  0  0  0  0  0
   19.7051   17.0718   19.8894 H   0  0  0  0  0  0  0  0  0  0  0  0
  1  2  1  0  0  0  0
  1  3  1  0  0  0  0
  1  4  1  0  0  0  0
  1  5  1  0  0  0  0
  5  6  1  0  0  0  0
  5  7  1  0  0  0  0
  5  8  1  0  0  0  0
  8  9  1  0  0  0  0
  8 10  1  0  0  0  0
  8 11  1  0  0  0  0
 11 12  1  0  0  0  0
 11 13  1  0  0  0  0
 11 14  1  0  0  0  0
 14 15  1  0  0  0  0
 14 16  1  0  0  0  0
 14 17  1  0  0  0  0
 17 18  1  0  0  0  0
 17 19  1  0  0  0  0
 19 20  1  0  0  0  0
 19 21  1  0  0  0  0
 19 22  1  0  0  0  0
 17 23  1  0  0  0  0
 23 24  1  0  0  0  0
 23 25  1  0  0  0  0
 23 26  1  0  0  0  0
M  END
> <VConfSearch Rank>
244

> <Conf_Id>
34

> <Delta U+W>
3.568

> <U+W>
-26.731

> <U>
27.221

> <W>
-53.952

> <W(PB)>
-56.213

> <W(SA)>
2.261

> <Valence>
6.368

> <Coulomb>
19.698

> <VdW>
1.155

> <VdW6>
-8.532

> <VdW12>
9.687

> <Bond>
0.272

> <Angle>
1.847

> <Pdih>
4.248

> <Idih>
0.000

> <Tether>
0.000

$$$$
VeraChem MOL file


 26 25  0  0  0  0  0  0  0  0999 V2000     
   18.0079   21.6320   20.3008 C   0  0  0  0  0  0  0  0  0  0  0  0
   16.9657   21.3555   20.5072 H   0  0  0  0  0  0  0  0  0  0  0  0
   18.2205   22.5757   20.8199 H   0  0  0  0  0  0  0  0  0  0  0  0
   18.1013   21.8124   19.2220 H   0  0  0  0  0  0  0  0  0  0  0  0
   18.9772   20.5194   20.7532 C   0  0  0  0  0  0  0  0  0  0  0  0
   20.0073   20.8096   20.5031 H   0  0  0  0  0  0  0  0  0  0  0  0
   18.7622   19.5987   20.1928 H   0  0  0  0  0  0  0  0  0  0  0  0
   18.8657   20.2454   22.2695 C   0  0  0  0  0  0  0  0  0  0  0  0
   19.0790   21.1694   22.8247 H   0  0  0  0  0  0  0  0  0  0  0  0
   17.8338   19.9584   22.5146 H   0  0  0  0  0  0  0  0  0  0  0  0
   19.8346   19.1315   22.7266 C   0  0  0  0  0  0  0  0  0  0  0  0
   20.8631   19.4241   22.4770 H   0  0  0  0  0  0  0  0  0  0  0  0
   19.6165   18.2149   22.1629 H   0  0  0  0  0  0  0  0  0  0  0  0
   19.7155   18.8595   24.2490 C   0  0  0  0  0  0  0  0  0  0  0  0
   19.8875   19.7952   24.7969 H   0  0  0  0  0  0  0  0  0  0  0  0
   18.6864   18.5570   24.4841 H   0  0  0  0  0  0  0  0  0  0  0  0
   20.6861   17.7869   24.7976 C   0  0  1  0  0  0  0  0  0  0  0  0
   20.5177   17.7182   25.8769 H   0  0  0  0  0  0  0  0  0  0  0  0
   20.4137   16.3974   24.1955 C   0  0  0  0  0  0  0  0  0  0  0  0
   20.6556   16.3636   23.1266 H   0  0  0  0  0  0  0  0  0  0  0  0
   19.3599   16.1185   24.3191 H   0  0  0  0  0  0  0  0  0  0  0  0
   21.0204   15.6354   24.7000 H   0  0  0  0  0  0  0  0  0  0  0  0
   22.1289   18.1756   24.6253 N   0  3  0  0  0  0  0  0  0  0  0  0
   22.7554   17.4858   25.0497 H   0  0  0  0  0  0  0  0  0  0  0  0
   22.3786   18.2490   23.6361 H   0  0  0  0  0  0  0  0  0  0  0  0
   22.3291   19.0798   25.0622 H   0  0  0  0  0  0  0  0  0  0  0  0
  1  2  1  0  0  0  0
  1  3  1  0  0  0  0
  1  4  1  0  0  0  0
  1  5  1  0  0  0  0
  5  6  1  0  0  0  0
  5  7  1  0  0  0  0
  5  8  1  0  0  0  0
  8  9  1  0  0  0  0
  8 10  1  0  0  0  0
  8 11  1  0  0  0  0
 11 12  1  0  0  0  0
 11 13  1  0  0  0  0
 11 14  1  0  0  0  0
 14 15  1  0  0  0  0
 14 16  1  0  0  0  0
 14 17  1  0  0  0  0
 17 18  1  0  0  0  0
 17 19  1  0  0  0  0
 19 20  1  0  0  0  0
 19 21  1  0  0  0  0
 19 22  1  0  0  0  0
 17 23  1  0  0  0  0
 23 24  1  0  0  0  0
 23 25  1  0  0  0  0
 23 26  1  0  0  0  0
M  END
> <VConfSearch Rank>
245

> <Conf_Id>
132

> <Delta U+W>
0.363

> <U+W>
-29.936

> <U>
24.060

> <W>
-53.996

> <W(PB)>
-56.327

> <W(SA)>
2.332

> <Valence>
3.249

> <Coulomb>
19.781

> <VdW>
1.030

> <VdW6>
-7.421

> <VdW12>
8.451

> <Bond>
0.207

> <Angle>
1.205

> <Pdih>
1.837

> <Idih>
0.000

> <Tether>
0.000

$$$$
VeraChem MOL file


 26 25  0  0  0  0  0  0  0  0999 V2000     
   18.4807   18.7513   26.6093 C   0  0  0  0  0  0  0  0  0  0  0  0
   18.8115   19.3626   27.4590 H   0  0  0  0  0  0  0  0  0  0  0  0
   17.3844   18.7939   26.5706 H   0  0  0  0  0  0  0  0  0  0  0  0
   18.7758   17.7124   26.8064 H   0  0  0  0  0  0  0  0  0  0  0  0
   19.1034   19.2644   25.2936 C   0  0  0  0  0  0  0  0  0  0  0  0
   20.1971   19.2454   25.3873 H   0  0  0  0  0  0  0  0  0  0  0  0
   18.8144   20.3133   25.1391 H   0  0  0  0  0  0  0  0  0  0  0  0
   18.6545   18.4143   24.0814 C   0  0  0  0  0  0  0  0  0  0  0  0
   18.9919   17.3767   24.2107 H   0  0  0  0  0  0  0  0  0  0  0  0
   17.5564   18.3799   24.0587 H   0  0  0  0  0  0  0  0  0  0  0  0
   19.1549   18.9581   22.7204 C   0  0  0  0  0  0  0  0  0  0  0  0
   18.8080   19.9924   22.5957 H   0  0  0  0  0  0  0  0  0  0  0  0
   18.6747   18.3718   21.9265 H   0  0  0  0  0  0  0  0  0  0  0  0
   20.6982   18.8873   22.5581 C   0  0  0  0  0  0  0  0  0  0  0  0
   21.1782   19.4986   23.3318 H   0  0  0  0  0  0  0  0  0  0  0  0
   21.0355   17.8571   22.7329 H   0  0  0  0  0  0  0  0  0  0  0  0
   21.2302   19.3586   21.1837 C   0  0  1  0  0  0  0  0  0  0  0  0
   22.3228   19.3102   21.2255 H   0  0  0  0  0  0  0  0  0  0  0  0
   20.7703   18.4418   20.0365 C   0  0  0  0  0  0  0  0  0  0  0  0
   19.6901   18.5156   19.8645 H   0  0  0  0  0  0  0  0  0  0  0  0
   21.0139   17.3942   20.2527 H   0  0  0  0  0  0  0  0  0  0  0  0
   21.2765   18.7144   19.1024 H   0  0  0  0  0  0  0  0  0  0  0  0
   20.8875   20.7947   20.8970 N   0  3  0  0  0  0  0  0  0  0  0  0
   21.2316   21.4173   21.6335 H   0  0  0  0  0  0  0  0  0  0  0  0
   21.2997   21.1087   20.0139 H   0  0  0  0  0  0  0  0  0  0  0  0
   19.8757   20.9283   20.8280 H   0  0  0  0  0  0  0  0  0  0  0  0
  1  2  1  0  0  0  0
  1  3  1  0  0  0  0
  1  4  1  0  0  0  0
  1  5  1  0  0  0  0
  5  6  1  0  0  0  0
  5  7  1  0  0  0  0
  5  8  1  0  0  0  0
  8  9  1  0  0  0  0
  8 10  1  0  0  0  0
  8 11  1  0  0  0  0
 11 12  1  0  0  0  0
 11 13  1  0  0  0  0
 11 14  1  0  0  0  0
 14 15  1  0  0  0  0
 14 16  1  0  0  0  0
 14 17  1  0  0  0  0
 17 18  1  0  0  0  0
 17 19  1  0  0  0  0
 19 20  1  0  0  0  0
 19 21  1  0  0  0  0
 19 22  1  0  0  0  0
 17 23  1  0  0  0  0
 23 24  1  0  0  0  0
 23 25  1  0  0  0  0
 23 26  1  0  0  0  0
M  END
> <VConfSearch Rank>
246

> <Conf_Id>
46

> <Delta U+W>
1.114

> <U+W>
-29.185

> <U>
24.990

> <W>
-54.175

> <W(PB)>
-56.455

> <W(SA)>
2.279

> <Valence>
3.862

> <Coulomb>
19.956

> <VdW>
1.172

> <VdW6>
-8.054

> <VdW12>
9.226

> <Bond>
0.258

> <Angle>
1.499

> <Pdih>
2.106

> <Idih>
0.000

> <Tether>
0.000

$$$$
VeraChem MOL file


 26 25  0  0  0  0  0  0  0  0999 V2000     
   16.3454   20.1275   23.4289 C   0  0  0  0  0  0  0  0  0  0  0  0
   16.8209   20.6677   24.2568 H   0  0  0  0  0  0  0  0  0  0  0  0
   16.2954   20.7995   22.5623 H   0  0  0  0  0  0  0  0  0  0  0  0
   15.3166   19.8969   23.7343 H   0  0  0  0  0  0  0  0  0  0  0  0
   17.1099   18.8295   23.0826 C   0  0  0  0  0  0  0  0  0  0  0  0
   16.5274   18.2644   22.3415 H   0  0  0  0  0  0  0  0  0  0  0  0
   17.1756   18.1900   23.9738 H   0  0  0  0  0  0  0  0  0  0  0  0
   18.5266   19.0807   22.5118 C   0  0  0  0  0  0  0  0  0  0  0  0
   18.9340   18.1174   22.1781 H   0  0  0  0  0  0  0  0  0  0  0  0
   18.4534   19.7125   21.6159 H   0  0  0  0  0  0  0  0  0  0  0  0
   19.4955   19.7311   23.5318 C   0  0  0  0  0  0  0  0  0  0  0  0
   19.5480   19.1160   24.4399 H   0  0  0  0  0  0  0  0  0  0  0  0
   19.0963   20.7039   23.8466 H   0  0  0  0  0  0  0  0  0  0  0  0
   20.9192   19.9604   22.9619 C   0  0  0  0  0  0  0  0  0  0  0  0
   20.8512   20.6495   22.1096 H   0  0  0  0  0  0  0  0  0  0  0  0
   21.5289   20.4703   23.7197 H   0  0  0  0  0  0  0  0  0  0  0  0
   21.6416   18.6710   22.5105 C   0  0  1  0  0  0  0  0  0  0  0  0
   21.0360   18.1881   21.7381 H   0  0  0  0  0  0  0  0  0  0  0  0
   23.0108   19.0109   21.9005 C   0  0  0  0  0  0  0  0  0  0  0  0
   23.5120   18.1036   21.5415 H   0  0  0  0  0  0  0  0  0  0  0  0
   23.6650   19.4942   22.6370 H   0  0  0  0  0  0  0  0  0  0  0  0
   22.8987   19.6896   21.0457 H   0  0  0  0  0  0  0  0  0  0  0  0
   21.7918   17.6757   23.6282 N   0  3  0  0  0  0  0  0  0  0  0  0
   20.8818   17.4128   24.0162 H   0  0  0  0  0  0  0  0  0  0  0  0
   22.2490   16.8176   23.3074 H   0  0  0  0  0  0  0  0  0  0  0  0
   22.3553   18.0560   24.3931 H   0  0  0  0  0  0  0  0  0  0  0  0
  1  2  1  0  0  0  0
  1  3  1  0  0  0  0
  1  4  1  0  0  0  0
  1  5  1  0  0  0  0
  5  6  1  0  0  0  0
  5  7  1  0  0  0  0
  5  8  1  0  0  0  0
  8  9  1  0  0  0  0
  8 10  1  0  0  0  0
  8 11  1  0  0  0  0
 11 12  1  0  0  0  0
 11 13  1  0  0  0  0
 11 14  1  0  0  0  0
 14 15  1  0  0  0  0
 14 16  1  0  0  0  0
 14 17  1  0  0  0  0
 17 18  1  0  0  0  0
 17 19  1  0  0  0  0
 19 20  1  0  0  0  0
 19 21  1  0  0  0  0
 19 22  1  0  0  0  0
 17 23  1  0  0  0  0
 23 24  1  0  0  0  0
 23 25  1  0  0  0  0
 23 26  1  0  0  0  0
M  END
> <VConfSearch Rank>
247

> <Conf_Id>
113

> <Delta U+W>
1.137

> <U+W>
-29.162

> <U>
24.833

> <W>
-53.995

> <W(PB)>
-56.288

> <W(SA)>
2.294

> <Valence>
3.589

> <Coulomb>
20.270

> <VdW>
0.974

> <VdW6>
-8.255

> <VdW12>
9.229

> <Bond>
0.244

> <Angle>
1.377

> <Pdih>
1.967

> <Idih>
0.000

> <Tether>
0.000

$$$$
VeraChem MOL file


 26 25  0  0  0  0  0  0  0  0999 V2000     
   18.4216   22.0211   20.6656 C   0  0  0  0  0  0  0  0  0  0  0  0
   17.9255   21.8691   19.6982 H   0  0  0  0  0  0  0  0  0  0  0  0
   17.6845   22.4464   21.3592 H   0  0  0  0  0  0  0  0  0  0  0  0
   19.2214   22.7592   20.5215 H   0  0  0  0  0  0  0  0  0  0  0  0
   18.9854   20.6890   21.2041 C   0  0  0  0  0  0  0  0  0  0  0  0
   19.6965   20.2740   20.4763 H   0  0  0  0  0  0  0  0  0  0  0  0
   18.1640   19.9661   21.2953 H   0  0  0  0  0  0  0  0  0  0  0  0
   19.6861   20.8776   22.5704 C   0  0  0  0  0  0  0  0  0  0  0  0
   20.4490   21.6626   22.4744 H   0  0  0  0  0  0  0  0  0  0  0  0
   18.9612   21.2422   23.3113 H   0  0  0  0  0  0  0  0  0  0  0  0
   20.3690   19.5926   23.0999 C   0  0  0  0  0  0  0  0  0  0  0  0
   20.9350   19.8546   24.0033 H   0  0  0  0  0  0  0  0  0  0  0  0
   21.1050   19.2478   22.3615 H   0  0  0  0  0  0  0  0  0  0  0  0
   19.3659   18.4529   23.4279 C   0  0  0  0  0  0  0  0  0  0  0  0
   18.5753   18.8441   24.0816 H   0  0  0  0  0  0  0  0  0  0  0  0
   18.8652   18.1252   22.5084 H   0  0  0  0  0  0  0  0  0  0  0  0
   19.9926   17.2116   24.1060 C   0  0  1  0  0  0  0  0  0  0  0  0
   19.1833   16.4979   24.2884 H   0  0  0  0  0  0  0  0  0  0  0  0
   21.0277   16.5204   23.2013 C   0  0  0  0  0  0  0  0  0  0  0  0
   21.9157   17.1457   23.0501 H   0  0  0  0  0  0  0  0  0  0  0  0
   20.5962   16.2921   22.2189 H   0  0  0  0  0  0  0  0  0  0  0  0
   21.3564   15.5741   23.6481 H   0  0  0  0  0  0  0  0  0  0  0  0
   20.5801   17.5270   25.4543 N   0  3  0  0  0  0  0  0  0  0  0  0
   19.8855   17.9487   26.0774 H   0  0  0  0  0  0  0  0  0  0  0  0
   20.9320   16.6834   25.9156 H   0  0  0  0  0  0  0  0  0  0  0  0
   21.3617   18.1820   25.3758 H   0  0  0  0  0  0  0  0  0  0  0  0
  1  2  1  0  0  0  0
  1  3  1  0  0  0  0
  1  4  1  0  0  0  0
  1  5  1  0  0  0  0
  5  6  1  0  0  0  0
  5  7  1  0  0  0  0
  5  8  1  0  0  0  0
  8  9  1  0  0  0  0
  8 10  1  0  0  0  0
  8 11  1  0  0  0  0
 11 12  1  0  0  0  0
 11 13  1  0  0  0  0
 11 14  1  0  0  0  0
 14 15  1  0  0  0  0
 14 16  1  0  0  0  0
 14 17  1  0  0  0  0
 17 18  1  0  0  0  0
 17 19  1  0  0  0  0
 19 20  1  0  0  0  0
 19 21  1  0  0  0  0
 19 22  1  0  0  0  0
 17 23  1  0  0  0  0
 23 24  1  0  0  0  0
 23 25  1  0  0  0  0
 23 26  1  0  0  0  0
M  END
> <VConfSearch Rank>
248

> <Conf_Id>
45

> <Delta U+W>
1.035

> <U+W>
-29.264

> <U>
24.725

> <W>
-53.989

> <W(PB)>
-56.298

> <W(SA)>
2.309

> <Valence>
3.780

> <Coulomb>
19.804

> <VdW>
1.141

> <VdW6>
-8.104

> <VdW12>
9.246

> <Bond>
0.254

> <Angle>
1.437

> <Pdih>
2.089

> <Idih>
0.000

> <Tether>
0.000

$$$$
VeraChem MOL file


 26 25  0  0  0  0  0  0  0  0999 V2000     
   18.0196   20.7262   26.1319 C   0  0  0  0  0  0  0  0  0  0  0  0
   17.4612   21.6711   26.1112 H   0  0  0  0  0  0  0  0  0  0  0  0
   17.4105   19.9870   26.6682 H   0  0  0  0  0  0  0  0  0  0  0  0
   18.9407   20.8915   26.7058 H   0  0  0  0  0  0  0  0  0  0  0  0
   18.3374   20.2496   24.6986 C   0  0  0  0  0  0  0  0  0  0  0  0
   18.9100   21.0319   24.1833 H   0  0  0  0  0  0  0  0  0  0  0  0
   17.3989   20.1213   24.1414 H   0  0  0  0  0  0  0  0  0  0  0  0
   19.1289   18.9203   24.7027 C   0  0  0  0  0  0  0  0  0  0  0  0
   20.0925   19.0641   25.2109 H   0  0  0  0  0  0  0  0  0  0  0  0
   18.5758   18.1794   25.2965 H   0  0  0  0  0  0  0  0  0  0  0  0
   19.3689   18.3335   23.2897 C   0  0  0  0  0  0  0  0  0  0  0  0
   18.4043   18.1887   22.7837 H   0  0  0  0  0  0  0  0  0  0  0  0
   19.8088   17.3346   23.4081 H   0  0  0  0  0  0  0  0  0  0  0  0
   20.2969   19.2067   22.4060 C   0  0  0  0  0  0  0  0  0  0  0  0
   19.8428   20.1960   22.2701 H   0  0  0  0  0  0  0  0  0  0  0  0
   21.2546   19.3677   22.9184 H   0  0  0  0  0  0  0  0  0  0  0  0
   20.5513   18.5941   21.0113 C   0  0  1  0  0  0  0  0  0  0  0  0
   19.5829   18.4099   20.5359 H   0  0  0  0  0  0  0  0  0  0  0  0
   21.3407   19.5773   20.1320 C   0  0  0  0  0  0  0  0  0  0  0  0
   22.3244   19.7964   20.5659 H   0  0  0  0  0  0  0  0  0  0  0  0
   20.7977   20.5242   20.0210 H   0  0  0  0  0  0  0  0  0  0  0  0
   21.4946   19.1631   19.1279 H   0  0  0  0  0  0  0  0  0  0  0  0
   21.2588   17.2682   21.0823 N   0  3  0  0  0  0  0  0  0  0  0  0
   20.7228   16.5861   21.6252 H   0  0  0  0  0  0  0  0  0  0  0  0
   21.4030   16.8708   20.1497 H   0  0  0  0  0  0  0  0  0  0  0  0
   22.1783   17.3586   21.5222 H   0  0  0  0  0  0  0  0  0  0  0  0
  1  2  1  0  0  0  0
  1  3  1  0  0  0  0
  1  4  1  0  0  0  0
  1  5  1  0  0  0  0
  5  6  1  0  0  0  0
  5  7  1  0  0  0  0
  5  8  1  0  0  0  0
  8  9  1  0  0  0  0
  8 10  1  0  0  0  0
  8 11  1  0  0  0  0
 11 12  1  0  0  0  0
 11 13  1  0  0  0  0
 11 14  1  0  0  0  0
 14 15  1  0  0  0  0
 14 16  1  0  0  0  0
 14 17  1  0  0  0  0
 17 18  1  0  0  0  0
 17 19  1  0  0  0  0
 19 20  1  0  0  0  0
 19 21  1  0  0  0  0
 19 22  1  0  0  0  0
 17 23  1  0  0  0  0
 23 24  1  0  0  0  0
 23 25  1  0  0  0  0
 23 26  1  0  0  0  0
M  END
> <VConfSearch Rank>
249

> <Conf_Id>
121

> <Delta U+W>
0.736

> <U+W>
-29.562

> <U>
24.282

> <W>
-53.844

> <W(PB)>
-56.205

> <W(SA)>
2.361

> <Valence>
3.311

> <Coulomb>
19.887

> <VdW>
1.083

> <VdW6>
-7.444

> <VdW12>
8.527

> <Bond>
0.219

> <Angle>
1.167

> <Pdih>
1.926

> <Idih>
0.000

> <Tether>
0.000

$$$$
VeraChem MOL file


 26 25  0  0  0  0  0  0  0  0999 V2000     
   22.5625   21.1206   21.4949 C   0  0  0  0  0  0  0  0  0  0  0  0
   23.5701   21.5526   21.5506 H   0  0  0  0  0  0  0  0  0  0  0  0
   22.3941   20.7945   20.4604 H   0  0  0  0  0  0  0  0  0  0  0  0
   21.8485   21.9212   21.7243 H   0  0  0  0  0  0  0  0  0  0  0  0
   22.4268   19.9373   22.4800 C   0  0  0  0  0  0  0  0  0  0  0  0
   22.5654   20.2952   23.5097 H   0  0  0  0  0  0  0  0  0  0  0  0
   23.2421   19.2253   22.2900 H   0  0  0  0  0  0  0  0  0  0  0  0
   21.0775   19.1877   22.3631 C   0  0  0  0  0  0  0  0  0  0  0  0
   20.9478   18.8250   21.3341 H   0  0  0  0  0  0  0  0  0  0  0  0
   21.1281   18.2963   23.0019 H   0  0  0  0  0  0  0  0  0  0  0  0
   19.8562   20.0500   22.7717 C   0  0  0  0  0  0  0  0  0  0  0  0
   19.7977   20.9331   22.1225 H   0  0  0  0  0  0  0  0  0  0  0  0
   19.9950   20.4333   23.7910 H   0  0  0  0  0  0  0  0  0  0  0  0
   18.5083   19.2900   22.6663 C   0  0  0  0  0  0  0  0  0  0  0  0
   17.6930   19.9716   22.9432 H   0  0  0  0  0  0  0  0  0  0  0  0
   18.3405   19.0275   21.6135 H   0  0  0  0  0  0  0  0  0  0  0  0
   18.4073   18.0035   23.5199 C   0  0  1  0  0  0  0  0  0  0  0  0
   19.2165   17.3288   23.2257 H   0  0  0  0  0  0  0  0  0  0  0  0
   18.5398   18.2955   25.0252 C   0  0  0  0  0  0  0  0  0  0  0  0
   17.7818   19.0154   25.3580 H   0  0  0  0  0  0  0  0  0  0  0  0
   19.5292   18.7016   25.2658 H   0  0  0  0  0  0  0  0  0  0  0  0
   18.4157   17.3757   25.6098 H   0  0  0  0  0  0  0  0  0  0  0  0
   17.1255   17.2684   23.2420 N   0  3  0  0  0  0  0  0  0  0  0  0
   17.0365   17.0261   22.2510 H   0  0  0  0  0  0  0  0  0  0  0  0
   17.0715   16.3955   23.7744 H   0  0  0  0  0  0  0  0  0  0  0  0
   16.3088   17.8310   23.4953 H   0  0  0  0  0  0  0  0  0  0  0  0
  1  2  1  0  0  0  0
  1  3  1  0  0  0  0
  1  4  1  0  0  0  0
  1  5  1  0  0  0  0
  5  6  1  0  0  0  0
  5  7  1  0  0  0  0
  5  8  1  0  0  0  0
  8  9  1  0  0  0  0
  8 10  1  0  0  0  0
  8 11  1  0  0  0  0
 11 12  1  0  0  0  0
 11 13  1  0  0  0  0
 11 14  1  0  0  0  0
 14 15  1  0  0  0  0
 14 16  1  0  0  0  0
 14 17  1  0  0  0  0
 17 18  1  0  0  0  0
 17 19  1  0  0  0  0
 19 20  1  0  0  0  0
 19 21  1  0  0  0  0
 19 22  1  0  0  0  0
 17 23  1  0  0  0  0
 23 24  1  0  0  0  0
 23 25  1  0  0  0  0
 23 26  1  0  0  0  0
M  END
> <VConfSearch Rank>
250

> <Conf_Id>
5

> <Delta U+W>
1.233

> <U+W>
-29.065

> <U>
25.023

> <W>
-54.088

> <W(PB)>
-56.383

> <W(SA)>
2.296

> <Valence>
4.083

> <Coulomb>
19.893

> <VdW>
1.047

> <VdW6>
-8.479

> <VdW12>
9.527

> <Bond>
0.256

> <Angle>
1.716

> <Pdih>
2.112

> <Idih>
0.000

> <Tether>
0.000

$$$$
VeraChem MOL file


 26 25  0  0  0  0  0  0  0  0999 V2000     
   20.5953   15.9417   21.3571 C   0  0  0  0  0  0  0  0  0  0  0  0
   20.4268   15.1483   20.6174 H   0  0  0  0  0  0  0  0  0  0  0  0
   21.4890   16.4963   21.0459 H   0  0  0  0  0  0  0  0  0  0  0  0
   20.8060   15.4615   22.3215 H   0  0  0  0  0  0  0  0  0  0  0  0
   19.3574   16.8624   21.4530 C   0  0  0  0  0  0  0  0  0  0  0  0
   18.4704   16.2407   21.6390 H   0  0  0  0  0  0  0  0  0  0  0  0
   19.1880   17.3574   20.4865 H   0  0  0  0  0  0  0  0  0  0  0  0
   19.4615   17.9238   22.5749 C   0  0  0  0  0  0  0  0  0  0  0  0
   18.4891   18.4269   22.6534 H   0  0  0  0  0  0  0  0  0  0  0  0
   19.6359   17.4236   23.5375 H   0  0  0  0  0  0  0  0  0  0  0  0
   20.5664   18.9803   22.3241 C   0  0  0  0  0  0  0  0  0  0  0  0
   20.3694   19.4966   21.3743 H   0  0  0  0  0  0  0  0  0  0  0  0
   21.5350   18.4780   22.2064 H   0  0  0  0  0  0  0  0  0  0  0  0
   20.7075   20.0279   23.4577 C   0  0  0  0  0  0  0  0  0  0  0  0
   20.9899   19.5310   24.3955 H   0  0  0  0  0  0  0  0  0  0  0  0
   21.5552   20.6770   23.2014 H   0  0  0  0  0  0  0  0  0  0  0  0
   19.4444   20.8989   23.6653 C   0  0  1  0  0  0  0  0  0  0  0  0
   18.8206   20.8141   22.7702 H   0  0  0  0  0  0  0  0  0  0  0  0
   18.6270   20.4302   24.8830 C   0  0  0  0  0  0  0  0  0  0  0  0
   19.1986   20.5499   25.8119 H   0  0  0  0  0  0  0  0  0  0  0  0
   18.3444   19.3752   24.7957 H   0  0  0  0  0  0  0  0  0  0  0  0
   17.7032   21.0143   24.9760 H   0  0  0  0  0  0  0  0  0  0  0  0
   19.7835   22.3580   23.8023 N   0  3  0  0  0  0  0  0  0  0  0  0
   20.2872   22.7063   22.9815 H   0  0  0  0  0  0  0  0  0  0  0  0
   18.9405   22.9297   23.9069 H   0  0  0  0  0  0  0  0  0  0  0  0
   20.3726   22.5303   24.6214 H   0  0  0  0  0  0  0  0  0  0  0  0
  1  2  1  0  0  0  0
  1  3  1  0  0  0  0
  1  4  1  0  0  0  0
  1  5  1  0  0  0  0
  5  6  1  0  0  0  0
  5  7  1  0  0  0  0
  5  8  1  0  0  0  0
  8  9  1  0  0  0  0
  8 10  1  0  0  0  0
  8 11  1  0  0  0  0
 11 12  1  0  0  0  0
 11 13  1  0  0  0  0
 11 14  1  0  0  0  0
 14 15  1  0  0  0  0
 14 16  1  0  0  0  0
 14 17  1  0  0  0  0
 17 18  1  0  0  0  0
 17 19  1  0  0  0  0
 19 20  1  0  0  0  0
 19 21  1  0  0  0  0
 19 22  1  0  0  0  0
 17 23  1  0  0  0  0
 23 24  1  0  0  0  0
 23 25  1  0  0  0  0
 23 26  1  0  0  0  0
M  END
> <VConfSearch Rank>
251

> <Conf_Id>
100

> <Delta U+W>
3.818

> <U+W>
-26.481

> <U>
27.496

> <W>
-53.977

> <W(PB)>
-56.267

> <W(SA)>
2.290

> <Valence>
6.472

> <Coulomb>
19.839

> <VdW>
1.185

> <VdW6>
-8.405

> <VdW12>
9.590

> <Bond>
0.248

> <Angle>
1.619

> <Pdih>
4.604

> <Idih>
0.000

> <Tether>
0.000

$$$$
VeraChem MOL file


 26 25  0  0  0  0  0  0  0  0999 V2000     
   19.1974   19.5928   26.5687 C   0  0  0  0  0  0  0  0  0  0  0  0
   18.4533   20.0246   27.2505 H   0  0  0  0  0  0  0  0  0  0  0  0
   19.0823   18.5013   26.5917 H   0  0  0  0  0  0  0  0  0  0  0  0
   20.1940   19.8399   26.9574 H   0  0  0  0  0  0  0  0  0  0  0  0
   19.0084   20.1408   25.1382 C   0  0  0  0  0  0  0  0  0  0  0  0
   19.0945   21.2363   25.1533 H   0  0  0  0  0  0  0  0  0  0  0  0
   17.9924   19.9073   24.7901 H   0  0  0  0  0  0  0  0  0  0  0  0
   20.0446   19.5489   24.1573 C   0  0  0  0  0  0  0  0  0  0  0  0
   21.0571   19.7856   24.5123 H   0  0  0  0  0  0  0  0  0  0  0  0
   19.9595   18.4559   24.1610 H   0  0  0  0  0  0  0  0  0  0  0  0
   19.8597   20.1035   22.7233 C   0  0  0  0  0  0  0  0  0  0  0  0
   19.9763   21.1954   22.7643 H   0  0  0  0  0  0  0  0  0  0  0  0
   18.8339   19.9239   22.3764 H   0  0  0  0  0  0  0  0  0  0  0  0
   20.8897   19.5424   21.7033 C   0  0  0  0  0  0  0  0  0  0  0  0
   21.1442   20.3424   20.9957 H   0  0  0  0  0  0  0  0  0  0  0  0
   21.8302   19.3012   22.2159 H   0  0  0  0  0  0  0  0  0  0  0  0
   20.4287   18.3188   20.8725 C   0  0  1  0  0  0  0  0  0  0  0  0
   21.2620   18.0430   20.2187 H   0  0  0  0  0  0  0  0  0  0  0  0
   20.0998   17.0941   21.7414 C   0  0  0  0  0  0  0  0  0  0  0  0
   19.1929   17.2553   22.3361 H   0  0  0  0  0  0  0  0  0  0  0  0
   20.9286   16.8642   22.4223 H   0  0  0  0  0  0  0  0  0  0  0  0
   19.9328   16.2118   21.1114 H   0  0  0  0  0  0  0  0  0  0  0  0
   19.2806   18.6501   19.9586 N   0  3  0  0  0  0  0  0  0  0  0  0
   19.5092   19.4300   19.3357 H   0  0  0  0  0  0  0  0  0  0  0  0
   19.0301   17.8516   19.3686 H   0  0  0  0  0  0  0  0  0  0  0  0
   18.4464   18.9137   20.4883 H   0  0  0  0  0  0  0  0  0  0  0  0
  1  2  1  0  0  0  0
  1  3  1  0  0  0  0
  1  4  1  0  0  0  0
  1  5  1  0  0  0  0
  5  6  1  0  0  0  0
  5  7  1  0  0  0  0
  5  8  1  0  0  0  0
  8  9  1  0  0  0  0
  8 10  1  0  0  0  0
  8 11  1  0  0  0  0
 11 12  1  0  0  0  0
 11 13  1  0  0  0  0
 11 14  1  0  0  0  0
 14 15  1  0  0  0  0
 14 16  1  0  0  0  0
 14 17  1  0  0  0  0
 17 18  1  0  0  0  0
 17 19  1  0  0  0  0
 19 20  1  0  0  0  0
 19 21  1  0  0  0  0
 19 22  1  0  0  0  0
 17 23  1  0  0  0  0
 23 24  1  0  0  0  0
 23 25  1  0  0  0  0
 23 26  1  0  0  0  0
M  END
> <VConfSearch Rank>
252

> <Conf_Id>
142

> <Delta U+W>
2.978

> <U+W>
-27.320

> <U>
26.848

> <W>
-54.168

> <W(PB)>
-56.427

> <W(SA)>
2.259

> <Valence>
5.823

> <Coulomb>
20.057

> <VdW>
0.968

> <VdW6>
-8.367

> <VdW12>
9.335

> <Bond>
0.267

> <Angle>
1.799

> <Pdih>
3.758

> <Idih>
0.000

> <Tether>
0.000

$$$$
VeraChem MOL file


 26 25  0  0  0  0  0  0  0  0999 V2000     
   18.2213   17.0327   25.2398 C   0  0  0  0  0  0  0  0  0  0  0  0
   17.5363   17.8156   25.5904 H   0  0  0  0  0  0  0  0  0  0  0  0
   17.7832   16.0615   25.5038 H   0  0  0  0  0  0  0  0  0  0  0  0
   19.1643   17.1280   25.7918 H   0  0  0  0  0  0  0  0  0  0  0  0
   18.4406   17.1287   23.7127 C   0  0  0  0  0  0  0  0  0  0  0  0
   17.4927   16.8961   23.2075 H   0  0  0  0  0  0  0  0  0  0  0  0
   19.1563   16.3590   23.3914 H   0  0  0  0  0  0  0  0  0  0  0  0
   18.9221   18.5227   23.2421 C   0  0  0  0  0  0  0  0  0  0  0  0
   18.8935   18.5285   22.1464 H   0  0  0  0  0  0  0  0  0  0  0  0
   18.2139   19.2895   23.5849 H   0  0  0  0  0  0  0  0  0  0  0  0
   20.3537   18.8740   23.7199 C   0  0  0  0  0  0  0  0  0  0  0  0
   21.0665   18.1402   23.3210 H   0  0  0  0  0  0  0  0  0  0  0  0
   20.4037   18.7723   24.8112 H   0  0  0  0  0  0  0  0  0  0  0  0
   20.8200   20.3158   23.3705 C   0  0  0  0  0  0  0  0  0  0  0  0
   20.1680   21.0401   23.8760 H   0  0  0  0  0  0  0  0  0  0  0  0
   21.8134   20.4602   23.8154 H   0  0  0  0  0  0  0  0  0  0  0  0
   20.9239   20.6937   21.8705 C   0  0  1  0  0  0  0  0  0  0  0  0
   21.4806   21.6347   21.8216 H   0  0  0  0  0  0  0  0  0  0  0  0
   21.7111   19.6540   21.0538 C   0  0  0  0  0  0  0  0  0  0  0  0
   21.1693   18.7037   20.9779 H   0  0  0  0  0  0  0  0  0  0  0  0
   22.6878   19.4578   21.5133 H   0  0  0  0  0  0  0  0  0  0  0  0
   21.8899   20.0206   20.0357 H   0  0  0  0  0  0  0  0  0  0  0  0
   19.5909   20.9921   21.2407 N   0  3  0  0  0  0  0  0  0  0  0  0
   19.0978   21.7359   21.7428 H   0  0  0  0  0  0  0  0  0  0  0  0
   19.6973   21.2988   20.2696 H   0  0  0  0  0  0  0  0  0  0  0  0
   18.9863   20.1684   21.2391 H   0  0  0  0  0  0  0  0  0  0  0  0
  1  2  1  0  0  0  0
  1  3  1  0  0  0  0
  1  4  1  0  0  0  0
  1  5  1  0  0  0  0
  5  6  1  0  0  0  0
  5  7  1  0  0  0  0
  5  8  1  0  0  0  0
  8  9  1  0  0  0  0
  8 10  1  0  0  0  0
  8 11  1  0  0  0  0
 11 12  1  0  0  0  0
 11 13  1  0  0  0  0
 11 14  1  0  0  0  0
 14 15  1  0  0  0  0
 14 16  1  0  0  0  0
 14 17  1  0  0  0  0
 17 18  1  0  0  0  0
 17 19  1  0  0  0  0
 19 20  1  0  0  0  0
 19 21  1  0  0  0  0
 19 22  1  0  0  0  0
 17 23  1  0  0  0  0
 23 24  1  0  0  0  0
 23 25  1  0  0  0  0
 23 26  1  0  0  0  0
M  END
> <VConfSearch Rank>
253

> <Conf_Id>
119

> <Delta U+W>
3.538

> <U+W>
-26.761

> <U>
27.482

> <W>
-54.243

> <W(PB)>
-56.494

> <W(SA)>
2.251

> <Valence>
5.284

> <Coulomb>
21.247

> <VdW>
0.951

> <VdW6>
-9.416

> <VdW12>
10.367

> <Bond>
0.323

> <Angle>
2.522

> <Pdih>
2.439

> <Idih>
0.000

> <Tether>
0.000

$$$$
VeraChem MOL file


 26 25  0  0  0  0  0  0  0  0999 V2000     
   22.3741   20.8144   21.1933 C   0  0  0  0  0  0  0  0  0  0  0  0
   22.0113   20.7990   20.1574 H   0  0  0  0  0  0  0  0  0  0  0  0
   21.8243   21.5909   21.7394 H   0  0  0  0  0  0  0  0  0  0  0  0
   23.4310   21.1104   21.1744 H   0  0  0  0  0  0  0  0  0  0  0  0
   22.2124   19.4292   21.8596 C   0  0  0  0  0  0  0  0  0  0  0  0
   22.5531   19.4793   22.9032 H   0  0  0  0  0  0  0  0  0  0  0  0
   22.8760   18.7137   21.3540 H   0  0  0  0  0  0  0  0  0  0  0  0
   20.7643   18.8851   21.8077 C   0  0  0  0  0  0  0  0  0  0  0  0
   20.4399   18.8123   20.7605 H   0  0  0  0  0  0  0  0  0  0  0  0
   20.7691   17.8596   22.1955 H   0  0  0  0  0  0  0  0  0  0  0  0
   19.7532   19.7495   22.6043 C   0  0  0  0  0  0  0  0  0  0  0  0
   19.6821   20.7329   22.1212 H   0  0  0  0  0  0  0  0  0  0  0  0
   20.1310   19.9370   23.6175 H   0  0  0  0  0  0  0  0  0  0  0  0
   18.3252   19.1377   22.6556 C   0  0  0  0  0  0  0  0  0  0  0  0
   17.5966   19.9571   22.5970 H   0  0  0  0  0  0  0  0  0  0  0  0
   18.1469   18.5288   21.7595 H   0  0  0  0  0  0  0  0  0  0  0  0
   17.9873   18.3065   23.9184 C   0  0  1  0  0  0  0  0  0  0  0  0
   16.9623   17.9420   23.7983 H   0  0  0  0  0  0  0  0  0  0  0  0
   18.8967   17.0786   24.0874 C   0  0  0  0  0  0  0  0  0  0  0  0
   19.9273   17.3708   24.3215 H   0  0  0  0  0  0  0  0  0  0  0  0
   18.9047   16.4704   23.1745 H   0  0  0  0  0  0  0  0  0  0  0  0
   18.5353   16.4441   24.9058 H   0  0  0  0  0  0  0  0  0  0  0  0
   17.9824   19.1446   25.1677 N   0  3  0  0  0  0  0  0  0  0  0  0
   17.3373   19.9357   25.0868 H   0  0  0  0  0  0  0  0  0  0  0  0
   17.6937   18.5976   25.9837 H   0  0  0  0  0  0  0  0  0  0  0  0
   18.9113   19.5240   25.3657 H   0  0  0  0  0  0  0  0  0  0  0  0
  1  2  1  0  0  0  0
  1  3  1  0  0  0  0
  1  4  1  0  0  0  0
  1  5  1  0  0  0  0
  5  6  1  0  0  0  0
  5  7  1  0  0  0  0
  5  8  1  0  0  0  0
  8  9  1  0  0  0  0
  8 10  1  0  0  0  0
  8 11  1  0  0  0  0
 11 12  1  0  0  0  0
 11 13  1  0  0  0  0
 11 14  1  0  0  0  0
 14 15  1  0  0  0  0
 14 16  1  0  0  0  0
 14 17  1  0  0  0  0
 17 18  1  0  0  0  0
 17 19  1  0  0  0  0
 19 20  1  0  0  0  0
 19 21  1  0  0  0  0
 19 22  1  0  0  0  0
 17 23  1  0  0  0  0
 23 24  1  0  0  0  0
 23 25  1  0  0  0  0
 23 26  1  0  0  0  0
M  END
> <VConfSearch Rank>
254

> <Conf_Id>
127

> <Delta U+W>
3.544

> <U+W>
-26.754

> <U>
27.509

> <W>
-54.263

> <W(PB)>
-56.496

> <W(SA)>
2.232

> <Valence>
6.375

> <Coulomb>
20.014

> <VdW>
1.120

> <VdW6>
-8.976

> <VdW12>
10.096

> <Bond>
0.304

> <Angle>
1.986

> <Pdih>
4.086

> <Idih>
0.000

> <Tether>
0.000

$$$$
VeraChem MOL file


 26 25  0  0  0  0  0  0  0  0999 V2000     
   22.0864   19.6076   25.2246 C   0  0  0  0  0  0  0  0  0  0  0  0
   22.3099   20.3510   26.0007 H   0  0  0  0  0  0  0  0  0  0  0  0
   22.8953   18.8655   25.2321 H   0  0  0  0  0  0  0  0  0  0  0  0
   22.1093   20.1207   24.2570 H   0  0  0  0  0  0  0  0  0  0  0  0
   20.7199   18.9362   25.4964 C   0  0  0  0  0  0  0  0  0  0  0  0
   19.9275   19.6947   25.5618 H   0  0  0  0  0  0  0  0  0  0  0  0
   20.7669   18.4631   26.4873 H   0  0  0  0  0  0  0  0  0  0  0  0
   20.3470   17.8546   24.4499 C   0  0  0  0  0  0  0  0  0  0  0  0
   21.2560   17.4004   24.0320 H   0  0  0  0  0  0  0  0  0  0  0  0
   19.8240   17.0411   24.9716 H   0  0  0  0  0  0  0  0  0  0  0  0
   19.4217   18.3450   23.3062 C   0  0  0  0  0  0  0  0  0  0  0  0
   18.4754   18.6968   23.7380 H   0  0  0  0  0  0  0  0  0  0  0  0
   19.1720   17.4761   22.6843 H   0  0  0  0  0  0  0  0  0  0  0  0
   20.0419   19.4593   22.4217 C   0  0  0  0  0  0  0  0  0  0  0  0
   20.1974   20.3578   23.0309 H   0  0  0  0  0  0  0  0  0  0  0  0
   21.0355   19.1430   22.0779 H   0  0  0  0  0  0  0  0  0  0  0  0
   19.1935   19.8645   21.1930 C   0  0  1  0  0  0  0  0  0  0  0  0
   19.7044   20.7028   20.7092 H   0  0  0  0  0  0  0  0  0  0  0  0
   19.0884   18.7296   20.1589 C   0  0  0  0  0  0  0  0  0  0  0  0
   20.0835   18.3559   19.8872 H   0  0  0  0  0  0  0  0  0  0  0  0
   18.6080   19.0912   19.2415 H   0  0  0  0  0  0  0  0  0  0  0  0
   18.4960   17.8879   20.5360 H   0  0  0  0  0  0  0  0  0  0  0  0
   17.8310   20.3725   21.5773 N   0  3  0  0  0  0  0  0  0  0  0  0
   17.8937   21.1601   22.2286 H   0  0  0  0  0  0  0  0  0  0  0  0
   17.3066   20.6935   20.7586 H   0  0  0  0  0  0  0  0  0  0  0  0
   17.2765   19.6415   22.0296 H   0  0  0  0  0  0  0  0  0  0  0  0
  1  2  1  0  0  0  0
  1  3  1  0  0  0  0
  1  4  1  0  0  0  0
  1  5  1  0  0  0  0
  5  6  1  0  0  0  0
  5  7  1  0  0  0  0
  5  8  1  0  0  0  0
  8  9  1  0  0  0  0
  8 10  1  0  0  0  0
  8 11  1  0  0  0  0
 11 12  1  0  0  0  0
 11 13  1  0  0  0  0
 11 14  1  0  0  0  0
 14 15  1  0  0  0  0
 14 16  1  0  0  0  0
 14 17  1  0  0  0  0
 17 18  1  0  0  0  0
 17 19  1  0  0  0  0
 19 20  1  0  0  0  0
 19 21  1  0  0  0  0
 19 22  1  0  0  0  0
 17 23  1  0  0  0  0
 23 24  1  0  0  0  0
 23 25  1  0  0  0  0
 23 26  1  0  0  0  0
M  END
> <VConfSearch Rank>
255

> <Conf_Id>
131

> <Delta U+W>
3.589

> <U+W>
-26.710

> <U>
27.573

> <W>
-54.283

> <W(PB)>
-56.537

> <W(SA)>
2.254

> <Valence>
6.363

> <Coulomb>
20.026

> <VdW>
1.184

> <VdW6>
-8.939

> <VdW12>
10.123

> <Bond>
0.298

> <Angle>
2.018

> <Pdih>
4.047

> <Idih>
0.000

> <Tether>
0.000

$$$$
VeraChem MOL file


 26 25  0  0  0  0  0  0  0  0999 V2000     
   22.3369   19.6717   24.0013 C   0  0  0  0  0  0  0  0  0  0  0  0
   22.3658   20.4562   23.2341 H   0  0  0  0  0  0  0  0  0  0  0  0
   21.3864   19.7457   24.5435 H   0  0  0  0  0  0  0  0  0  0  0  0
   23.1404   19.8757   24.7208 H   0  0  0  0  0  0  0  0  0  0  0  0
   22.5171   18.2719   23.3747 C   0  0  0  0  0  0  0  0  0  0  0  0
   22.4104   17.5068   24.1564 H   0  0  0  0  0  0  0  0  0  0  0  0
   23.5469   18.1831   23.0013 H   0  0  0  0  0  0  0  0  0  0  0  0
   21.5439   17.9627   22.2084 C   0  0  0  0  0  0  0  0  0  0  0  0
   21.7221   18.6559   21.3749 H   0  0  0  0  0  0  0  0  0  0  0  0
   21.7980   16.9657   21.8226 H   0  0  0  0  0  0  0  0  0  0  0  0
   20.0424   17.9606   22.5987 C   0  0  0  0  0  0  0  0  0  0  0  0
   19.9376   17.6560   23.6478 H   0  0  0  0  0  0  0  0  0  0  0  0
   19.5308   17.1907   22.0047 H   0  0  0  0  0  0  0  0  0  0  0  0
   19.3363   19.3174   22.3375 C   0  0  0  0  0  0  0  0  0  0  0  0
   19.8000   20.1158   22.9275 H   0  0  0  0  0  0  0  0  0  0  0  0
   19.4868   19.5879   21.2841 H   0  0  0  0  0  0  0  0  0  0  0  0
   17.8169   19.2890   22.6197 C   0  0  1  0  0  0  0  0  0  0  0  0
   17.3798   18.4533   22.0645 H   0  0  0  0  0  0  0  0  0  0  0  0
   17.5099   19.0955   24.1158 C   0  0  0  0  0  0  0  0  0  0  0  0
   17.9820   19.8783   24.7223 H   0  0  0  0  0  0  0  0  0  0  0  0
   17.8646   18.1224   24.4741 H   0  0  0  0  0  0  0  0  0  0  0  0
   16.4284   19.1319   24.2959 H   0  0  0  0  0  0  0  0  0  0  0  0
   17.1463   20.5341   22.1089 N   0  3  0  0  0  0  0  0  0  0  0  0
   17.4987   21.3704   22.5821 H   0  0  0  0  0  0  0  0  0  0  0  0
   17.3004   20.6608   21.1045 H   0  0  0  0  0  0  0  0  0  0  0  0
   16.1339   20.5021   22.2592 H   0  0  0  0  0  0  0  0  0  0  0  0
  1  2  1  0  0  0  0
  1  3  1  0  0  0  0
  1  4  1  0  0  0  0
  1  5  1  0  0  0  0
  5  6  1  0  0  0  0
  5  7  1  0  0  0  0
  5  8  1  0  0  0  0
  8  9  1  0  0  0  0
  8 10  1  0  0  0  0
  8 11  1  0  0  0  0
 11 12  1  0  0  0  0
 11 13  1  0  0  0  0
 11 14  1  0  0  0  0
 14 15  1  0  0  0  0
 14 16  1  0  0  0  0
 14 17  1  0  0  0  0
 17 18  1  0  0  0  0
 17 19  1  0  0  0  0
 19 20  1  0  0  0  0
 19 21  1  0  0  0  0
 19 22  1  0  0  0  0
 17 23  1  0  0  0  0
 23 24  1  0  0  0  0
 23 25  1  0  0  0  0
 23 26  1  0  0  0  0
M  END
> <VConfSearch Rank>
256

> <Conf_Id>
80

> <Delta U+W>
3.351

> <U+W>
-26.948

> <U>
27.261

> <W>
-54.209

> <W(PB)>
-56.471

> <W(SA)>
2.263

> <Valence>
6.230

> <Coulomb>
19.945

> <VdW>
1.087

> <VdW6>
-8.618

> <VdW12>
9.704

> <Bond>
0.277

> <Angle>
1.928

> <Pdih>
4.025

> <Idih>
0.000

> <Tether>
0.000

$$$$
VeraChem MOL file


 26 25  0  0  0  0  0  0  0  0999 V2000     
   17.4660   21.1863   22.0458 C   0  0  0  0  0  0  0  0  0  0  0  0
   16.3871   21.1110   21.8585 H   0  0  0  0  0  0  0  0  0  0  0  0
   17.7184   22.2510   22.1341 H   0  0  0  0  0  0  0  0  0  0  0  0
   17.9821   20.7808   21.1666 H   0  0  0  0  0  0  0  0  0  0  0  0
   17.8473   20.4162   23.3301 C   0  0  0  0  0  0  0  0  0  0  0  0
   17.6103   19.3516   23.2069 H   0  0  0  0  0  0  0  0  0  0  0  0
   17.2102   20.7680   24.1536 H   0  0  0  0  0  0  0  0  0  0  0  0
   19.3302   20.5971   23.7473 C   0  0  0  0  0  0  0  0  0  0  0  0
   19.4873   21.6510   24.0151 H   0  0  0  0  0  0  0  0  0  0  0  0
   19.5037   20.0331   24.6707 H   0  0  0  0  0  0  0  0  0  0  0  0
   20.3855   20.2081   22.6734 C   0  0  0  0  0  0  0  0  0  0  0  0
   21.3899   20.4498   23.0473 H   0  0  0  0  0  0  0  0  0  0  0  0
   20.2451   20.8578   21.7995 H   0  0  0  0  0  0  0  0  0  0  0  0
   20.3563   18.7279   22.1991 C   0  0  0  0  0  0  0  0  0  0  0  0
   19.3367   18.3273   22.2179 H   0  0  0  0  0  0  0  0  0  0  0  0
   20.6539   18.7172   21.1423 H   0  0  0  0  0  0  0  0  0  0  0  0
   21.3150   17.7748   22.9531 C   0  0  1  0  0  0  0  0  0  0  0  0
   22.3317   18.1686   22.8582 H   0  0  0  0  0  0  0  0  0  0  0  0
   20.9867   17.6529   24.4502 C   0  0  0  0  0  0  0  0  0  0  0  0
   21.1999   18.5909   24.9747 H   0  0  0  0  0  0  0  0  0  0  0  0
   21.6031   16.8770   24.9205 H   0  0  0  0  0  0  0  0  0  0  0  0
   19.9324   17.3933   24.6075 H   0  0  0  0  0  0  0  0  0  0  0  0
   21.3300   16.4138   22.3137 N   0  3  0  0  0  0  0  0  0  0  0  0
   21.5937   16.4639   21.3255 H   0  0  0  0  0  0  0  0  0  0  0  0
   21.9989   15.7911   22.7755 H   0  0  0  0  0  0  0  0  0  0  0  0
   20.4110   15.9664   22.3648 H   0  0  0  0  0  0  0  0  0  0  0  0
  1  2  1  0  0  0  0
  1  3  1  0  0  0  0
  1  4  1  0  0  0  0
  1  5  1  0  0  0  0
  5  6  1  0  0  0  0
  5  7  1  0  0  0  0
  5  8  1  0  0  0  0
  8  9  1  0  0  0  0
  8 10  1  0  0  0  0
  8 11  1  0  0  0  0
 11 12  1  0  0  0  0
 11 13  1  0  0  0  0
 11 14  1  0  0  0  0
 14 15  1  0  0  0  0
 14 16  1  0  0  0  0
 14 17  1  0  0  0  0
 17 18  1  0  0  0  0
 17 19  1  0  0  0  0
 19 20  1  0  0  0  0
 19 21  1  0  0  0  0
 19 22  1  0  0  0  0
 17 23  1  0  0  0  0
 23 24  1  0  0  0  0
 23 25  1  0  0  0  0
 23 26  1  0  0  0  0
M  END
> <VConfSearch Rank>
257

> <Conf_Id>
136

> <Delta U+W>
4.272

> <U+W>
-26.026

> <U>
28.262

> <W>
-54.288

> <W(PB)>
-56.488

> <W(SA)>
2.200

> <Valence>
7.096

> <Coulomb>
19.990

> <VdW>
1.175

> <VdW6>
-9.404

> <VdW12>
10.580

> <Bond>
0.360

> <Angle>
2.785

> <Pdih>
3.951

> <Idih>
0.000

> <Tether>
0.000

$$$$
VeraChem MOL file


 26 25  0  0  0  0  0  0  0  0999 V2000     
   18.3471   16.6962   23.7101 C   0  0  0  0  0  0  0  0  0  0  0  0
   17.8516   17.6189   23.3839 H   0  0  0  0  0  0  0  0  0  0  0  0
   17.5759   15.9186   23.7834 H   0  0  0  0  0  0  0  0  0  0  0  0
   18.7594   16.8557   24.7148 H   0  0  0  0  0  0  0  0  0  0  0  0
   19.4499   16.2699   22.7165 C   0  0  0  0  0  0  0  0  0  0  0  0
   19.0166   16.1731   21.7112 H   0  0  0  0  0  0  0  0  0  0  0  0
   19.8040   15.2668   22.9926 H   0  0  0  0  0  0  0  0  0  0  0  0
   20.6695   17.2254   22.6665 C   0  0  0  0  0  0  0  0  0  0  0  0
   21.1709   17.2498   23.6439 H   0  0  0  0  0  0  0  0  0  0  0  0
   21.4003   16.7914   21.9701 H   0  0  0  0  0  0  0  0  0  0  0  0
   20.3446   18.6656   22.1911 C   0  0  0  0  0  0  0  0  0  0  0  0
   19.4735   18.6524   21.5215 H   0  0  0  0  0  0  0  0  0  0  0  0
   21.1889   19.0240   21.5873 H   0  0  0  0  0  0  0  0  0  0  0  0
   20.1133   19.6594   23.3591 C   0  0  0  0  0  0  0  0  0  0  0  0
   19.3447   19.2657   24.0335 H   0  0  0  0  0  0  0  0  0  0  0  0
   21.0310   19.7455   23.9560 H   0  0  0  0  0  0  0  0  0  0  0  0
   19.6764   21.0601   22.8780 C   0  0  1  0  0  0  0  0  0  0  0  0
   18.7762   20.9465   22.2662 H   0  0  0  0  0  0  0  0  0  0  0  0
   19.3328   21.9550   24.0796 C   0  0  0  0  0  0  0  0  0  0  0  0
   20.2058   22.1022   24.7277 H   0  0  0  0  0  0  0  0  0  0  0  0
   18.5316   21.5086   24.6819 H   0  0  0  0  0  0  0  0  0  0  0  0
   18.9864   22.9401   23.7437 H   0  0  0  0  0  0  0  0  0  0  0  0
   20.7111   21.7200   22.0077 N   0  3  0  0  0  0  0  0  0  0  0  0
   21.5902   21.8591   22.5128 H   0  0  0  0  0  0  0  0  0  0  0  0
   20.9172   21.1562   21.1788 H   0  0  0  0  0  0  0  0  0  0  0  0
   20.3959   22.6383   21.6824 H   0  0  0  0  0  0  0  0  0  0  0  0
  1  2  1  0  0  0  0
  1  3  1  0  0  0  0
  1  4  1  0  0  0  0
  1  5  1  0  0  0  0
  5  6  1  0  0  0  0
  5  7  1  0  0  0  0
  5  8  1  0  0  0  0
  8  9  1  0  0  0  0
  8 10  1  0  0  0  0
  8 11  1  0  0  0  0
 11 12  1  0  0  0  0
 11 13  1  0  0  0  0
 11 14  1  0  0  0  0
 14 15  1  0  0  0  0
 14 16  1  0  0  0  0
 14 17  1  0  0  0  0
 17 18  1  0  0  0  0
 17 19  1  0  0  0  0
 19 20  1  0  0  0  0
 19 21  1  0  0  0  0
 19 22  1  0  0  0  0
 17 23  1  0  0  0  0
 23 24  1  0  0  0  0
 23 25  1  0  0  0  0
 23 26  1  0  0  0  0
M  END
> <VConfSearch Rank>
258

> <Conf_Id>
124

> <Delta U+W>
3.001

> <U+W>
-27.298

> <U>
26.787

> <W>
-54.085

> <W(PB)>
-56.347

> <W(SA)>
2.262

> <Valence>
5.742

> <Coulomb>
20.023

> <VdW>
1.022

> <VdW6>
-8.392

> <VdW12>
9.414

> <Bond>
0.261

> <Angle>
1.576

> <Pdih>
3.904

> <Idih>
0.000

> <Tether>
0.000

$$$$
VeraChem MOL file


 26 25  0  0  0  0  0  0  0  0999 V2000     
   21.5144   20.4804   20.5856 C   0  0  0  0  0  0  0  0  0  0  0  0
   22.3784   19.8835   20.2660 H   0  0  0  0  0  0  0  0  0  0  0  0
   21.5174   21.4093   20.0008 H   0  0  0  0  0  0  0  0  0  0  0  0
   21.6615   20.7504   21.6369 H   0  0  0  0  0  0  0  0  0  0  0  0
   20.1950   19.7051   20.3614 C   0  0  0  0  0  0  0  0  0  0  0  0
   20.1036   19.4982   19.2859 H   0  0  0  0  0  0  0  0  0  0  0  0
   19.3329   20.3347   20.6219 H   0  0  0  0  0  0  0  0  0  0  0  0
   20.1320   18.3594   21.1292 C   0  0  0  0  0  0  0  0  0  0  0  0
   19.5874   17.6367   20.5058 H   0  0  0  0  0  0  0  0  0  0  0  0
   21.1414   17.9428   21.2504 H   0  0  0  0  0  0  0  0  0  0  0  0
   19.4126   18.4250   22.5013 C   0  0  0  0  0  0  0  0  0  0  0  0
   19.3588   17.4050   22.9032 H   0  0  0  0  0  0  0  0  0  0  0  0
   18.3751   18.7486   22.3439 H   0  0  0  0  0  0  0  0  0  0  0  0
   20.1016   19.3541   23.5356 C   0  0  0  0  0  0  0  0  0  0  0  0
   21.1734   19.1205   23.5765 H   0  0  0  0  0  0  0  0  0  0  0  0
   20.0240   20.3946   23.1969 H   0  0  0  0  0  0  0  0  0  0  0  0
   19.5252   19.2711   24.9689 C   0  0  1  0  0  0  0  0  0  0  0  0
   20.0930   19.9722   25.5885 H   0  0  0  0  0  0  0  0  0  0  0  0
   18.0468   19.6941   25.0221 C   0  0  0  0  0  0  0  0  0  0  0  0
   17.4023   18.9811   24.4941 H   0  0  0  0  0  0  0  0  0  0  0  0
   17.9080   20.6838   24.5696 H   0  0  0  0  0  0  0  0  0  0  0  0
   17.7014   19.7523   26.0615 H   0  0  0  0  0  0  0  0  0  0  0  0
   19.7210   17.9154   25.5905 N   0  3  0  0  0  0  0  0  0  0  0  0
   19.3922   17.8974   26.5600 H   0  0  0  0  0  0  0  0  0  0  0  0
   19.2073   17.1937   25.0793 H   0  0  0  0  0  0  0  0  0  0  0  0
   20.7085   17.6446   25.5978 H   0  0  0  0  0  0  0  0  0  0  0  0
  1  2  1  0  0  0  0
  1  3  1  0  0  0  0
  1  4  1  0  0  0  0
  1  5  1  0  0  0  0
  5  6  1  0  0  0  0
  5  7  1  0  0  0  0
  5  8  1  0  0  0  0
  8  9  1  0  0  0  0
  8 10  1  0  0  0  0
  8 11  1  0  0  0  0
 11 12  1  0  0  0  0
 11 13  1  0  0  0  0
 11 14  1  0  0  0  0
 14 15  1  0  0  0  0
 14 16  1  0  0  0  0
 14 17  1  0  0  0  0
 17 18  1  0  0  0  0
 17 19  1  0  0  0  0
 19 20  1  0  0  0  0
 19 21  1  0  0  0  0
 19 22  1  0  0  0  0
 17 23  1  0  0  0  0
 23 24  1  0  0  0  0
 23 25  1  0  0  0  0
 23 26  1  0  0  0  0
M  END
> <VConfSearch Rank>
259

> <Conf_Id>
105

> <Delta U+W>
3.442

> <U+W>
-26.857

> <U>
27.313

> <W>
-54.169

> <W(PB)>
-56.414

> <W(SA)>
2.245

> <Valence>
6.229

> <Coulomb>
19.943

> <VdW>
1.140

> <VdW6>
-9.001

> <VdW12>
10.140

> <Bond>
0.294

> <Angle>
1.969

> <Pdih>
3.967

> <Idih>
0.000

> <Tether>
0.000

$$$$
VeraChem MOL file


 26 25  0  0  0  0  0  0  0  0999 V2000     
   19.2948   21.5135   24.8125 C   0  0  0  0  0  0  0  0  0  0  0  0
   19.6031   22.4953   24.4304 H   0  0  0  0  0  0  0  0  0  0  0  0
   19.0061   21.6416   25.8638 H   0  0  0  0  0  0  0  0  0  0  0  0
   20.1679   20.8525   24.7875 H   0  0  0  0  0  0  0  0  0  0  0  0
   18.1114   20.9488   23.9924 C   0  0  0  0  0  0  0  0  0  0  0  0
   17.2675   21.6456   24.0942 H   0  0  0  0  0  0  0  0  0  0  0  0
   17.7697   19.9963   24.4208 H   0  0  0  0  0  0  0  0  0  0  0  0
   18.4300   20.7786   22.4846 C   0  0  0  0  0  0  0  0  0  0  0  0
   17.5146   20.9940   21.9162 H   0  0  0  0  0  0  0  0  0  0  0  0
   19.1614   21.5328   22.1629 H   0  0  0  0  0  0  0  0  0  0  0  0
   18.9084   19.3614   22.0760 C   0  0  0  0  0  0  0  0  0  0  0  0
   19.0281   19.3411   20.9838 H   0  0  0  0  0  0  0  0  0  0  0  0
   18.1193   18.6353   22.3129 H   0  0  0  0  0  0  0  0  0  0  0  0
   20.2400   18.9245   22.7349 C   0  0  0  0  0  0  0  0  0  0  0  0
   20.9783   19.7282   22.6139 H   0  0  0  0  0  0  0  0  0  0  0  0
   20.0934   18.7822   23.8128 H   0  0  0  0  0  0  0  0  0  0  0  0
   20.8120   17.6260   22.1265 C   0  0  1  0  0  0  0  0  0  0  0  0
   20.9360   17.7776   21.0498 H   0  0  0  0  0  0  0  0  0  0  0  0
   22.1901   17.3142   22.7316 C   0  0  0  0  0  0  0  0  0  0  0  0
   22.1207   17.1503   23.8143 H   0  0  0  0  0  0  0  0  0  0  0  0
   22.8894   18.1411   22.5554 H   0  0  0  0  0  0  0  0  0  0  0  0
   22.6192   16.4131   22.2763 H   0  0  0  0  0  0  0  0  0  0  0  0
   19.8834   16.4544   22.2945 N   0  3  0  0  0  0  0  0  0  0  0  0
   18.9747   16.6324   21.8586 H   0  0  0  0  0  0  0  0  0  0  0  0
   20.2678   15.6077   21.8658 H   0  0  0  0  0  0  0  0  0  0  0  0
   19.7165   16.2489   23.2830 H   0  0  0  0  0  0  0  0  0  0  0  0
  1  2  1  0  0  0  0
  1  3  1  0  0  0  0
  1  4  1  0  0  0  0
  1  5  1  0  0  0  0
  5  6  1  0  0  0  0
  5  7  1  0  0  0  0
  5  8  1  0  0  0  0
  8  9  1  0  0  0  0
  8 10  1  0  0  0  0
  8 11  1  0  0  0  0
 11 12  1  0  0  0  0
 11 13  1  0  0  0  0
 11 14  1  0  0  0  0
 14 15  1  0  0  0  0
 14 16  1  0  0  0  0
 14 17  1  0  0  0  0
 17 18  1  0  0  0  0
 17 19  1  0  0  0  0
 19 20  1  0  0  0  0
 19 21  1  0  0  0  0
 19 22  1  0  0  0  0
 17 23  1  0  0  0  0
 23 24  1  0  0  0  0
 23 25  1  0  0  0  0
 23 26  1  0  0  0  0
M  END
> <VConfSearch Rank>
260

> <Conf_Id>
107

> <Delta U+W>
2.995

> <U+W>
-27.304

> <U>
26.796

> <W>
-54.100

> <W(PB)>
-56.404

> <W(SA)>
2.304

> <Valence>
5.706

> <Coulomb>
20.107

> <VdW>
0.982

> <VdW6>
-8.396

> <VdW12>
9.378

> <Bond>
0.254

> <Angle>
1.644

> <Pdih>
3.808

> <Idih>
0.000

> <Tether>
0.000

$$$$
VeraChem MOL file


 26 25  0  0  0  0  0  0  0  0999 V2000     
   19.5373   20.8511   19.1457 C   0  0  0  0  0  0  0  0  0  0  0  0
   20.2278   20.1752   18.6245 H   0  0  0  0  0  0  0  0  0  0  0  0
   18.7445   21.1324   18.4404 H   0  0  0  0  0  0  0  0  0  0  0  0
   20.0880   21.7619   19.4145 H   0  0  0  0  0  0  0  0  0  0  0  0
   18.9384   20.1752   20.3973 C   0  0  0  0  0  0  0  0  0  0  0  0
   18.3660   19.2875   20.0935 H   0  0  0  0  0  0  0  0  0  0  0  0
   18.2273   20.8620   20.8773 H   0  0  0  0  0  0  0  0  0  0  0  0
   20.0342   19.7686   21.4075 C   0  0  0  0  0  0  0  0  0  0  0  0
   20.7440   19.0850   20.9215 H   0  0  0  0  0  0  0  0  0  0  0  0
   20.6047   20.6588   21.7068 H   0  0  0  0  0  0  0  0  0  0  0  0
   19.4385   19.0906   22.6621 C   0  0  0  0  0  0  0  0  0  0  0  0
   18.8712   18.1987   22.3616 H   0  0  0  0  0  0  0  0  0  0  0  0
   18.7258   19.7775   23.1376 H   0  0  0  0  0  0  0  0  0  0  0  0
   20.5389   18.6858   23.6729 C   0  0  0  0  0  0  0  0  0  0  0  0
   21.2701   18.0442   23.1633 H   0  0  0  0  0  0  0  0  0  0  0  0
   21.0842   19.5789   24.0061 H   0  0  0  0  0  0  0  0  0  0  0  0
   19.9827   17.9294   24.8989 C   0  0  1  0  0  0  0  0  0  0  0  0
   19.4247   17.0588   24.5404 H   0  0  0  0  0  0  0  0  0  0  0  0
   21.1341   17.4317   25.7873 C   0  0  0  0  0  0  0  0  0  0  0  0
   21.7265   18.2695   26.1759 H   0  0  0  0  0  0  0  0  0  0  0  0
   21.8048   16.7718   25.2231 H   0  0  0  0  0  0  0  0  0  0  0  0
   20.7474   16.8615   26.6410 H   0  0  0  0  0  0  0  0  0  0  0  0
   19.0192   18.7611   25.7010 N   0  3  0  0  0  0  0  0  0  0  0  0
   19.4701   19.6021   26.0709 H   0  0  0  0  0  0  0  0  0  0  0  0
   18.2225   19.0622   25.1337 H   0  0  0  0  0  0  0  0  0  0  0  0
   18.6465   18.2374   26.4981 H   0  0  0  0  0  0  0  0  0  0  0  0
  1  2  1  0  0  0  0
  1  3  1  0  0  0  0
  1  4  1  0  0  0  0
  1  5  1  0  0  0  0
  5  6  1  0  0  0  0
  5  7  1  0  0  0  0
  5  8  1  0  0  0  0
  8  9  1  0  0  0  0
  8 10  1  0  0  0  0
  8 11  1  0  0  0  0
 11 12  1  0  0  0  0
 11 13  1  0  0  0  0
 11 14  1  0  0  0  0
 14 15  1  0  0  0  0
 14 16  1  0  0  0  0
 14 17  1  0  0  0  0
 17 18  1  0  0  0  0
 17 19  1  0  0  0  0
 19 20  1  0  0  0  0
 19 21  1  0  0  0  0
 19 22  1  0  0  0  0
 17 23  1  0  0  0  0
 23 24  1  0  0  0  0
 23 25  1  0  0  0  0
 23 26  1  0  0  0  0
M  END
> <VConfSearch Rank>
261

> <Conf_Id>
122

> <Delta U+W>
0.000

> <U+W>
-30.299

> <U>
23.517

> <W>
-53.816

> <W(PB)>
-56.162

> <W(SA)>
2.346

> <Valence>
2.737

> <Coulomb>
19.862

> <VdW>
0.919

> <VdW6>
-6.793

> <VdW12>
7.712

> <Bond>
0.171

> <Angle>
0.873

> <Pdih>
1.693

> <Idih>
0.000

> <Tether>
0.000

$$$$
VeraChem MOL file


 26 25  0  0  0  0  0  0  0  0999 V2000     
   23.5342   20.7983   21.9353 C   0  0  0  0  0  0  0  0  0  0  0  0
   24.1634   21.6395   22.2538 H   0  0  0  0  0  0  0  0  0  0  0  0
   24.1275   19.8793   22.0288 H   0  0  0  0  0  0  0  0  0  0  0  0
   23.2913   20.9420   20.8743 H   0  0  0  0  0  0  0  0  0  0  0  0
   22.2529   20.7210   22.7922 C   0  0  0  0  0  0  0  0  0  0  0  0
   21.6987   21.6661   22.7050 H   0  0  0  0  0  0  0  0  0  0  0  0
   22.5283   20.6115   23.8506 H   0  0  0  0  0  0  0  0  0  0  0  0
   21.3484   19.5441   22.3642 C   0  0  0  0  0  0  0  0  0  0  0  0
   21.0773   19.6569   21.3053 H   0  0  0  0  0  0  0  0  0  0  0  0
   21.9085   18.6027   22.4502 H   0  0  0  0  0  0  0  0  0  0  0  0
   20.0642   19.4632   23.2205 C   0  0  0  0  0  0  0  0  0  0  0  0
   19.5175   20.4113   23.1339 H   0  0  0  0  0  0  0  0  0  0  0  0
   20.3362   19.3456   24.2787 H   0  0  0  0  0  0  0  0  0  0  0  0
   19.1577   18.2852   22.7860 C   0  0  0  0  0  0  0  0  0  0  0  0
   18.8304   18.4329   21.7482 H   0  0  0  0  0  0  0  0  0  0  0  0
   19.7541   17.3634   22.7959 H   0  0  0  0  0  0  0  0  0  0  0  0
   17.9248   18.0791   23.6958 C   0  0  1  0  0  0  0  0  0  0  0  0
   18.2736   17.9765   24.7280 H   0  0  0  0  0  0  0  0  0  0  0  0
   16.9477   19.2666   23.6275 C   0  0  0  0  0  0  0  0  0  0  0  0
   16.6179   19.4505   22.5974 H   0  0  0  0  0  0  0  0  0  0  0  0
   17.4078   20.1847   24.0106 H   0  0  0  0  0  0  0  0  0  0  0  0
   16.0585   19.0707   24.2392 H   0  0  0  0  0  0  0  0  0  0  0  0
   17.2115   16.7987   23.3603 N   0  3  0  0  0  0  0  0  0  0  0  0
   16.8479   16.8121   22.4036 H   0  0  0  0  0  0  0  0  0  0  0  0
   17.8320   15.9882   23.4422 H   0  0  0  0  0  0  0  0  0  0  0  0
   16.4173   16.6378   23.9863 H   0  0  0  0  0  0  0  0  0  0  0  0
  1  2  1  0  0  0  0
  1  3  1  0  0  0  0
  1  4  1  0  0  0  0
  1  5  1  0  0  0  0
  5  6  1  0  0  0  0
  5  7  1  0  0  0  0
  5  8  1  0  0  0  0
  8  9  1  0  0  0  0
  8 10  1  0  0  0  0
  8 11  1  0  0  0  0
 11 12  1  0  0  0  0
 11 13  1  0  0  0  0
 11 14  1  0  0  0  0
 14 15  1  0  0  0  0
 14 16  1  0  0  0  0
 14 17  1  0  0  0  0
 17 18  1  0  0  0  0
 17 19  1  0  0  0  0
 19 20  1  0  0  0  0
 19 21  1  0  0  0  0
 19 22  1  0  0  0  0
 17 23  1  0  0  0  0
 23 24  1  0  0  0  0
 23 25  1  0  0  0  0
 23 26  1  0  0  0  0
M  END
> <VConfSearch Rank>
262

> <Conf_Id>
54

> <Delta U+W>
0.453

> <U+W>
-29.845

> <U>
23.817

> <W>
-53.663

> <W(PB)>
-56.021

> <W(SA)>
2.358

> <Valence>
3.277

> <Coulomb>
19.492

> <VdW>
1.049

> <VdW6>
-6.949

> <VdW12>
7.998

> <Bond>
0.183

> <Angle>
1.152

> <Pdih>
1.942

> <Idih>
0.000

> <Tether>
0.000

$$$$
VeraChem MOL file


 26 25  0  0  0  0  0  0  0  0999 V2000     
   20.2779   15.7517   24.3277 C   0  0  0  0  0  0  0  0  0  0  0  0
   19.6766   15.3277   23.5129 H   0  0  0  0  0  0  0  0  0  0  0  0
   21.2996   15.9027   23.9587 H   0  0  0  0  0  0  0  0  0  0  0  0
   20.3261   15.0057   25.1314 H   0  0  0  0  0  0  0  0  0  0  0  0
   19.6575   17.0679   24.8497 C   0  0  0  0  0  0  0  0  0  0  0  0
   20.2939   17.4909   25.6397 H   0  0  0  0  0  0  0  0  0  0  0  0
   18.6934   16.8363   25.3238 H   0  0  0  0  0  0  0  0  0  0  0  0
   19.4224   18.1241   23.7425 C   0  0  0  0  0  0  0  0  0  0  0  0
   18.8109   17.6848   22.9422 H   0  0  0  0  0  0  0  0  0  0  0  0
   18.8363   18.9385   24.1847 H   0  0  0  0  0  0  0  0  0  0  0  0
   20.7341   18.7003   23.1520 C   0  0  0  0  0  0  0  0  0  0  0  0
   21.3786   17.8746   22.8253 H   0  0  0  0  0  0  0  0  0  0  0  0
   21.2895   19.2259   23.9411 H   0  0  0  0  0  0  0  0  0  0  0  0
   20.5418   19.6477   21.9382 C   0  0  0  0  0  0  0  0  0  0  0  0
   21.5438   19.8947   21.5626 H   0  0  0  0  0  0  0  0  0  0  0  0
   20.0391   19.1166   21.1193 H   0  0  0  0  0  0  0  0  0  0  0  0
   19.7929   20.9651   22.2514 C   0  0  1  0  0  0  0  0  0  0  0  0
   20.1061   21.3140   23.2402 H   0  0  0  0  0  0  0  0  0  0  0  0
   20.1582   22.0472   21.2217 C   0  0  0  0  0  0  0  0  0  0  0  0
   19.6419   22.9885   21.4470 H   0  0  0  0  0  0  0  0  0  0  0  0
   19.8797   21.7388   20.2061 H   0  0  0  0  0  0  0  0  0  0  0  0
   21.2363   22.2507   21.2339 H   0  0  0  0  0  0  0  0  0  0  0  0
   18.2989   20.7913   22.2932 N   0  3  0  0  0  0  0  0  0  0  0  0
   18.0223   20.0828   22.9762 H   0  0  0  0  0  0  0  0  0  0  0  0
   17.8280   21.6647   22.5461 H   0  0  0  0  0  0  0  0  0  0  0  0
   17.9333   20.5001   21.3827 H   0  0  0  0  0  0  0  0  0  0  0  0
  1  2  1  0  0  0  0
  1  3  1  0  0  0  0
  1  4  1  0  0  0  0
  1  5  1  0  0  0  0
  5  6  1  0  0  0  0
  5  7  1  0  0  0  0
  5  8  1  0  0  0  0
  8  9  1  0  0  0  0
  8 10  1  0  0  0  0
  8 11  1  0  0  0  0
 11 12  1  0  0  0  0
 11 13  1  0  0  0  0
 11 14  1  0  0  0  0
 14 15  1  0  0  0  0
 14 16  1  0  0  0  0
 14 17  1  0  0  0  0
 17 18  1  0  0  0  0
 17 19  1  0  0  0  0
 19 20  1  0  0  0  0
 19 21  1  0  0  0  0
 19 22  1  0  0  0  0
 17 23  1  0  0  0  0
 23 24  1  0  0  0  0
 23 25  1  0  0  0  0
 23 26  1  0  0  0  0
M  END
> <VConfSearch Rank>
263

> <Conf_Id>
110

> <Delta U+W>
3.764

> <U+W>
-26.535

> <U>
27.400

> <W>
-53.935

> <W(PB)>
-56.238

> <W(SA)>
2.303

> <Valence>
5.205

> <Coulomb>
21.096

> <VdW>
1.098

> <VdW6>
-8.389

> <VdW12>
9.488

> <Bond>
0.270

> <Angle>
1.912

> <Pdih>
3.023

> <Idih>
0.000

> <Tether>
0.000

$$$$
VeraChem MOL file


 26 25  0  0  0  0  0  0  0  0999 V2000     
   17.8963   22.2838   23.2089 C   0  0  0  0  0  0  0  0  0  0  0  0
   16.9547   22.8267   23.0553 H   0  0  0  0  0  0  0  0  0  0  0  0
   17.8960   21.9087   24.2398 H   0  0  0  0  0  0  0  0  0  0  0  0
   18.7192   23.0027   23.1040 H   0  0  0  0  0  0  0  0  0  0  0  0
   18.0300   21.1329   22.1861 C   0  0  0  0  0  0  0  0  0  0  0  0
   17.9026   21.5420   21.1741 H   0  0  0  0  0  0  0  0  0  0  0  0
   17.2126   20.4129   22.3315 H   0  0  0  0  0  0  0  0  0  0  0  0
   19.3912   20.3998   22.2578 C   0  0  0  0  0  0  0  0  0  0  0  0
   19.4410   19.6834   21.4291 H   0  0  0  0  0  0  0  0  0  0  0  0
   20.2025   21.1202   22.0842 H   0  0  0  0  0  0  0  0  0  0  0  0
   19.6270   19.6706   23.6057 C   0  0  0  0  0  0  0  0  0  0  0  0
   18.7599   19.0466   23.8624 H   0  0  0  0  0  0  0  0  0  0  0  0
   19.7047   20.4245   24.4003 H   0  0  0  0  0  0  0  0  0  0  0  0
   20.9223   18.8160   23.6229 C   0  0  0  0  0  0  0  0  0  0  0  0
   21.6586   19.2254   22.9185 H   0  0  0  0  0  0  0  0  0  0  0  0
   21.3750   18.9140   24.6185 H   0  0  0  0  0  0  0  0  0  0  0  0
   20.7077   17.3064   23.3562 C   0  0  1  0  0  0  0  0  0  0  0  0
   20.0049   16.9261   24.1039 H   0  0  0  0  0  0  0  0  0  0  0  0
   20.1234   17.0229   21.9620 C   0  0  0  0  0  0  0  0  0  0  0  0
   20.7486   17.4583   21.1726 H   0  0  0  0  0  0  0  0  0  0  0  0
   19.1100   17.4306   21.8696 H   0  0  0  0  0  0  0  0  0  0  0  0
   20.0537   15.9427   21.7841 H   0  0  0  0  0  0  0  0  0  0  0  0
   21.9855   16.5379   23.5497 N   0  3  0  0  0  0  0  0  0  0  0  0
   22.3683   16.6724   24.4900 H   0  0  0  0  0  0  0  0  0  0  0  0
   21.8404   15.5324   23.4216 H   0  0  0  0  0  0  0  0  0  0  0  0
   22.7030   16.8302   22.8810 H   0  0  0  0  0  0  0  0  0  0  0  0
  1  2  1  0  0  0  0
  1  3  1  0  0  0  0
  1  4  1  0  0  0  0
  1  5  1  0  0  0  0
  5  6  1  0  0  0  0
  5  7  1  0  0  0  0
  5  8  1  0  0  0  0
  8  9  1  0  0  0  0
  8 10  1  0  0  0  0
  8 11  1  0  0  0  0
 11 12  1  0  0  0  0
 11 13  1  0  0  0  0
 11 14  1  0  0  0  0
 14 15  1  0  0  0  0
 14 16  1  0  0  0  0
 14 17  1  0  0  0  0
 17 18  1  0  0  0  0
 17 19  1  0  0  0  0
 19 20  1  0  0  0  0
 19 21  1  0  0  0  0
 19 22  1  0  0  0  0
 17 23  1  0  0  0  0
 23 24  1  0  0  0  0
 23 25  1  0  0  0  0
 23 26  1  0  0  0  0
M  END
> <VConfSearch Rank>
264

> <Conf_Id>
34

> <Delta U+W>
3.568

> <U+W>
-26.731

> <U>
27.221

> <W>
-53.952

> <W(PB)>
-56.213

> <W(SA)>
2.261

> <Valence>
6.368

> <Coulomb>
19.698

> <VdW>
1.155

> <VdW6>
-8.532

> <VdW12>
9.687

> <Bond>
0.272

> <Angle>
1.847

> <Pdih>
4.248

> <Idih>
0.000

> <Tether>
0.000

$$$$
VeraChem MOL file


 26 25  0  0  0  0  0  0  0  0999 V2000     
   18.3257   16.7365   25.8926 C   0  0  0  0  0  0  0  0  0  0  0  0
   17.4477   16.3493   25.3593 H   0  0  0  0  0  0  0  0  0  0  0  0
   19.1021   15.9604   25.8818 H   0  0  0  0  0  0  0  0  0  0  0  0
   18.0363   16.9091   26.9374 H   0  0  0  0  0  0  0  0  0  0  0  0
   18.8367   18.0415   25.2460 C   0  0  0  0  0  0  0  0  0  0  0  0
   19.6927   18.4220   25.8207 H   0  0  0  0  0  0  0  0  0  0  0  0
   18.0511   18.8080   25.3022 H   0  0  0  0  0  0  0  0  0  0  0  0
   19.2511   17.8261   23.7734 C   0  0  0  0  0  0  0  0  0  0  0  0
   20.0345   17.0573   23.7227 H   0  0  0  0  0  0  0  0  0  0  0  0
   18.3928   17.4432   23.2040 H   0  0  0  0  0  0  0  0  0  0  0  0
   19.7632   19.1307   23.1220 C   0  0  0  0  0  0  0  0  0  0  0  0
   20.6190   19.5083   23.6970 H   0  0  0  0  0  0  0  0  0  0  0  0
   18.9753   19.8930   23.1822 H   0  0  0  0  0  0  0  0  0  0  0  0
   20.1746   18.9080   21.6432 C   0  0  0  0  0  0  0  0  0  0  0  0
   20.9265   18.1094   21.5946 H   0  0  0  0  0  0  0  0  0  0  0  0
   19.3082   18.5417   21.0768 H   0  0  0  0  0  0  0  0  0  0  0  0
   20.7427   20.1575   20.9292 C   0  0  1  0  0  0  0  0  0  0  0  0
   21.0175   19.8545   19.9141 H   0  0  0  0  0  0  0  0  0  0  0  0
   19.6987   21.2818   20.8119 C   0  0  0  0  0  0  0  0  0  0  0  0
   19.4451   21.7043   21.7913 H   0  0  0  0  0  0  0  0  0  0  0  0
   18.7765   20.9108   20.3477 H   0  0  0  0  0  0  0  0  0  0  0  0
   20.0816   22.0965   20.1851 H   0  0  0  0  0  0  0  0  0  0  0  0
   22.0068   20.6606   21.5703 N   0  3  0  0  0  0  0  0  0  0  0  0
   22.4032   21.4476   21.0489 H   0  0  0  0  0  0  0  0  0  0  0  0
   21.8367   20.9810   22.5267 H   0  0  0  0  0  0  0  0  0  0  0  0
   22.7232   19.9301   21.6123 H   0  0  0  0  0  0  0  0  0  0  0  0
  1  2  1  0  0  0  0
  1  3  1  0  0  0  0
  1  4  1  0  0  0  0
  1  5  1  0  0  0  0
  5  6  1  0  0  0  0
  5  7  1  0  0  0  0
  5  8  1  0  0  0  0
  8  9  1  0  0  0  0
  8 10  1  0  0  0  0
  8 11  1  0  0  0  0
 11 12  1  0  0  0  0
 11 13  1  0  0  0  0
 11 14  1  0  0  0  0
 14 15  1  0  0  0  0
 14 16  1  0  0  0  0
 14 17  1  0  0  0  0
 17 18  1  0  0  0  0
 17 19  1  0  0  0  0
 19 20  1  0  0  0  0
 19 21  1  0  0  0  0
 19 22  1  0  0  0  0
 17 23  1  0  0  0  0
 23 24  1  0  0  0  0
 23 25  1  0  0  0  0
 23 26  1  0  0  0  0
M  END
> <VConfSearch Rank>
265

> <Conf_Id>
132

> <Delta U+W>
0.363

> <U+W>
-29.936

> <U>
24.060

> <W>
-53.996

> <W(PB)>
-56.327

> <W(SA)>
2.332

> <Valence>
3.249

> <Coulomb>
19.781

> <VdW>
1.030

> <VdW6>
-7.421

> <VdW12>
8.451

> <Bond>
0.207

> <Angle>
1.205

> <Pdih>
1.837

> <Idih>
0.000

> <Tether>
0.000

$$$$
VeraChem MOL file


 26 25  0  0  0  0  0  0  0  0999 V2000     
   19.9745   22.0347   20.3103 C   0  0  0  0  0  0  0  0  0  0  0  0
   20.3603   21.9302   19.2879 H   0  0  0  0  0  0  0  0  0  0  0  0
   18.9740   22.4825   20.2484 H   0  0  0  0  0  0  0  0  0  0  0  0
   20.6291   22.7331   20.8478 H   0  0  0  0  0  0  0  0  0  0  0  0
   19.9267   20.6637   21.0176 C   0  0  0  0  0  0  0  0  0  0  0  0
   20.9358   20.2312   21.0221 H   0  0  0  0  0  0  0  0  0  0  0  0
   19.2885   19.9792   20.4415 H   0  0  0  0  0  0  0  0  0  0  0  0
   19.3898   20.7869   22.4633 C   0  0  0  0  0  0  0  0  0  0  0  0
   20.0590   21.4276   23.0541 H   0  0  0  0  0  0  0  0  0  0  0  0
   18.4174   21.2981   22.4389 H   0  0  0  0  0  0  0  0  0  0  0  0
   19.2086   19.4251   23.1781 C   0  0  0  0  0  0  0  0  0  0  0  0
   18.5336   18.7937   22.5854 H   0  0  0  0  0  0  0  0  0  0  0  0
   18.7008   19.6112   24.1332 H   0  0  0  0  0  0  0  0  0  0  0  0
   20.5479   18.6819   23.4373 C   0  0  0  0  0  0  0  0  0  0  0  0
   21.0408   18.4673   22.4814 H   0  0  0  0  0  0  0  0  0  0  0  0
   21.2298   19.3427   23.9886 H   0  0  0  0  0  0  0  0  0  0  0  0
   20.4131   17.3488   24.2109 C   0  0  1  0  0  0  0  0  0  0  0  0
   21.4130   16.9084   24.2740 H   0  0  0  0  0  0  0  0  0  0  0  0
   19.9091   17.5596   25.6496 C   0  0  0  0  0  0  0  0  0  0  0  0
   18.8686   17.9043   25.6701 H   0  0  0  0  0  0  0  0  0  0  0  0
   20.5271   18.2980   26.1752 H   0  0  0  0  0  0  0  0  0  0  0  0
   19.9609   16.6209   26.2146 H   0  0  0  0  0  0  0  0  0  0  0  0
   19.5613   16.3457   23.4825 N   0  3  0  0  0  0  0  0  0  0  0  0
   19.9175   16.1645   22.5399 H   0  0  0  0  0  0  0  0  0  0  0  0
   19.5336   15.4493   23.9766 H   0  0  0  0  0  0  0  0  0  0  0  0
   18.5972   16.6749   23.3900 H   0  0  0  0  0  0  0  0  0  0  0  0
  1  2  1  0  0  0  0
  1  3  1  0  0  0  0
  1  4  1  0  0  0  0
  1  5  1  0  0  0  0
  5  6  1  0  0  0  0
  5  7  1  0  0  0  0
  5  8  1  0  0  0  0
  8  9  1  0  0  0  0
  8 10  1  0  0  0  0
  8 11  1  0  0  0  0
 11 12  1  0  0  0  0
 11 13  1  0  0  0  0
 11 14  1  0  0  0  0
 14 15  1  0  0  0  0
 14 16  1  0  0  0  0
 14 17  1  0  0  0  0
 17 18  1  0  0  0  0
 17 19  1  0  0  0  0
 19 20  1  0  0  0  0
 19 21  1  0  0  0  0
 19 22  1  0  0  0  0
 17 23  1  0  0  0  0
 23 24  1  0  0  0  0
 23 25  1  0  0  0  0
 23 26  1  0  0  0  0
M  END
> <VConfSearch Rank>
266

> <Conf_Id>
46

> <Delta U+W>
1.114

> <U+W>
-29.185

> <U>
24.990

> <W>
-54.175

> <W(PB)>
-56.455

> <W(SA)>
2.279

> <Valence>
3.862

> <Coulomb>
19.956

> <VdW>
1.172

> <VdW6>
-8.054

> <VdW12>
9.226

> <Bond>
0.258

> <Angle>
1.499

> <Pdih>
2.106

> <Idih>
0.000

> <Tether>
0.000

$$$$
VeraChem MOL file


 26 25  0  0  0  0  0  0  0  0999 V2000     
   16.3437   20.1773   23.2842 C   0  0  0  0  0  0  0  0  0  0  0  0
   16.7114   20.3898   24.2956 H   0  0  0  0  0  0  0  0  0  0  0  0
   16.4360   21.0921   22.6845 H   0  0  0  0  0  0  0  0  0  0  0  0
   15.2759   19.9365   23.3663 H   0  0  0  0  0  0  0  0  0  0  0  0
   17.1132   19.0056   22.6332 C   0  0  0  0  0  0  0  0  0  0  0  0
   16.6265   18.7496   21.6817 H   0  0  0  0  0  0  0  0  0  0  0  0
   17.0338   18.1125   23.2686 H   0  0  0  0  0  0  0  0  0  0  0  0
   18.6031   19.3223   22.3577 C   0  0  0  0  0  0  0  0  0  0  0  0
   19.0268   18.4887   21.7827 H   0  0  0  0  0  0  0  0  0  0  0  0
   18.6756   20.2102   21.7145 H   0  0  0  0  0  0  0  0  0  0  0  0
   19.4349   19.5421   23.6470 C   0  0  0  0  0  0  0  0  0  0  0  0
   19.3406   18.6677   24.3045 H   0  0  0  0  0  0  0  0  0  0  0  0
   19.0222   20.3901   24.2085 H   0  0  0  0  0  0  0  0  0  0  0  0
   20.9309   19.8374   23.3662 C   0  0  0  0  0  0  0  0  0  0  0  0
   21.0040   20.7651   22.7831 H   0  0  0  0  0  0  0  0  0  0  0  0
   21.4406   20.0338   24.3188 H   0  0  0  0  0  0  0  0  0  0  0  0
   21.6741   18.7102   22.6141 C   0  0  1  0  0  0  0  0  0  0  0  0
   21.1712   18.5437   21.6571 H   0  0  0  0  0  0  0  0  0  0  0  0
   23.1249   19.1268   22.3249 C   0  0  0  0  0  0  0  0  0  0  0  0
   23.6466   18.3474   21.7561 H   0  0  0  0  0  0  0  0  0  0  0  0
   23.6810   19.3016   23.2545 H   0  0  0  0  0  0  0  0  0  0  0  0
   23.1544   20.0486   21.7307 H   0  0  0  0  0  0  0  0  0  0  0  0
   21.6361   17.4026   23.3566 N   0  3  0  0  0  0  0  0  0  0  0  0
   20.6732   17.0964   23.5204 H   0  0  0  0  0  0  0  0  0  0  0  0
   22.1102   16.6607   22.8340 H   0  0  0  0  0  0  0  0  0  0  0  0
   22.0955   17.4777   24.2679 H   0  0  0  0  0  0  0  0  0  0  0  0
  1  2  1  0  0  0  0
  1  3  1  0  0  0  0
  1  4  1  0  0  0  0
  1  5  1  0  0  0  0
  5  6  1  0  0  0  0
  5  7  1  0  0  0  0
  5  8  1  0  0  0  0
  8  9  1  0  0  0  0
  8 10  1  0  0  0  0
  8 11  1  0  0  0  0
 11 12  1  0  0  0  0
 11 13  1  0  0  0  0
 11 14  1  0  0  0  0
 14 15  1  0  0  0  0
 14 16  1  0  0  0  0
 14 17  1  0  0  0  0
 17 18  1  0  0  0  0
 17 19  1  0  0  0  0
 19 20  1  0  0  0  0
 19 21  1  0  0  0  0
 19 22  1  0  0  0  0
 17 23  1  0  0  0  0
 23 24  1  0  0  0  0
 23 25  1  0  0  0  0
 23 26  1  0  0  0  0
M  END
> <VConfSearch Rank>
267

> <Conf_Id>
113

> <Delta U+W>
1.137

> <U+W>
-29.162

> <U>
24.833

> <W>
-53.995

> <W(PB)>
-56.288

> <W(SA)>
2.294

> <Valence>
3.589

> <Coulomb>
20.270

> <VdW>
0.974

> <VdW6>
-8.255

> <VdW12>
9.229

> <Bond>
0.244

> <Angle>
1.377

> <Pdih>
1.967

> <Idih>
0.000

> <Tether>
0.000

$$$$
VeraChem MOL file


 26 25  0  0  0  0  0  0  0  0999 V2000     
   16.2964   18.2201   24.4252 C   0  0  0  0  0  0  0  0  0  0  0  0
   15.4181   18.8780   24.3994 H   0  0  0  0  0  0  0  0  0  0  0  0
   16.0741   17.3368   23.8123 H   0  0  0  0  0  0  0  0  0  0  0  0
   16.4392   17.8896   25.4623 H   0  0  0  0  0  0  0  0  0  0  0  0
   17.5460   18.9586   23.9004 C   0  0  0  0  0  0  0  0  0  0  0  0
   17.7255   19.8521   24.5145 H   0  0  0  0  0  0  0  0  0  0  0  0
   17.3494   19.3083   22.8783 H   0  0  0  0  0  0  0  0  0  0  0  0
   18.7971   18.0489   23.9231 C   0  0  0  0  0  0  0  0  0  0  0  0
   18.9269   17.6465   24.9373 H   0  0  0  0  0  0  0  0  0  0  0  0
   18.6371   17.1824   23.2667 H   0  0  0  0  0  0  0  0  0  0  0  0
   20.1011   18.7771   23.5141 C   0  0  0  0  0  0  0  0  0  0  0  0
   20.9413   18.0895   23.6768 H   0  0  0  0  0  0  0  0  0  0  0  0
   20.2621   19.6290   24.1881 H   0  0  0  0  0  0  0  0  0  0  0  0
   20.1010   19.2564   22.0367 C   0  0  0  0  0  0  0  0  0  0  0  0
   19.8317   18.4158   21.3838 H   0  0  0  0  0  0  0  0  0  0  0  0
   19.3205   20.0140   21.8939 H   0  0  0  0  0  0  0  0  0  0  0  0
   21.4439   19.8472   21.5457 C   0  0  1  0  0  0  0  0  0  0  0  0
   21.3091   20.1331   20.4979 H   0  0  0  0  0  0  0  0  0  0  0  0
   21.8378   21.1131   22.3267 C   0  0  0  0  0  0  0  0  0  0  0  0
   22.0799   20.8857   23.3716 H   0  0  0  0  0  0  0  0  0  0  0  0
   21.0234   21.8480   22.3142 H   0  0  0  0  0  0  0  0  0  0  0  0
   22.7183   21.5849   21.8737 H   0  0  0  0  0  0  0  0  0  0  0  0
   22.5575   18.8361   21.5604 N   0  3  0  0  0  0  0  0  0  0  0  0
   22.3203   18.0079   21.0071 H   0  0  0  0  0  0  0  0  0  0  0  0
   23.4214   19.2255   21.1724 H   0  0  0  0  0  0  0  0  0  0  0  0
   22.7630   18.5226   22.5121 H   0  0  0  0  0  0  0  0  0  0  0  0
  1  2  1  0  0  0  0
  1  3  1  0  0  0  0
  1  4  1  0  0  0  0
  1  5  1  0  0  0  0
  5  6  1  0  0  0  0
  5  7  1  0  0  0  0
  5  8  1  0  0  0  0
  8  9  1  0  0  0  0
  8 10  1  0  0  0  0
  8 11  1  0  0  0  0
 11 12  1  0  0  0  0
 11 13  1  0  0  0  0
 11 14  1  0  0  0  0
 14 15  1  0  0  0  0
 14 16  1  0  0  0  0
 14 17  1  0  0  0  0
 17 18  1  0  0  0  0
 17 19  1  0  0  0  0
 19 20  1  0  0  0  0
 19 21  1  0  0  0  0
 19 22  1  0  0  0  0
 17 23  1  0  0  0  0
 23 24  1  0  0  0  0
 23 25  1  0  0  0  0
 23 26  1  0  0  0  0
M  END
> <VConfSearch Rank>
268

> <Conf_Id>
45

> <Delta U+W>
1.035

> <U+W>
-29.264

> <U>
24.725

> <W>
-53.989

> <W(PB)>
-56.298

> <W(SA)>
2.309

> <Valence>
3.780

> <Coulomb>
19.804

> <VdW>
1.141

> <VdW6>
-8.104

> <VdW12>
9.246

> <Bond>
0.254

> <Angle>
1.437

> <Pdih>
2.089

> <Idih>
0.000

> <Tether>
0.000

$$$$
VeraChem MOL file


 26 25  0  0  0  0  0  0  0  0999 V2000     
   20.0679   17.1763   26.4004 C   0  0  0  0  0  0  0  0  0  0  0  0
   20.8515   16.4417   26.6270 H   0  0  0  0  0  0  0  0  0  0  0  0
   19.9811   17.8522   27.2611 H   0  0  0  0  0  0  0  0  0  0  0  0
   19.1189   16.6348   26.2937 H   0  0  0  0  0  0  0  0  0  0  0  0
   20.4084   17.9569   25.1131 C   0  0  0  0  0  0  0  0  0  0  0  0
   20.5277   17.2439   24.2868 H   0  0  0  0  0  0  0  0  0  0  0  0
   21.3753   18.4635   25.2399 H   0  0  0  0  0  0  0  0  0  0  0  0
   19.3145   18.9962   24.7709 C   0  0  0  0  0  0  0  0  0  0  0  0
   18.3600   18.4834   24.5886 H   0  0  0  0  0  0  0  0  0  0  0  0
   19.1539   19.6434   25.6443 H   0  0  0  0  0  0  0  0  0  0  0  0
   19.6638   19.8917   23.5565 C   0  0  0  0  0  0  0  0  0  0  0  0
   20.6176   20.4051   23.7413 H   0  0  0  0  0  0  0  0  0  0  0  0
   18.8996   20.6765   23.4836 H   0  0  0  0  0  0  0  0  0  0  0  0
   19.7389   19.1156   22.2162 C   0  0  0  0  0  0  0  0  0  0  0  0
   20.5197   18.3483   22.2845 H   0  0  0  0  0  0  0  0  0  0  0  0
   18.7928   18.5872   22.0391 H   0  0  0  0  0  0  0  0  0  0  0  0
   20.0579   20.0263   21.0103 C   0  0  1  0  0  0  0  0  0  0  0  0
   20.9841   20.5681   21.2254 H   0  0  0  0  0  0  0  0  0  0  0  0
   20.2770   19.1805   19.7455 C   0  0  0  0  0  0  0  0  0  0  0  0
   19.3738   18.6147   19.4848 H   0  0  0  0  0  0  0  0  0  0  0  0
   21.0974   18.4666   19.8906 H   0  0  0  0  0  0  0  0  0  0  0  0
   20.5389   19.8183   18.8923 H   0  0  0  0  0  0  0  0  0  0  0  0
   18.9944   21.0633   20.7712 N   0  3  0  0  0  0  0  0  0  0  0  0
   18.8690   21.6667   21.5882 H   0  0  0  0  0  0  0  0  0  0  0  0
   19.2320   21.6671   19.9791 H   0  0  0  0  0  0  0  0  0  0  0  0
   18.0902   20.6303   20.5657 H   0  0  0  0  0  0  0  0  0  0  0  0
  1  2  1  0  0  0  0
  1  3  1  0  0  0  0
  1  4  1  0  0  0  0
  1  5  1  0  0  0  0
  5  6  1  0  0  0  0
  5  7  1  0  0  0  0
  5  8  1  0  0  0  0
  8  9  1  0  0  0  0
  8 10  1  0  0  0  0
  8 11  1  0  0  0  0
 11 12  1  0  0  0  0
 11 13  1  0  0  0  0
 11 14  1  0  0  0  0
 14 15  1  0  0  0  0
 14 16  1  0  0  0  0
 14 17  1  0  0  0  0
 17 18  1  0  0  0  0
 17 19  1  0  0  0  0
 19 20  1  0  0  0  0
 19 21  1  0  0  0  0
 19 22  1  0  0  0  0
 17 23  1  0  0  0  0
 23 24  1  0  0  0  0
 23 25  1  0  0  0  0
 23 26  1  0  0  0  0
M  END
> <VConfSearch Rank>
269

> <Conf_Id>
121

> <Delta U+W>
0.736

> <U+W>
-29.562

> <U>
24.282

> <W>
-53.844

> <W(PB)>
-56.205

> <W(SA)>
2.361

> <Valence>
3.311

> <Coulomb>
19.887

> <VdW>
1.083

> <VdW6>
-7.444

> <VdW12>
8.527

> <Bond>
0.219

> <Angle>
1.167

> <Pdih>
1.926

> <Idih>
0.000

> <Tether>
0.000

$$$$
VeraChem MOL file


 26 25  0  0  0  0  0  0  0  0999 V2000     
   22.6086   17.2298   21.5364 C   0  0  0  0  0  0  0  0  0  0  0  0
   23.0448   16.6233   20.7321 H   0  0  0  0  0  0  0  0  0  0  0  0
   23.4048   17.8639   21.9477 H   0  0  0  0  0  0  0  0  0  0  0  0
   22.2752   16.5419   22.3230 H   0  0  0  0  0  0  0  0  0  0  0  0
   21.4405   18.0851   20.9952 C   0  0  0  0  0  0  0  0  0  0  0  0
   20.6430   17.4279   20.6211 H   0  0  0  0  0  0  0  0  0  0  0  0
   21.7963   18.6600   20.1288 H   0  0  0  0  0  0  0  0  0  0  0  0
   20.8609   19.0703   22.0389 C   0  0  0  0  0  0  0  0  0  0  0  0
   21.6602   19.7301   22.4034 H   0  0  0  0  0  0  0  0  0  0  0  0
   20.1342   19.7162   21.5289 H   0  0  0  0  0  0  0  0  0  0  0  0
   20.1766   18.3658   23.2379 C   0  0  0  0  0  0  0  0  0  0  0  0
   20.9077   17.7321   23.7562 H   0  0  0  0  0  0  0  0  0  0  0  0
   19.3935   17.6877   22.8743 H   0  0  0  0  0  0  0  0  0  0  0  0
   19.5852   19.3572   24.2736 C   0  0  0  0  0  0  0  0  0  0  0  0
   19.1455   18.7861   25.1020 H   0  0  0  0  0  0  0  0  0  0  0  0
   20.4103   19.9367   24.7083 H   0  0  0  0  0  0  0  0  0  0  0  0
   18.5284   20.3409   23.7171 C   0  0  1  0  0  0  0  0  0  0  0  0
   18.9825   20.9117   22.9019 H   0  0  0  0  0  0  0  0  0  0  0  0
   17.2895   19.6105   23.1689 C   0  0  0  0  0  0  0  0  0  0  0  0
   16.8300   18.9768   23.9376 H   0  0  0  0  0  0  0  0  0  0  0  0
   17.5476   18.9786   22.3112 H   0  0  0  0  0  0  0  0  0  0  0  0
   16.5363   20.3306   22.8264 H   0  0  0  0  0  0  0  0  0  0  0  0
   18.1228   21.3463   24.7588 N   0  3  0  0  0  0  0  0  0  0  0  0
   18.9279   21.8745   25.1073 H   0  0  0  0  0  0  0  0  0  0  0  0
   17.4534   22.0244   24.3839 H   0  0  0  0  0  0  0  0  0  0  0  0
   17.6804   20.8941   25.5634 H   0  0  0  0  0  0  0  0  0  0  0  0
  1  2  1  0  0  0  0
  1  3  1  0  0  0  0
  1  4  1  0  0  0  0
  1  5  1  0  0  0  0
  5  6  1  0  0  0  0
  5  7  1  0  0  0  0
  5  8  1  0  0  0  0
  8  9  1  0  0  0  0
  8 10  1  0  0  0  0
  8 11  1  0  0  0  0
 11 12  1  0  0  0  0
 11 13  1  0  0  0  0
 11 14  1  0  0  0  0
 14 15  1  0  0  0  0
 14 16  1  0  0  0  0
 14 17  1  0  0  0  0
 17 18  1  0  0  0  0
 17 19  1  0  0  0  0
 19 20  1  0  0  0  0
 19 21  1  0  0  0  0
 19 22  1  0  0  0  0
 17 23  1  0  0  0  0
 23 24  1  0  0  0  0
 23 25  1  0  0  0  0
 23 26  1  0  0  0  0
M  END
> <VConfSearch Rank>
270

> <Conf_Id>
5

> <Delta U+W>
1.233

> <U+W>
-29.065

> <U>
25.023

> <W>
-54.088

> <W(PB)>
-56.383

> <W(SA)>
2.296

> <Valence>
4.083

> <Coulomb>
19.893

> <VdW>
1.047

> <VdW6>
-8.479

> <VdW12>
9.527

> <Bond>
0.256

> <Angle>
1.716

> <Pdih>
2.112

> <Idih>
0.000

> <Tether>
0.000

$$$$
VeraChem MOL file


 26 25  0  0  0  0  0  0  0  0999 V2000     
   20.3787   15.5270   22.8548 C   0  0  0  0  0  0  0  0  0  0  0  0
   21.0168   14.6355   22.8014 H   0  0  0  0  0  0  0  0  0  0  0  0
   20.0047   15.6020   23.8832 H   0  0  0  0  0  0  0  0  0  0  0  0
   19.5220   15.3666   22.1874 H   0  0  0  0  0  0  0  0  0  0  0  0
   21.1751   16.7866   22.4444 C   0  0  0  0  0  0  0  0  0  0  0  0
   21.6343   16.6076   21.4621 H   0  0  0  0  0  0  0  0  0  0  0  0
   22.0053   16.9453   23.1469 H   0  0  0  0  0  0  0  0  0  0  0  0
   20.3081   18.0661   22.3593 C   0  0  0  0  0  0  0  0  0  0  0  0
   20.9269   18.8639   21.9287 H   0  0  0  0  0  0  0  0  0  0  0  0
   19.4772   17.8999   21.6599 H   0  0  0  0  0  0  0  0  0  0  0  0
   19.7558   18.5295   23.7305 C   0  0  0  0  0  0  0  0  0  0  0  0
   20.5930   18.7219   24.4155 H   0  0  0  0  0  0  0  0  0  0  0  0
   19.1681   17.7202   24.1822 H   0  0  0  0  0  0  0  0  0  0  0  0
   18.8546   19.7883   23.6556 C   0  0  0  0  0  0  0  0  0  0  0  0
   17.9679   19.5797   23.0421 H   0  0  0  0  0  0  0  0  0  0  0  0
   18.4741   19.9805   24.6675 H   0  0  0  0  0  0  0  0  0  0  0  0
   19.5859   21.0512   23.1388 C   0  0  1  0  0  0  0  0  0  0  0  0
   20.6634   20.8813   23.2260 H   0  0  0  0  0  0  0  0  0  0  0  0
   19.2490   21.3372   21.6639 C   0  0  0  0  0  0  0  0  0  0  0  0
   18.1833   21.5671   21.5398 H   0  0  0  0  0  0  0  0  0  0  0  0
   19.4846   20.4796   21.0240 H   0  0  0  0  0  0  0  0  0  0  0  0
   19.8256   22.1944   21.2951 H   0  0  0  0  0  0  0  0  0  0  0  0
   19.2836   22.2605   23.9808 N   0  3  0  0  0  0  0  0  0  0  0  0
   19.5438   22.1122   24.9601 H   0  0  0  0  0  0  0  0  0  0  0  0
   19.7962   23.0834   23.6513 H   0  0  0  0  0  0  0  0  0  0  0  0
   18.2870   22.4928   23.9585 H   0  0  0  0  0  0  0  0  0  0  0  0
  1  2  1  0  0  0  0
  1  3  1  0  0  0  0
  1  4  1  0  0  0  0
  1  5  1  0  0  0  0
  5  6  1  0  0  0  0
  5  7  1  0  0  0  0
  5  8  1  0  0  0  0
  8  9  1  0  0  0  0
  8 10  1  0  0  0  0
  8 11  1  0  0  0  0
 11 12  1  0  0  0  0
 11 13  1  0  0  0  0
 11 14  1  0  0  0  0
 14 15  1  0  0  0  0
 14 16  1  0  0  0  0
 14 17  1  0  0  0  0
 17 18  1  0  0  0  0
 17 19  1  0  0  0  0
 19 20  1  0  0  0  0
 19 21  1  0  0  0  0
 19 22  1  0  0  0  0
 17 23  1  0  0  0  0
 23 24  1  0  0  0  0
 23 25  1  0  0  0  0
 23 26  1  0  0  0  0
M  END
> <VConfSearch Rank>
271

> <Conf_Id>
100

> <Delta U+W>
3.818

> <U+W>
-26.481

> <U>
27.496

> <W>
-53.977

> <W(PB)>
-56.267

> <W(SA)>
2.290

> <Valence>
6.472

> <Coulomb>
19.839

> <VdW>
1.185

> <VdW6>
-8.405

> <VdW12>
9.590

> <Bond>
0.248

> <Angle>
1.619

> <Pdih>
4.604

> <Idih>
0.000

> <Tether>
0.000

$$$$
VeraChem MOL file


 26 25  0  0  0  0  0  0  0  0999 V2000     
   16.4651   19.9791   21.4963 C   0  0  0  0  0  0  0  0  0  0  0  0
   15.8550   20.8619   21.2652 H   0  0  0  0  0  0  0  0  0  0  0  0
   16.8889   19.6065   20.5546 H   0  0  0  0  0  0  0  0  0  0  0  0
   15.7992   19.2059   21.9012 H   0  0  0  0  0  0  0  0  0  0  0  0
   17.5789   20.3350   22.5038 C   0  0  0  0  0  0  0  0  0  0  0  0
   17.1259   20.7369   23.4209 H   0  0  0  0  0  0  0  0  0  0  0  0
   18.2076   21.1331   22.0847 H   0  0  0  0  0  0  0  0  0  0  0  0
   18.4531   19.1086   22.8471 C   0  0  0  0  0  0  0  0  0  0  0  0
   17.8178   18.3153   23.2645 H   0  0  0  0  0  0  0  0  0  0  0  0
   18.8881   18.7076   21.9241 H   0  0  0  0  0  0  0  0  0  0  0  0
   19.5666   19.4637   23.8631 C   0  0  0  0  0  0  0  0  0  0  0  0
   19.0849   19.8375   24.7773 H   0  0  0  0  0  0  0  0  0  0  0  0
   20.1758   20.2941   23.4835 H   0  0  0  0  0  0  0  0  0  0  0  0
   20.4655   18.2548   24.2464 C   0  0  0  0  0  0  0  0  0  0  0  0
   20.7356   18.3492   25.3064 H   0  0  0  0  0  0  0  0  0  0  0  0
   19.8883   17.3233   24.1781 H   0  0  0  0  0  0  0  0  0  0  0  0
   21.7822   18.1035   23.4446 C   0  0  1  0  0  0  0  0  0  0  0  0
   22.2875   17.2097   23.8238 H   0  0  0  0  0  0  0  0  0  0  0  0
   21.5471   17.8964   21.9397 C   0  0  0  0  0  0  0  0  0  0  0  0
   21.1553   18.8040   21.4656 H   0  0  0  0  0  0  0  0  0  0  0  0
   20.8398   17.0764   21.7640 H   0  0  0  0  0  0  0  0  0  0  0  0
   22.4873   17.6374   21.4376 H   0  0  0  0  0  0  0  0  0  0  0  0
   22.7309   19.2460   23.6855 N   0  3  0  0  0  0  0  0  0  0  0  0
   22.9387   19.3581   24.6818 H   0  0  0  0  0  0  0  0  0  0  0  0
   23.6218   19.1003   23.2024 H   0  0  0  0  0  0  0  0  0  0  0  0
   22.3417   20.1306   23.3509 H   0  0  0  0  0  0  0  0  0  0  0  0
  1  2  1  0  0  0  0
  1  3  1  0  0  0  0
  1  4  1  0  0  0  0
  1  5  1  0  0  0  0
  5  6  1  0  0  0  0
  5  7  1  0  0  0  0
  5  8  1  0  0  0  0
  8  9  1  0  0  0  0
  8 10  1  0  0  0  0
  8 11  1  0  0  0  0
 11 12  1  0  0  0  0
 11 13  1  0  0  0  0
 11 14  1  0  0  0  0
 14 15  1  0  0  0  0
 14 16  1  0  0  0  0
 14 17  1  0  0  0  0
 17 18  1  0  0  0  0
 17 19  1  0  0  0  0
 19 20  1  0  0  0  0
 19 21  1  0  0  0  0
 19 22  1  0  0  0  0
 17 23  1  0  0  0  0
 23 24  1  0  0  0  0
 23 25  1  0  0  0  0
 23 26  1  0  0  0  0
M  END
> <VConfSearch Rank>
272

> <Conf_Id>
142

> <Delta U+W>
2.978

> <U+W>
-27.320

> <U>
26.848

> <W>
-54.168

> <W(PB)>
-56.427

> <W(SA)>
2.259

> <Valence>
5.823

> <Coulomb>
20.057

> <VdW>
0.968

> <VdW6>
-8.367

> <VdW12>
9.335

> <Bond>
0.267

> <Angle>
1.799

> <Pdih>
3.758

> <Idih>
0.000

> <Tether>
0.000

$$$$
VeraChem MOL file


 26 25  0  0  0  0  0  0  0  0999 V2000     
   18.1141   22.1349   23.2524 C   0  0  0  0  0  0  0  0  0  0  0  0
   17.1279   21.6619   23.3459 H   0  0  0  0  0  0  0  0  0  0  0  0
   18.0410   23.1473   23.6702 H   0  0  0  0  0  0  0  0  0  0  0  0
   18.3475   22.2364   22.1856 H   0  0  0  0  0  0  0  0  0  0  0  0
   19.1948   21.3198   23.9989 C   0  0  0  0  0  0  0  0  0  0  0  0
   18.9828   21.3614   25.0765 H   0  0  0  0  0  0  0  0  0  0  0  0
   20.1774   21.7924   23.8612 H   0  0  0  0  0  0  0  0  0  0  0  0
   19.2608   19.8351   23.5654 C   0  0  0  0  0  0  0  0  0  0  0  0
   19.9383   19.3200   24.2562 H   0  0  0  0  0  0  0  0  0  0  0  0
   18.2706   19.3744   23.6851 H   0  0  0  0  0  0  0  0  0  0  0  0
   19.7628   19.6389   22.1126 C   0  0  0  0  0  0  0  0  0  0  0  0
   20.7789   20.0439   22.0153 H   0  0  0  0  0  0  0  0  0  0  0  0
   19.1403   20.2347   21.4334 H   0  0  0  0  0  0  0  0  0  0  0  0
   19.7228   18.1699   21.6038 C   0  0  0  0  0  0  0  0  0  0  0  0
   18.6827   17.8185   21.5930 H   0  0  0  0  0  0  0  0  0  0  0  0
   20.0382   18.1743   20.5522 H   0  0  0  0  0  0  0  0  0  0  0  0
   20.5982   17.1281   22.3466 C   0  0  1  0  0  0  0  0  0  0  0  0
   20.6244   16.2337   21.7165 H   0  0  0  0  0  0  0  0  0  0  0  0
   22.0508   17.6015   22.5290 C   0  0  0  0  0  0  0  0  0  0  0  0
   22.1176   18.4446   23.2270 H   0  0  0  0  0  0  0  0  0  0  0  0
   22.4808   17.9139   21.5693 H   0  0  0  0  0  0  0  0  0  0  0  0
   22.6729   16.7890   22.9238 H   0  0  0  0  0  0  0  0  0  0  0  0
   20.0008   16.6734   23.6501 N   0  3  0  0  0  0  0  0  0  0  0  0
   19.0603   16.2909   23.5176 H   0  0  0  0  0  0  0  0  0  0  0  0
   20.5689   15.9412   24.0856 H   0  0  0  0  0  0  0  0  0  0  0  0
   19.9286   17.4446   24.3165 H   0  0  0  0  0  0  0  0  0  0  0  0
  1  2  1  0  0  0  0
  1  3  1  0  0  0  0
  1  4  1  0  0  0  0
  1  5  1  0  0  0  0
  5  6  1  0  0  0  0
  5  7  1  0  0  0  0
  5  8  1  0  0  0  0
  8  9  1  0  0  0  0
  8 10  1  0  0  0  0
  8 11  1  0  0  0  0
 11 12  1  0  0  0  0
 11 13  1  0  0  0  0
 11 14  1  0  0  0  0
 14 15  1  0  0  0  0
 14 16  1  0  0  0  0
 14 17  1  0  0  0  0
 17 18  1  0  0  0  0
 17 19  1  0  0  0  0
 19 20  1  0  0  0  0
 19 21  1  0  0  0  0
 19 22  1  0  0  0  0
 17 23  1  0  0  0  0
 23 24  1  0  0  0  0
 23 25  1  0  0  0  0
 23 26  1  0  0  0  0
M  END
> <VConfSearch Rank>
273

> <Conf_Id>
119

> <Delta U+W>
3.538

> <U+W>
-26.761

> <U>
27.482

> <W>
-54.243

> <W(PB)>
-56.494

> <W(SA)>
2.251

> <Valence>
5.284

> <Coulomb>
21.247

> <VdW>
0.951

> <VdW6>
-9.416

> <VdW12>
10.367

> <Bond>
0.323

> <Angle>
2.522

> <Pdih>
2.439

> <Idih>
0.000

> <Tether>
0.000

$$$$
VeraChem MOL file


 26 25  0  0  0  0  0  0  0  0999 V2000     
   19.3526   17.9189   19.6527 C   0  0  0  0  0  0  0  0  0  0  0  0
   19.8065   18.7088   19.0402 H   0  0  0  0  0  0  0  0  0  0  0  0
   20.1569   17.2937   20.0598 H   0  0  0  0  0  0  0  0  0  0  0  0
   18.7470   17.2868   18.9905 H   0  0  0  0  0  0  0  0  0  0  0  0
   18.4772   18.5203   20.7756 C   0  0  0  0  0  0  0  0  0  0  0  0
   18.0605   17.7116   21.3922 H   0  0  0  0  0  0  0  0  0  0  0  0
   17.6184   19.0319   20.3190 H   0  0  0  0  0  0  0  0  0  0  0  0
   19.2338   19.5271   21.6753 C   0  0  0  0  0  0  0  0  0  0  0  0
   19.6245   20.3465   21.0562 H   0  0  0  0  0  0  0  0  0  0  0  0
   18.5114   19.9840   22.3618 H   0  0  0  0  0  0  0  0  0  0  0  0
   20.3951   18.8843   22.4767 C   0  0  0  0  0  0  0  0  0  0  0  0
   21.1585   18.5415   21.7660 H   0  0  0  0  0  0  0  0  0  0  0  0
   20.0429   17.9856   22.9990 H   0  0  0  0  0  0  0  0  0  0  0  0
   21.0750   19.8661   23.4719 C   0  0  0  0  0  0  0  0  0  0  0  0
   22.1520   19.6530   23.4849 H   0  0  0  0  0  0  0  0  0  0  0  0
   20.9892   20.8952   23.0989 H   0  0  0  0  0  0  0  0  0  0  0  0
   20.5725   19.8055   24.9359 C   0  0  1  0  0  0  0  0  0  0  0  0
   21.1364   20.5547   25.5003 H   0  0  0  0  0  0  0  0  0  0  0  0
   19.0810   20.1521   25.0715 C   0  0  0  0  0  0  0  0  0  0  0  0
   18.4462   19.3804   24.6199 H   0  0  0  0  0  0  0  0  0  0  0  0
   18.8585   21.1129   24.5910 H   0  0  0  0  0  0  0  0  0  0  0  0
   18.8021   20.2374   26.1288 H   0  0  0  0  0  0  0  0  0  0  0  0
   20.8761   18.4843   25.5883 N   0  3  0  0  0  0  0  0  0  0  0  0
   21.8765   18.2688   25.5526 H   0  0  0  0  0  0  0  0  0  0  0  0
   20.5982   18.4813   26.5737 H   0  0  0  0  0  0  0  0  0  0  0  0
   20.3797   17.7182   25.1272 H   0  0  0  0  0  0  0  0  0  0  0  0
  1  2  1  0  0  0  0
  1  3  1  0  0  0  0
  1  4  1  0  0  0  0
  1  5  1  0  0  0  0
  5  6  1  0  0  0  0
  5  7  1  0  0  0  0
  5  8  1  0  0  0  0
  8  9  1  0  0  0  0
  8 10  1  0  0  0  0
  8 11  1  0  0  0  0
 11 12  1  0  0  0  0
 11 13  1  0  0  0  0
 11 14  1  0  0  0  0
 14 15  1  0  0  0  0
 14 16  1  0  0  0  0
 14 17  1  0  0  0  0
 17 18  1  0  0  0  0
 17 19  1  0  0  0  0
 19 20  1  0  0  0  0
 19 21  1  0  0  0  0
 19 22  1  0  0  0  0
 17 23  1  0  0  0  0
 23 24  1  0  0  0  0
 23 25  1  0  0  0  0
 23 26  1  0  0  0  0
M  END
> <VConfSearch Rank>
274

> <Conf_Id>
127

> <Delta U+W>
3.544

> <U+W>
-26.754

> <U>
27.509

> <W>
-54.263

> <W(PB)>
-56.496

> <W(SA)>
2.232

> <Valence>
6.375

> <Coulomb>
20.014

> <VdW>
1.120

> <VdW6>
-8.976

> <VdW12>
10.096

> <Bond>
0.304

> <Angle>
1.986

> <Pdih>
4.086

> <Idih>
0.000

> <Tether>
0.000

$$$$
VeraChem MOL file


 26 25  0  0  0  0  0  0  0  0999 V2000     
   20.5991   21.3508   20.7511 C   0  0  0  0  0  0  0  0  0  0  0  0
   21.1760   22.2835   20.7037 H   0  0  0  0  0  0  0  0  0  0  0  0
   20.1418   21.1922   19.7659 H   0  0  0  0  0  0  0  0  0  0  0  0
   19.7920   21.4964   21.4774 H   0  0  0  0  0  0  0  0  0  0  0  0
   21.5175   20.1655   21.1299 C   0  0  0  0  0  0  0  0  0  0  0  0
   22.0287   20.3668   22.0816 H   0  0  0  0  0  0  0  0  0  0  0  0
   22.3095   20.0956   20.3711 H   0  0  0  0  0  0  0  0  0  0  0  0
   20.7733   18.8068   21.1935 C   0  0  0  0  0  0  0  0  0  0  0  0
   19.9167   18.8096   20.5055 H   0  0  0  0  0  0  0  0  0  0  0  0
   21.4514   18.0285   20.8169 H   0  0  0  0  0  0  0  0  0  0  0  0
   20.3162   18.3792   22.6123 C   0  0  0  0  0  0  0  0  0  0  0  0
   21.1992   18.2787   23.2572 H   0  0  0  0  0  0  0  0  0  0  0  0
   19.8776   17.3765   22.5327 H   0  0  0  0  0  0  0  0  0  0  0  0
   19.2941   19.3457   23.2679 C   0  0  0  0  0  0  0  0  0  0  0  0
   19.7731   20.3181   23.4334 H   0  0  0  0  0  0  0  0  0  0  0  0
   18.4625   19.5247   22.5738 H   0  0  0  0  0  0  0  0  0  0  0  0
   18.7200   18.8669   24.6226 C   0  0  1  0  0  0  0  0  0  0  0  0
   18.0817   19.6693   25.0052 H   0  0  0  0  0  0  0  0  0  0  0  0
   17.8424   17.6117   24.4714 C   0  0  0  0  0  0  0  0  0  0  0  0
   17.0684   17.7663   23.7095 H   0  0  0  0  0  0  0  0  0  0  0  0
   17.3361   17.3829   25.4171 H   0  0  0  0  0  0  0  0  0  0  0  0
   18.4332   16.7328   24.1883 H   0  0  0  0  0  0  0  0  0  0  0  0
   19.7902   18.6558   25.6581 N   0  3  0  0  0  0  0  0  0  0  0  0
   20.3483   19.5025   25.7995 H   0  0  0  0  0  0  0  0  0  0  0  0
   19.3886   18.3992   26.5644 H   0  0  0  0  0  0  0  0  0  0  0  0
   20.4302   17.9068   25.3829 H   0  0  0  0  0  0  0  0  0  0  0  0
  1  2  1  0  0  0  0
  1  3  1  0  0  0  0
  1  4  1  0  0  0  0
  1  5  1  0  0  0  0
  5  6  1  0  0  0  0
  5  7  1  0  0  0  0
  5  8  1  0  0  0  0
  8  9  1  0  0  0  0
  8 10  1  0  0  0  0
  8 11  1  0  0  0  0
 11 12  1  0  0  0  0
 11 13  1  0  0  0  0
 11 14  1  0  0  0  0
 14 15  1  0  0  0  0
 14 16  1  0  0  0  0
 14 17  1  0  0  0  0
 17 18  1  0  0  0  0
 17 19  1  0  0  0  0
 19 20  1  0  0  0  0
 19 21  1  0  0  0  0
 19 22  1  0  0  0  0
 17 23  1  0  0  0  0
 23 24  1  0  0  0  0
 23 25  1  0  0  0  0
 23 26  1  0  0  0  0
M  END
> <VConfSearch Rank>
275

> <Conf_Id>
131

> <Delta U+W>
3.589

> <U+W>
-26.710

> <U>
27.573

> <W>
-54.283

> <W(PB)>
-56.537

> <W(SA)>
2.254

> <Valence>
6.363

> <Coulomb>
20.026

> <VdW>
1.184

> <VdW6>
-8.939

> <VdW12>
10.123

> <Bond>
0.298

> <Angle>
2.018

> <Pdih>
4.047

> <Idih>
0.000

> <Tether>
0.000

$$$$
VeraChem MOL file


 26 25  0  0  0  0  0  0  0  0999 V2000     
   21.0874   21.2836   21.8015 C   0  0  0  0  0  0  0  0  0  0  0  0
   20.5831   21.8866   22.5676 H   0  0  0  0  0  0  0  0  0  0  0  0
   21.5606   20.4220   22.2882 H   0  0  0  0  0  0  0  0  0  0  0  0
   21.8892   21.8945   21.3670 H   0  0  0  0  0  0  0  0  0  0  0  0
   20.0977   20.8339   20.7047 C   0  0  0  0  0  0  0  0  0  0  0  0
   20.6161   20.1739   19.9952 H   0  0  0  0  0  0  0  0  0  0  0  0
   19.7871   21.7161   20.1276 H   0  0  0  0  0  0  0  0  0  0  0  0
   18.8272   20.1256   21.2405 C   0  0  0  0  0  0  0  0  0  0  0  0
   18.2436   20.8180   21.8625 H   0  0  0  0  0  0  0  0  0  0  0  0
   18.1888   19.8957   20.3762 H   0  0  0  0  0  0  0  0  0  0  0  0
   19.0950   18.8041   22.0076 C   0  0  0  0  0  0  0  0  0  0  0  0
   20.0018   18.3288   21.6120 H   0  0  0  0  0  0  0  0  0  0  0  0
   18.2702   18.1087   21.7990 H   0  0  0  0  0  0  0  0  0  0  0  0
   19.1880   18.9923   23.5450 C   0  0  0  0  0  0  0  0  0  0  0  0
   20.0139   19.6640   23.8042 H   0  0  0  0  0  0  0  0  0  0  0  0
   18.2705   19.4881   23.8883 H   0  0  0  0  0  0  0  0  0  0  0  0
   19.3438   17.6657   24.3228 C   0  0  1  0  0  0  0  0  0  0  0  0
   18.5421   16.9887   24.0118 H   0  0  0  0  0  0  0  0  0  0  0  0
   20.6953   16.9849   24.0405 C   0  0  0  0  0  0  0  0  0  0  0  0
   21.5332   17.6518   24.2792 H   0  0  0  0  0  0  0  0  0  0  0  0
   20.7815   16.6878   22.9892 H   0  0  0  0  0  0  0  0  0  0  0  0
   20.8027   16.0750   24.6437 H   0  0  0  0  0  0  0  0  0  0  0  0
   19.1686   17.8791   25.8009 N   0  3  0  0  0  0  0  0  0  0  0  0
   19.8862   18.5046   26.1768 H   0  0  0  0  0  0  0  0  0  0  0  0
   18.2567   18.2917   26.0172 H   0  0  0  0  0  0  0  0  0  0  0  0
   19.2326   16.9966   26.3163 H   0  0  0  0  0  0  0  0  0  0  0  0
  1  2  1  0  0  0  0
  1  3  1  0  0  0  0
  1  4  1  0  0  0  0
  1  5  1  0  0  0  0
  5  6  1  0  0  0  0
  5  7  1  0  0  0  0
  5  8  1  0  0  0  0
  8  9  1  0  0  0  0
  8 10  1  0  0  0  0
  8 11  1  0  0  0  0
 11 12  1  0  0  0  0
 11 13  1  0  0  0  0
 11 14  1  0  0  0  0
 14 15  1  0  0  0  0
 14 16  1  0  0  0  0
 14 17  1  0  0  0  0
 17 18  1  0  0  0  0
 17 19  1  0  0  0  0
 19 20  1  0  0  0  0
 19 21  1  0  0  0  0
 19 22  1  0  0  0  0
 17 23  1  0  0  0  0
 23 24  1  0  0  0  0
 23 25  1  0  0  0  0
 23 26  1  0  0  0  0
M  END
> <VConfSearch Rank>
276

> <Conf_Id>
80

> <Delta U+W>
3.351

> <U+W>
-26.948

> <U>
27.261

> <W>
-54.209

> <W(PB)>
-56.471

> <W(SA)>
2.263

> <Valence>
6.230

> <Coulomb>
19.945

> <VdW>
1.087

> <VdW6>
-8.618

> <VdW12>
9.704

> <Bond>
0.277

> <Angle>
1.928

> <Pdih>
4.025

> <Idih>
0.000

> <Tether>
0.000

$$$$
VeraChem MOL file


 26 25  0  0  0  0  0  0  0  0999 V2000     
   20.0515   15.9572   22.0183 C   0  0  0  0  0  0  0  0  0  0  0  0
   20.6748   15.0991   22.3010 H   0  0  0  0  0  0  0  0  0  0  0  0
   19.1974   15.5774   21.4428 H   0  0  0  0  0  0  0  0  0  0  0  0
   20.6524   16.5989   21.3618 H   0  0  0  0  0  0  0  0  0  0  0  0
   19.5789   16.7204   23.2762 C   0  0  0  0  0  0  0  0  0  0  0  0
   20.4485   17.1126   23.8191 H   0  0  0  0  0  0  0  0  0  0  0  0
   19.0993   16.0071   23.9610 H   0  0  0  0  0  0  0  0  0  0  0  0
   18.5710   17.8591   22.9713 C   0  0  0  0  0  0  0  0  0  0  0  0
   17.6507   17.4086   22.5748 H   0  0  0  0  0  0  0  0  0  0  0  0
   18.2805   18.3299   23.9173 H   0  0  0  0  0  0  0  0  0  0  0  0
   19.0563   18.9372   21.9612 C   0  0  0  0  0  0  0  0  0  0  0  0
   18.2384   19.6437   21.7635 H   0  0  0  0  0  0  0  0  0  0  0  0
   19.2458   18.4472   20.9971 H   0  0  0  0  0  0  0  0  0  0  0  0
   20.3298   19.7279   22.3730 C   0  0  0  0  0  0  0  0  0  0  0  0
   21.0092   19.1026   22.9630 H   0  0  0  0  0  0  0  0  0  0  0  0
   20.8789   19.9661   21.4525 H   0  0  0  0  0  0  0  0  0  0  0  0
   20.0672   21.0651   23.1070 C   0  0  1  0  0  0  0  0  0  0  0  0
   19.4416   21.6906   22.4628 H   0  0  0  0  0  0  0  0  0  0  0  0
   19.3390   20.8814   24.4487 C   0  0  0  0  0  0  0  0  0  0  0  0
   18.3082   20.5455   24.2911 H   0  0  0  0  0  0  0  0  0  0  0  0
   19.2854   21.8316   24.9941 H   0  0  0  0  0  0  0  0  0  0  0  0
   19.8539   20.1510   25.0852 H   0  0  0  0  0  0  0  0  0  0  0  0
   21.3490   21.8240   23.3131 N   0  3  0  0  0  0  0  0  0  0  0  0
   21.8296   22.0012   22.4264 H   0  0  0  0  0  0  0  0  0  0  0  0
   21.1790   22.7326   23.7535 H   0  0  0  0  0  0  0  0  0  0  0  0
   21.9959   21.3089   23.9162 H   0  0  0  0  0  0  0  0  0  0  0  0
  1  2  1  0  0  0  0
  1  3  1  0  0  0  0
  1  4  1  0  0  0  0
  1  5  1  0  0  0  0
  5  6  1  0  0  0  0
  5  7  1  0  0  0  0
  5  8  1  0  0  0  0
  8  9  1  0  0  0  0
  8 10  1  0  0  0  0
  8 11  1  0  0  0  0
 11 12  1  0  0  0  0
 11 13  1  0  0  0  0
 11 14  1  0  0  0  0
 14 15  1  0  0  0  0
 14 16  1  0  0  0  0
 14 17  1  0  0  0  0
 17 18  1  0  0  0  0
 17 19  1  0  0  0  0
 19 20  1  0  0  0  0
 19 21  1  0  0  0  0
 19 22  1  0  0  0  0
 17 23  1  0  0  0  0
 23 24  1  0  0  0  0
 23 25  1  0  0  0  0
 23 26  1  0  0  0  0
M  END
> <VConfSearch Rank>
277

> <Conf_Id>
136

> <Delta U+W>
4.272

> <U+W>
-26.026

> <U>
28.262

> <W>
-54.288

> <W(PB)>
-56.488

> <W(SA)>
2.200

> <Valence>
7.096

> <Coulomb>
19.990

> <VdW>
1.175

> <VdW6>
-9.404

> <VdW12>
10.580

> <Bond>
0.360

> <Angle>
2.785

> <Pdih>
3.951

> <Idih>
0.000

> <Tether>
0.000

$$$$
VeraChem MOL file


 26 25  0  0  0  0  0  0  0  0999 V2000     
   20.3482   21.9286   24.0079 C   0  0  0  0  0  0  0  0  0  0  0  0
   20.7320   21.0127   24.4739 H   0  0  0  0  0  0  0  0  0  0  0  0
   20.8149   22.7783   24.5228 H   0  0  0  0  0  0  0  0  0  0  0  0
   19.2659   21.9839   24.1823 H   0  0  0  0  0  0  0  0  0  0  0  0
   20.6722   21.9686   22.4985 C   0  0  0  0  0  0  0  0  0  0  0  0
   21.7560   21.8551   22.3556 H   0  0  0  0  0  0  0  0  0  0  0  0
   20.4172   22.9645   22.1099 H   0  0  0  0  0  0  0  0  0  0  0  0
   19.9231   20.9052   21.6555 C   0  0  0  0  0  0  0  0  0  0  0  0
   18.8388   21.0739   21.7111 H   0  0  0  0  0  0  0  0  0  0  0  0
   20.1939   21.0678   20.6030 H   0  0  0  0  0  0  0  0  0  0  0  0
   20.2594   19.4356   22.0198 C   0  0  0  0  0  0  0  0  0  0  0  0
   21.2775   19.3737   22.4286 H   0  0  0  0  0  0  0  0  0  0  0  0
   20.2661   18.8473   21.0925 H   0  0  0  0  0  0  0  0  0  0  0  0
   19.2427   18.7994   23.0031 C   0  0  0  0  0  0  0  0  0  0  0  0
   19.1431   19.4313   23.8928 H   0  0  0  0  0  0  0  0  0  0  0  0
   18.2495   18.7678   22.5359 H   0  0  0  0  0  0  0  0  0  0  0  0
   19.6487   17.3785   23.4507 C   0  0  1  0  0  0  0  0  0  0  0  0
   20.6498   17.4308   23.8898 H   0  0  0  0  0  0  0  0  0  0  0  0
   18.6785   16.8582   24.5234 C   0  0  0  0  0  0  0  0  0  0  0  0
   17.6559   16.7855   24.1323 H   0  0  0  0  0  0  0  0  0  0  0  0
   18.6647   17.5259   25.3938 H   0  0  0  0  0  0  0  0  0  0  0  0
   18.9825   15.8636   24.8724 H   0  0  0  0  0  0  0  0  0  0  0  0
   19.7306   16.4125   22.3003 N   0  3  0  0  0  0  0  0  0  0  0  0
   18.8259   16.3110   21.8329 H   0  0  0  0  0  0  0  0  0  0  0  0
   20.4075   16.7233   21.5984 H   0  0  0  0  0  0  0  0  0  0  0  0
   20.0201   15.4815   22.6132 H   0  0  0  0  0  0  0  0  0  0  0  0
  1  2  1  0  0  0  0
  1  3  1  0  0  0  0
  1  4  1  0  0  0  0
  1  5  1  0  0  0  0
  5  6  1  0  0  0  0
  5  7  1  0  0  0  0
  5  8  1  0  0  0  0
  8  9  1  0  0  0  0
  8 10  1  0  0  0  0
  8 11  1  0  0  0  0
 11 12  1  0  0  0  0
 11 13  1  0  0  0  0
 11 14  1  0  0  0  0
 14 15  1  0  0  0  0
 14 16  1  0  0  0  0
 14 17  1  0  0  0  0
 17 18  1  0  0  0  0
 17 19  1  0  0  0  0
 19 20  1  0  0  0  0
 19 21  1  0  0  0  0
 19 22  1  0  0  0  0
 17 23  1  0  0  0  0
 23 24  1  0  0  0  0
 23 25  1  0  0  0  0
 23 26  1  0  0  0  0
M  END
> <VConfSearch Rank>
278

> <Conf_Id>
124

> <Delta U+W>
3.001

> <U+W>
-27.298

> <U>
26.787

> <W>
-54.085

> <W(PB)>
-56.347

> <W(SA)>
2.262

> <Valence>
5.742

> <Coulomb>
20.023

> <VdW>
1.022

> <VdW6>
-8.392

> <VdW12>
9.414

> <Bond>
0.261

> <Angle>
1.576

> <Pdih>
3.904

> <Idih>
0.000

> <Tether>
0.000

$$$$
VeraChem MOL file


 26 25  0  0  0  0  0  0  0  0999 V2000     
   18.4421   20.5954   25.4710 C   0  0  0  0  0  0  0  0  0  0  0  0
   18.9961   20.4892   26.4127 H   0  0  0  0  0  0  0  0  0  0  0  0
   17.5130   21.1368   25.6912 H   0  0  0  0  0  0  0  0  0  0  0  0
   18.1674   19.5925   25.1266 H   0  0  0  0  0  0  0  0  0  0  0  0
   19.2795   21.3636   24.4220 C   0  0  0  0  0  0  0  0  0  0  0  0
   19.4884   22.3648   24.8243 H   0  0  0  0  0  0  0  0  0  0  0  0
   18.6926   21.5226   23.5066 H   0  0  0  0  0  0  0  0  0  0  0  0
   20.6282   20.6765   24.0855 C   0  0  0  0  0  0  0  0  0  0  0  0
   21.3750   21.4620   23.9048 H   0  0  0  0  0  0  0  0  0  0  0  0
   20.9960   20.1142   24.9548 H   0  0  0  0  0  0  0  0  0  0  0  0
   20.6000   19.7642   22.8320 C   0  0  0  0  0  0  0  0  0  0  0  0
   21.6222   19.4076   22.6512 H   0  0  0  0  0  0  0  0  0  0  0  0
   20.3264   20.3696   21.9576 H   0  0  0  0  0  0  0  0  0  0  0  0
   19.6409   18.5503   22.9515 C   0  0  0  0  0  0  0  0  0  0  0  0
   19.8228   18.0361   23.9042 H   0  0  0  0  0  0  0  0  0  0  0  0
   18.6047   18.9086   22.9859 H   0  0  0  0  0  0  0  0  0  0  0  0
   19.7545   17.5172   21.8056 C   0  0  1  0  0  0  0  0  0  0  0  0
   19.0281   16.7244   22.0098 H   0  0  0  0  0  0  0  0  0  0  0  0
   19.4031   18.1302   20.4388 C   0  0  0  0  0  0  0  0  0  0  0  0
   20.1452   18.8744   20.1258 H   0  0  0  0  0  0  0  0  0  0  0  0
   18.4203   18.6166   20.4707 H   0  0  0  0  0  0  0  0  0  0  0  0
   19.3637   17.3512   19.6675 H   0  0  0  0  0  0  0  0  0  0  0  0
   21.1004   16.8467   21.7662 N   0  3  0  0  0  0  0  0  0  0  0  0
   21.1362   16.1217   21.0440 H   0  0  0  0  0  0  0  0  0  0  0  0
   21.8449   17.5181   21.5635 H   0  0  0  0  0  0  0  0  0  0  0  0
   21.3235   16.3992   22.6597 H   0  0  0  0  0  0  0  0  0  0  0  0
  1  2  1  0  0  0  0
  1  3  1  0  0  0  0
  1  4  1  0  0  0  0
  1  5  1  0  0  0  0
  5  6  1  0  0  0  0
  5  7  1  0  0  0  0
  5  8  1  0  0  0  0
  8  9  1  0  0  0  0
  8 10  1  0  0  0  0
  8 11  1  0  0  0  0
 11 12  1  0  0  0  0
 11 13  1  0  0  0  0
 11 14  1  0  0  0  0
 14 15  1  0  0  0  0
 14 16  1  0  0  0  0
 14 17  1  0  0  0  0
 17 18  1  0  0  0  0
 17 19  1  0  0  0  0
 19 20  1  0  0  0  0
 19 21  1  0  0  0  0
 19 22  1  0  0  0  0
 17 23  1  0  0  0  0
 23 24  1  0  0  0  0
 23 25  1  0  0  0  0
 23 26  1  0  0  0  0
M  END
> <VConfSearch Rank>
279

> <Conf_Id>
105

> <Delta U+W>
3.442

> <U+W>
-26.857

> <U>
27.313

> <W>
-54.169

> <W(PB)>
-56.414

> <W(SA)>
2.245

> <Valence>
6.229

> <Coulomb>
19.943

> <VdW>
1.140

> <VdW6>
-9.001

> <VdW12>
10.140

> <Bond>
0.294

> <Angle>
1.969

> <Pdih>
3.967

> <Idih>
0.000

> <Tether>
0.000

$$$$
VeraChem MOL file


 26 25  0  0  0  0  0  0  0  0999 V2000     
   18.2735   16.5512   23.8163 C   0  0  0  0  0  0  0  0  0  0  0  0
   17.2836   16.6865   24.2712 H   0  0  0  0  0  0  0  0  0  0  0  0
   18.5408   15.4908   23.9116 H   0  0  0  0  0  0  0  0  0  0  0  0
   18.9961   17.1285   24.4030 H   0  0  0  0  0  0  0  0  0  0  0  0
   18.2594   16.9730   22.3284 C   0  0  0  0  0  0  0  0  0  0  0  0
   17.5406   16.3295   21.8020 H   0  0  0  0  0  0  0  0  0  0  0  0
   19.2365   16.7752   21.8660 H   0  0  0  0  0  0  0  0  0  0  0  0
   17.8486   18.4520   22.1093 C   0  0  0  0  0  0  0  0  0  0  0  0
   17.2782   18.5121   21.1721 H   0  0  0  0  0  0  0  0  0  0  0  0
   17.1552   18.7749   22.8980 H   0  0  0  0  0  0  0  0  0  0  0  0
   19.0325   19.4471   21.9979 C   0  0  0  0  0  0  0  0  0  0  0  0
   18.6246   20.4416   21.7691 H   0  0  0  0  0  0  0  0  0  0  0  0
   19.6570   19.1655   21.1395 H   0  0  0  0  0  0  0  0  0  0  0  0
   19.9049   19.5438   23.2736 C   0  0  0  0  0  0  0  0  0  0  0  0
   19.2498   19.6808   24.1442 H   0  0  0  0  0  0  0  0  0  0  0  0
   20.4489   18.6033   23.4254 H   0  0  0  0  0  0  0  0  0  0  0  0
   20.9154   20.7099   23.2216 C   0  0  1  0  0  0  0  0  0  0  0  0
   20.3599   21.6376   23.0525 H   0  0  0  0  0  0  0  0  0  0  0  0
   21.6609   20.8312   24.5603 C   0  0  0  0  0  0  0  0  0  0  0  0
   22.2384   19.9238   24.7770 H   0  0  0  0  0  0  0  0  0  0  0  0
   20.9562   20.9928   25.3856 H   0  0  0  0  0  0  0  0  0  0  0  0
   22.3537   21.6815   24.5433 H   0  0  0  0  0  0  0  0  0  0  0  0
   21.8904   20.5757   22.0837 N   0  3  0  0  0  0  0  0  0  0  0  0
   21.4086   20.5364   21.1816 H   0  0  0  0  0  0  0  0  0  0  0  0
   22.5381   21.3680   22.0505 H   0  0  0  0  0  0  0  0  0  0  0  0
   22.4516   19.7245   22.1713 H   0  0  0  0  0  0  0  0  0  0  0  0
  1  2  1  0  0  0  0
  1  3  1  0  0  0  0
  1  4  1  0  0  0  0
  1  5  1  0  0  0  0
  5  6  1  0  0  0  0
  5  7  1  0  0  0  0
  5  8  1  0  0  0  0
  8  9  1  0  0  0  0
  8 10  1  0  0  0  0
  8 11  1  0  0  0  0
 11 12  1  0  0  0  0
 11 13  1  0  0  0  0
 11 14  1  0  0  0  0
 14 15  1  0  0  0  0
 14 16  1  0  0  0  0
 14 17  1  0  0  0  0
 17 18  1  0  0  0  0
 17 19  1  0  0  0  0
 19 20  1  0  0  0  0
 19 21  1  0  0  0  0
 19 22  1  0  0  0  0
 17 23  1  0  0  0  0
 23 24  1  0  0  0  0
 23 25  1  0  0  0  0
 23 26  1  0  0  0  0
M  END
> <VConfSearch Rank>
280

> <Conf_Id>
107

> <Delta U+W>
2.995

> <U+W>
-27.304

> <U>
26.796

> <W>
-54.100

> <W(PB)>
-56.404

> <W(SA)>
2.304

> <Valence>
5.706

> <Coulomb>
20.107

> <VdW>
0.982

> <VdW6>
-8.396

> <VdW12>
9.378

> <Bond>
0.254

> <Angle>
1.644

> <Pdih>
3.808

> <Idih>
0.000

> <Tether>
0.000

$$$$
VeraChem MOL file


 26 25  0  0  0  0  0  0  0  0999 V2000     
   17.7325   20.8768   26.1226 C   0  0  0  0  0  0  0  0  0  0  0  0
   17.4749   21.8195   25.6223 H   0  0  0  0  0  0  0  0  0  0  0  0
   16.9039   20.6138   26.7929 H   0  0  0  0  0  0  0  0  0  0  0  0
   18.6236   21.0497   26.7401 H   0  0  0  0  0  0  0  0  0  0  0  0
   17.9796   19.7526   25.0943 C   0  0  0  0  0  0  0  0  0  0  0  0
   17.0613   19.5797   24.5156 H   0  0  0  0  0  0  0  0  0  0  0  0
   18.2010   18.8159   25.6248 H   0  0  0  0  0  0  0  0  0  0  0  0
   19.1421   20.0980   24.1374 C   0  0  0  0  0  0  0  0  0  0  0  0
   18.9170   21.0367   23.6125 H   0  0  0  0  0  0  0  0  0  0  0  0
   20.0571   20.2716   24.7206 H   0  0  0  0  0  0  0  0  0  0  0  0
   19.3921   18.9748   23.1056 C   0  0  0  0  0  0  0  0  0  0  0  0
   18.4774   18.8048   22.5208 H   0  0  0  0  0  0  0  0  0  0  0  0
   19.6096   18.0394   23.6382 H   0  0  0  0  0  0  0  0  0  0  0  0
   20.5585   19.3233   22.1492 C   0  0  0  0  0  0  0  0  0  0  0  0
   20.3470   20.2878   21.6684 H   0  0  0  0  0  0  0  0  0  0  0  0
   21.4841   19.4566   22.7250 H   0  0  0  0  0  0  0  0  0  0  0  0
   20.7778   18.2584   21.0526 C   0  0  1  0  0  0  0  0  0  0  0  0
   19.8368   18.1268   20.5096 H   0  0  0  0  0  0  0  0  0  0  0  0
   21.8481   18.7306   20.0555 C   0  0  0  0  0  0  0  0  0  0  0  0
   22.8160   18.8765   20.5514 H   0  0  0  0  0  0  0  0  0  0  0  0
   21.5559   19.6804   19.5905 H   0  0  0  0  0  0  0  0  0  0  0  0
   21.9826   17.9951   19.2529 H   0  0  0  0  0  0  0  0  0  0  0  0
   21.1422   16.9135   21.6199 N   0  3  0  0  0  0  0  0  0  0  0  0
   22.0173   16.9560   22.1488 H   0  0  0  0  0  0  0  0  0  0  0  0
   20.4165   16.5645   22.2514 H   0  0  0  0  0  0  0  0  0  0  0  0
   21.2649   16.2162   20.8801 H   0  0  0  0  0  0  0  0  0  0  0  0
  1  2  1  0  0  0  0
  1  3  1  0  0  0  0
  1  4  1  0  0  0  0
  1  5  1  0  0  0  0
  5  6  1  0  0  0  0
  5  7  1  0  0  0  0
  5  8  1  0  0  0  0
  8  9  1  0  0  0  0
  8 10  1  0  0  0  0
  8 11  1  0  0  0  0
 11 12  1  0  0  0  0
 11 13  1  0  0  0  0
 11 14  1  0  0  0  0
 14 15  1  0  0  0  0
 14 16  1  0  0  0  0
 14 17  1  0  0  0  0
 17 18  1  0  0  0  0
 17 19  1  0  0  0  0
 19 20  1  0  0  0  0
 19 21  1  0  0  0  0
 19 22  1  0  0  0  0
 17 23  1  0  0  0  0
 23 24  1  0  0  0  0
 23 25  1  0  0  0  0
 23 26  1  0  0  0  0
M  END
> <VConfSearch Rank>
281

> <Conf_Id>
122

> <Delta U+W>
0.000

> <U+W>
-30.299

> <U>
23.517

> <W>
-53.816

> <W(PB)>
-56.162

> <W(SA)>
2.346

> <Valence>
2.737

> <Coulomb>
19.862

> <VdW>
0.919

> <VdW6>
-6.793

> <VdW12>
7.712

> <Bond>
0.171

> <Angle>
0.873

> <Pdih>
1.693

> <Idih>
0.000

> <Tether>
0.000

$$$$
VeraChem MOL file


 26 25  0  0  0  0  0  0  0  0999 V2000     
   16.8353   20.9972   25.2508 C   0  0  0  0  0  0  0  0  0  0  0  0
   16.2859   20.8014   26.1807 H   0  0  0  0  0  0  0  0  0  0  0  0
   17.3228   21.9761   25.3471 H   0  0  0  0  0  0  0  0  0  0  0  0
   16.1044   21.0580   24.4339 H   0  0  0  0  0  0  0  0  0  0  0  0
   17.8720   19.8849   24.9858 C   0  0  0  0  0  0  0  0  0  0  0  0
   17.3588   18.9147   24.9283 H   0  0  0  0  0  0  0  0  0  0  0  0
   18.5680   19.8256   25.8343 H   0  0  0  0  0  0  0  0  0  0  0  0
   18.6602   20.1364   23.6812 C   0  0  0  0  0  0  0  0  0  0  0  0
   17.9603   20.1967   22.8363 H   0  0  0  0  0  0  0  0  0  0  0  0
   19.1683   21.1088   23.7430 H   0  0  0  0  0  0  0  0  0  0  0  0
   19.6998   19.0247   23.4126 C   0  0  0  0  0  0  0  0  0  0  0  0
   19.1827   18.0576   23.3615 H   0  0  0  0  0  0  0  0  0  0  0  0
   20.4022   18.9682   24.2558 H   0  0  0  0  0  0  0  0  0  0  0  0
   20.4851   19.2774   22.1020 C   0  0  0  0  0  0  0  0  0  0  0  0
   19.7941   19.2694   21.2486 H   0  0  0  0  0  0  0  0  0  0  0  0
   20.9174   20.2860   22.1428 H   0  0  0  0  0  0  0  0  0  0  0  0
   21.6279   18.2659   21.8552 C   0  0  1  0  0  0  0  0  0  0  0  0
   22.2783   18.2617   22.7354 H   0  0  0  0  0  0  0  0  0  0  0  0
   21.1005   16.8369   21.6324 C   0  0  0  0  0  0  0  0  0  0  0  0
   20.3912   16.8015   20.7962 H   0  0  0  0  0  0  0  0  0  0  0  0
   20.5971   16.4532   22.5272 H   0  0  0  0  0  0  0  0  0  0  0  0
   21.9265   16.1512   21.4068 H   0  0  0  0  0  0  0  0  0  0  0  0
   22.4864   18.6900   20.6959 N   0  3  0  0  0  0  0  0  0  0  0  0
   21.9512   18.7180   19.8240 H   0  0  0  0  0  0  0  0  0  0  0  0
   22.8849   19.6219   20.8423 H   0  0  0  0  0  0  0  0  0  0  0  0
   23.2682   18.0443   20.5534 H   0  0  0  0  0  0  0  0  0  0  0  0
  1  2  1  0  0  0  0
  1  3  1  0  0  0  0
  1  4  1  0  0  0  0
  1  5  1  0  0  0  0
  5  6  1  0  0  0  0
  5  7  1  0  0  0  0
  5  8  1  0  0  0  0
  8  9  1  0  0  0  0
  8 10  1  0  0  0  0
  8 11  1  0  0  0  0
 11 12  1  0  0  0  0
 11 13  1  0  0  0  0
 11 14  1  0  0  0  0
 14 15  1  0  0  0  0
 14 16  1  0  0  0  0
 14 17  1  0  0  0  0
 17 18  1  0  0  0  0
 17 19  1  0  0  0  0
 19 20  1  0  0  0  0
 19 21  1  0  0  0  0
 19 22  1  0  0  0  0
 17 23  1  0  0  0  0
 23 24  1  0  0  0  0
 23 25  1  0  0  0  0
 23 26  1  0  0  0  0
M  END
> <VConfSearch Rank>
282

> <Conf_Id>
54

> <Delta U+W>
0.453

> <U+W>
-29.845

> <U>
23.817

> <W>
-53.663

> <W(PB)>
-56.021

> <W(SA)>
2.358

> <Valence>
3.277

> <Coulomb>
19.492

> <VdW>
1.049

> <VdW6>
-6.949

> <VdW12>
7.998

> <Bond>
0.183

> <Angle>
1.152

> <Pdih>
1.942

> <Idih>
0.000

> <Tether>
0.000

$$$$
VeraChem MOL file


 26 25  0  0  0  0  0  0  0  0999 V2000     
   23.0521   18.0074   21.6199 C   0  0  0  0  0  0  0  0  0  0  0  0
   23.5362   18.2060   22.5849 H   0  0  0  0  0  0  0  0  0  0  0  0
   22.5640   17.0268   21.6752 H   0  0  0  0  0  0  0  0  0  0  0  0
   23.8395   17.9395   20.8580 H   0  0  0  0  0  0  0  0  0  0  0  0
   22.0484   19.1268   21.2603 C   0  0  0  0  0  0  0  0  0  0  0  0
   21.5521   18.8892   20.3089 H   0  0  0  0  0  0  0  0  0  0  0  0
   22.6082   20.0571   21.0901 H   0  0  0  0  0  0  0  0  0  0  0  0
   20.9865   19.3830   22.3573 C   0  0  0  0  0  0  0  0  0  0  0  0
   21.4898   19.5900   23.3119 H   0  0  0  0  0  0  0  0  0  0  0  0
   20.4393   20.2913   22.0788 H   0  0  0  0  0  0  0  0  0  0  0  0
   19.9837   18.2142   22.5291 C   0  0  0  0  0  0  0  0  0  0  0  0
   20.5380   17.2795   22.6806 H   0  0  0  0  0  0  0  0  0  0  0  0
   19.4139   18.0826   21.5989 H   0  0  0  0  0  0  0  0  0  0  0  0
   18.9998   18.3687   23.7191 C   0  0  0  0  0  0  0  0  0  0  0  0
   18.4257   17.4347   23.7837 H   0  0  0  0  0  0  0  0  0  0  0  0
   19.5559   18.4427   24.6630 H   0  0  0  0  0  0  0  0  0  0  0  0
   18.0086   19.5506   23.5964 C   0  0  1  0  0  0  0  0  0  0  0  0
   17.7012   19.6365   22.5496 H   0  0  0  0  0  0  0  0  0  0  0  0
   16.7539   19.2882   24.4460 C   0  0  0  0  0  0  0  0  0  0  0  0
   16.0402   20.1160   24.3513 H   0  0  0  0  0  0  0  0  0  0  0  0
   17.0095   19.1764   25.5072 H   0  0  0  0  0  0  0  0  0  0  0  0
   16.2441   18.3735   24.1186 H   0  0  0  0  0  0  0  0  0  0  0  0
   18.6193   20.8679   23.9906 N   0  3  0  0  0  0  0  0  0  0  0  0
   19.4529   21.0761   23.4366 H   0  0  0  0  0  0  0  0  0  0  0  0
   17.9598   21.6401   23.8585 H   0  0  0  0  0  0  0  0  0  0  0  0
   18.8966   20.8687   24.9757 H   0  0  0  0  0  0  0  0  0  0  0  0
  1  2  1  0  0  0  0
  1  3  1  0  0  0  0
  1  4  1  0  0  0  0
  1  5  1  0  0  0  0
  5  6  1  0  0  0  0
  5  7  1  0  0  0  0
  5  8  1  0  0  0  0
  8  9  1  0  0  0  0
  8 10  1  0  0  0  0
  8 11  1  0  0  0  0
 11 12  1  0  0  0  0
 11 13  1  0  0  0  0
 11 14  1  0  0  0  0
 14 15  1  0  0  0  0
 14 16  1  0  0  0  0
 14 17  1  0  0  0  0
 17 18  1  0  0  0  0
 17 19  1  0  0  0  0
 19 20  1  0  0  0  0
 19 21  1  0  0  0  0
 19 22  1  0  0  0  0
 17 23  1  0  0  0  0
 23 24  1  0  0  0  0
 23 25  1  0  0  0  0
 23 26  1  0  0  0  0
M  END
> <VConfSearch Rank>
283

> <Conf_Id>
110

> <Delta U+W>
3.764

> <U+W>
-26.535

> <U>
27.400

> <W>
-53.935

> <W(PB)>
-56.238

> <W(SA)>
2.303

> <Valence>
5.205

> <Coulomb>
21.096

> <VdW>
1.098

> <VdW6>
-8.389

> <VdW12>
9.488

> <Bond>
0.270

> <Angle>
1.912

> <Pdih>
3.023

> <Idih>
0.000

> <Tether>
0.000

$$$$
VeraChem MOL file


 26 25  0  0  0  0  0  0  0  0999 V2000     
   20.5213   15.8176   24.3320 C   0  0  0  0  0  0  0  0  0  0  0  0
   20.2395   14.7617   24.4346 H   0  0  0  0  0  0  0  0  0  0  0  0
   21.2273   15.8904   23.4954 H   0  0  0  0  0  0  0  0  0  0  0  0
   21.0432   16.1164   25.2504 H   0  0  0  0  0  0  0  0  0  0  0  0
   19.2685   16.6912   24.0953 C   0  0  0  0  0  0  0  0  0  0  0  0
   18.5415   16.4917   24.8950 H   0  0  0  0  0  0  0  0  0  0  0  0
   18.7820   16.3923   23.1563 H   0  0  0  0  0  0  0  0  0  0  0  0
   19.5718   18.2086   24.0669 C   0  0  0  0  0  0  0  0  0  0  0  0
   18.6196   18.7495   24.0104 H   0  0  0  0  0  0  0  0  0  0  0  0
   20.0327   18.5059   25.0190 H   0  0  0  0  0  0  0  0  0  0  0  0
   20.4929   18.6300   22.8929 C   0  0  0  0  0  0  0  0  0  0  0  0
   20.1172   18.2230   21.9440 H   0  0  0  0  0  0  0  0  0  0  0  0
   21.4818   18.1783   23.0469 H   0  0  0  0  0  0  0  0  0  0  0  0
   20.6768   20.1667   22.7780 C   0  0  0  0  0  0  0  0  0  0  0  0
   20.5446   20.6409   23.7596 H   0  0  0  0  0  0  0  0  0  0  0  0
   21.7194   20.3587   22.4917 H   0  0  0  0  0  0  0  0  0  0  0  0
   19.7719   20.8520   21.7257 C   0  0  1  0  0  0  0  0  0  0  0  0
   19.9648   20.3839   20.7555 H   0  0  0  0  0  0  0  0  0  0  0  0
   18.2733   20.7044   22.0390 C   0  0  0  0  0  0  0  0  0  0  0  0
   18.0372   21.0836   23.0410 H   0  0  0  0  0  0  0  0  0  0  0  0
   17.9603   19.6555   21.9798 H   0  0  0  0  0  0  0  0  0  0  0  0
   17.6695   21.2624   21.3129 H   0  0  0  0  0  0  0  0  0  0  0  0
   20.1294   22.3044   21.5713 N   0  3  0  0  0  0  0  0  0  0  0  0
   21.1131   22.4257   21.3137 H   0  0  0  0  0  0  0  0  0  0  0  0
   19.5669   22.7526   20.8425 H   0  0  0  0  0  0  0  0  0  0  0  0
   19.9728   22.8227   22.4397 H   0  0  0  0  0  0  0  0  0  0  0  0
  1  2  1  0  0  0  0
  1  3  1  0  0  0  0
  1  4  1  0  0  0  0
  1  5  1  0  0  0  0
  5  6  1  0  0  0  0
  5  7  1  0  0  0  0
  5  8  1  0  0  0  0
  8  9  1  0  0  0  0
  8 10  1  0  0  0  0
  8 11  1  0  0  0  0
 11 12  1  0  0  0  0
 11 13  1  0  0  0  0
 11 14  1  0  0  0  0
 14 15  1  0  0  0  0
 14 16  1  0  0  0  0
 14 17  1  0  0  0  0
 17 18  1  0  0  0  0
 17 19  1  0  0  0  0
 19 20  1  0  0  0  0
 19 21  1  0  0  0  0
 19 22  1  0  0  0  0
 17 23  1  0  0  0  0
 23 24  1  0  0  0  0
 23 25  1  0  0  0  0
 23 26  1  0  0  0  0
M  END
> <VConfSearch Rank>
284

> <Conf_Id>
34

> <Delta U+W>
3.568

> <U+W>
-26.731

> <U>
27.221

> <W>
-53.952

> <W(PB)>
-56.213

> <W(SA)>
2.261

> <Valence>
6.368

> <Coulomb>
19.698

> <VdW>
1.155

> <VdW6>
-8.532

> <VdW12>
9.687

> <Bond>
0.272

> <Angle>
1.847

> <Pdih>
4.248

> <Idih>
0.000

> <Tether>
0.000

$$$$
VeraChem MOL file


 26 25  0  0  0  0  0  0  0  0999 V2000     
   16.4873   16.9287   23.7807 C   0  0  0  0  0  0  0  0  0  0  0  0
   16.8722   16.3701   24.6438 H   0  0  0  0  0  0  0  0  0  0  0  0
   15.8606   17.7484   24.1559 H   0  0  0  0  0  0  0  0  0  0  0  0
   15.8459   16.2526   23.2006 H   0  0  0  0  0  0  0  0  0  0  0  0
   17.6414   17.4670   22.9087 C   0  0  0  0  0  0  0  0  0  0  0  0
   17.2255   17.9910   22.0368 H   0  0  0  0  0  0  0  0  0  0  0  0
   18.2292   16.6232   22.5209 H   0  0  0  0  0  0  0  0  0  0  0  0
   18.5603   18.4223   23.7022 C   0  0  0  0  0  0  0  0  0  0  0  0
   17.9673   19.2623   24.0897 H   0  0  0  0  0  0  0  0  0  0  0  0
   18.9712   17.8946   24.5740 H   0  0  0  0  0  0  0  0  0  0  0  0
   19.7177   18.9634   22.8325 C   0  0  0  0  0  0  0  0  0  0  0  0
   19.2999   19.4875   21.9629 H   0  0  0  0  0  0  0  0  0  0  0  0
   20.3005   18.1167   22.4468 H   0  0  0  0  0  0  0  0  0  0  0  0
   20.6378   19.9192   23.6359 C   0  0  0  0  0  0  0  0  0  0  0  0
   20.0329   20.7333   24.0563 H   0  0  0  0  0  0  0  0  0  0  0  0
   21.0581   19.3807   24.4957 H   0  0  0  0  0  0  0  0  0  0  0  0
   21.7984   20.5421   22.8244 C   0  0  1  0  0  0  0  0  0  0  0  0
   22.3432   21.2110   23.4979 H   0  0  0  0  0  0  0  0  0  0  0  0
   22.7908   19.4783   22.3233 C   0  0  0  0  0  0  0  0  0  0  0  0
   22.3392   18.8265   21.5660 H   0  0  0  0  0  0  0  0  0  0  0  0
   23.1417   18.8512   23.1522 H   0  0  0  0  0  0  0  0  0  0  0  0
   23.6695   19.9558   21.8728 H   0  0  0  0  0  0  0  0  0  0  0  0
   21.3103   21.4007   21.6900 N   0  3  0  0  0  0  0  0  0  0  0  0
   22.0880   21.8552   21.2032 H   0  0  0  0  0  0  0  0  0  0  0  0
   20.7973   20.8477   20.9991 H   0  0  0  0  0  0  0  0  0  0  0  0
   20.6834   22.1396   22.0209 H   0  0  0  0  0  0  0  0  0  0  0  0
  1  2  1  0  0  0  0
  1  3  1  0  0  0  0
  1  4  1  0  0  0  0
  1  5  1  0  0  0  0
  5  6  1  0  0  0  0
  5  7  1  0  0  0  0
  5  8  1  0  0  0  0
  8  9  1  0  0  0  0
  8 10  1  0  0  0  0
  8 11  1  0  0  0  0
 11 12  1  0  0  0  0
 11 13  1  0  0  0  0
 11 14  1  0  0  0  0
 14 15  1  0  0  0  0
 14 16  1  0  0  0  0
 14 17  1  0  0  0  0
 17 18  1  0  0  0  0
 17 19  1  0  0  0  0
 19 20  1  0  0  0  0
 19 21  1  0  0  0  0
 19 22  1  0  0  0  0
 17 23  1  0  0  0  0
 23 24  1  0  0  0  0
 23 25  1  0  0  0  0
 23 26  1  0  0  0  0
M  END
> <VConfSearch Rank>
285

> <Conf_Id>
132

> <Delta U+W>
0.363

> <U+W>
-29.936

> <U>
24.060

> <W>
-53.996

> <W(PB)>
-56.327

> <W(SA)>
2.332

> <Valence>
3.249

> <Coulomb>
19.781

> <VdW>
1.030

> <VdW6>
-7.421

> <VdW12>
8.451

> <Bond>
0.207

> <Angle>
1.205

> <Pdih>
1.837

> <Idih>
0.000

> <Tether>
0.000

$$$$
VeraChem MOL file


 26 25  0  0  0  0  0  0  0  0999 V2000     
   19.7283   18.3687   26.7972 C   0  0  0  0  0  0  0  0  0  0  0  0
   20.5892   18.4569   27.4726 H   0  0  0  0  0  0  0  0  0  0  0  0
   18.8996   18.9431   27.2314 H   0  0  0  0  0  0  0  0  0  0  0  0
   19.4321   17.3121   26.7649 H   0  0  0  0  0  0  0  0  0  0  0  0
   20.0857   18.8875   25.3882 C   0  0  0  0  0  0  0  0  0  0  0  0
   20.9428   18.3172   25.0067 H   0  0  0  0  0  0  0  0  0  0  0  0
   20.4054   19.9367   25.4570 H   0  0  0  0  0  0  0  0  0  0  0  0
   18.8876   18.7687   24.4166 C   0  0  0  0  0  0  0  0  0  0  0  0
   18.6035   17.7132   24.3054 H   0  0  0  0  0  0  0  0  0  0  0  0
   18.0192   19.2757   24.8596 H   0  0  0  0  0  0  0  0  0  0  0  0
   19.1544   19.3852   23.0212 C   0  0  0  0  0  0  0  0  0  0  0  0
   19.4308   20.4412   23.1403 H   0  0  0  0  0  0  0  0  0  0  0  0
   18.2103   19.3727   22.4616 H   0  0  0  0  0  0  0  0  0  0  0  0
   20.2477   18.6330   22.2136 C   0  0  0  0  0  0  0  0  0  0  0  0
   21.1993   18.6723   22.7572 H   0  0  0  0  0  0  0  0  0  0  0  0
   19.9818   17.5700   22.1441 H   0  0  0  0  0  0  0  0  0  0  0  0
   20.4938   19.1787   20.7869 C   0  0  1  0  0  0  0  0  0  0  0  0
   21.3173   18.6004   20.3566 H   0  0  0  0  0  0  0  0  0  0  0  0
   19.2699   18.9907   19.8732 C   0  0  0  0  0  0  0  0  0  0  0  0
   18.4296   19.6231   20.1828 H   0  0  0  0  0  0  0  0  0  0  0  0
   18.9352   17.9459   19.8792 H   0  0  0  0  0  0  0  0  0  0  0  0
   19.5212   19.2527   18.8381 H   0  0  0  0  0  0  0  0  0  0  0  0
   20.9488   20.6122   20.7909 N   0  3  0  0  0  0  0  0  0  0  0  0
   21.7910   20.7374   21.3595 H   0  0  0  0  0  0  0  0  0  0  0  0
   21.1671   20.9382   19.8451 H   0  0  0  0  0  0  0  0  0  0  0  0
   20.2266   21.2300   21.1692 H   0  0  0  0  0  0  0  0  0  0  0  0
  1  2  1  0  0  0  0
  1  3  1  0  0  0  0
  1  4  1  0  0  0  0
  1  5  1  0  0  0  0
  5  6  1  0  0  0  0
  5  7  1  0  0  0  0
  5  8  1  0  0  0  0
  8  9  1  0  0  0  0
  8 10  1  0  0  0  0
  8 11  1  0  0  0  0
 11 12  1  0  0  0  0
 11 13  1  0  0  0  0
 11 14  1  0  0  0  0
 14 15  1  0  0  0  0
 14 16  1  0  0  0  0
 14 17  1  0  0  0  0
 17 18  1  0  0  0  0
 17 19  1  0  0  0  0
 19 20  1  0  0  0  0
 19 21  1  0  0  0  0
 19 22  1  0  0  0  0
 17 23  1  0  0  0  0
 23 24  1  0  0  0  0
 23 25  1  0  0  0  0
 23 26  1  0  0  0  0
M  END
> <VConfSearch Rank>
286

> <Conf_Id>
46

> <Delta U+W>
1.114

> <U+W>
-29.185

> <U>
24.990

> <W>
-54.175

> <W(PB)>
-56.455

> <W(SA)>
2.279

> <Valence>
3.862

> <Coulomb>
19.956

> <VdW>
1.172

> <VdW6>
-8.054

> <VdW12>
9.226

> <Bond>
0.258

> <Angle>
1.499

> <Pdih>
2.106

> <Idih>
0.000

> <Tether>
0.000

$$$$
VeraChem MOL file


 26 25  0  0  0  0  0  0  0  0999 V2000     
   22.5704   17.8683   25.0687 C   0  0  0  0  0  0  0  0  0  0  0  0
   22.7233   18.9499   25.1686 H   0  0  0  0  0  0  0  0  0  0  0  0
   21.9346   17.5320   25.8979 H   0  0  0  0  0  0  0  0  0  0  0  0
   23.5501   17.3859   25.1803 H   0  0  0  0  0  0  0  0  0  0  0  0
   21.9421   17.5059   23.7038 C   0  0  0  0  0  0  0  0  0  0  0  0
   21.9287   16.4117   23.6013 H   0  0  0  0  0  0  0  0  0  0  0  0
   22.5794   17.8825   22.8916 H   0  0  0  0  0  0  0  0  0  0  0  0
   20.4991   18.0374   23.5275 C   0  0  0  0  0  0  0  0  0  0  0  0
   20.0963   17.6231   22.5941 H   0  0  0  0  0  0  0  0  0  0  0  0
   19.8650   17.6499   24.3368 H   0  0  0  0  0  0  0  0  0  0  0  0
   20.4124   19.5845   23.4912 C   0  0  0  0  0  0  0  0  0  0  0  0
   21.0677   19.9757   22.7018 H   0  0  0  0  0  0  0  0  0  0  0  0
   20.7953   19.9946   24.4347 H   0  0  0  0  0  0  0  0  0  0  0  0
   18.9677   20.1112   23.2925 C   0  0  0  0  0  0  0  0  0  0  0  0
   18.3524   19.7818   24.1404 H   0  0  0  0  0  0  0  0  0  0  0  0
   18.9796   21.2086   23.3313 H   0  0  0  0  0  0  0  0  0  0  0  0
   18.2972   19.6555   21.9768 C   0  0  1  0  0  0  0  0  0  0  0  0
   18.2691   18.5621   21.9641 H   0  0  0  0  0  0  0  0  0  0  0  0
   16.8510   20.1711   21.9074 C   0  0  0  0  0  0  0  0  0  0  0  0
   16.3562   19.8177   20.9943 H   0  0  0  0  0  0  0  0  0  0  0  0
   16.8195   21.2679   21.9106 H   0  0  0  0  0  0  0  0  0  0  0  0
   16.2672   19.8100   22.7632 H   0  0  0  0  0  0  0  0  0  0  0  0
   19.0713   20.0829   20.7600 N   0  3  0  0  0  0  0  0  0  0  0  0
   20.0251   19.7121   20.7774 H   0  0  0  0  0  0  0  0  0  0  0  0
   18.6282   19.7520   19.8983 H   0  0  0  0  0  0  0  0  0  0  0  0
   19.1373   21.1023   20.6990 H   0  0  0  0  0  0  0  0  0  0  0  0
  1  2  1  0  0  0  0
  1  3  1  0  0  0  0
  1  4  1  0  0  0  0
  1  5  1  0  0  0  0
  5  6  1  0  0  0  0
  5  7  1  0  0  0  0
  5  8  1  0  0  0  0
  8  9  1  0  0  0  0
  8 10  1  0  0  0  0
  8 11  1  0  0  0  0
 11 12  1  0  0  0  0
 11 13  1  0  0  0  0
 11 14  1  0  0  0  0
 14 15  1  0  0  0  0
 14 16  1  0  0  0  0
 14 17  1  0  0  0  0
 17 18  1  0  0  0  0
 17 19  1  0  0  0  0
 19 20  1  0  0  0  0
 19 21  1  0  0  0  0
 19 22  1  0  0  0  0
 17 23  1  0  0  0  0
 23 24  1  0  0  0  0
 23 25  1  0  0  0  0
 23 26  1  0  0  0  0
M  END
> <VConfSearch Rank>
287

> <Conf_Id>
113

> <Delta U+W>
1.137

> <U+W>
-29.162

> <U>
24.833

> <W>
-53.995

> <W(PB)>
-56.288

> <W(SA)>
2.294

> <Valence>
3.589

> <Coulomb>
20.270

> <VdW>
0.974

> <VdW6>
-8.255

> <VdW12>
9.229

> <Bond>
0.244

> <Angle>
1.377

> <Pdih>
1.967

> <Idih>
0.000

> <Tether>
0.000

$$$$
VeraChem MOL file


 26 25  0  0  0  0  0  0  0  0999 V2000     
   21.5129   20.1171   26.3444 C   0  0  0  0  0  0  0  0  0  0  0  0
   21.1083   20.8501   27.0543 H   0  0  0  0  0  0  0  0  0  0  0  0
   21.5026   19.1338   26.8325 H   0  0  0  0  0  0  0  0  0  0  0  0
   22.5573   20.3868   26.1405 H   0  0  0  0  0  0  0  0  0  0  0  0
   20.6798   20.0996   25.0451 C   0  0  0  0  0  0  0  0  0  0  0  0
   20.6848   21.1026   24.5961 H   0  0  0  0  0  0  0  0  0  0  0  0
   19.6362   19.8672   25.2949 H   0  0  0  0  0  0  0  0  0  0  0  0
   21.2290   19.0696   24.0298 C   0  0  0  0  0  0  0  0  0  0  0  0
   22.2950   19.2729   23.8572 H   0  0  0  0  0  0  0  0  0  0  0  0
   21.1742   18.0600   24.4598 H   0  0  0  0  0  0  0  0  0  0  0  0
   20.4981   19.0938   22.6648 C   0  0  0  0  0  0  0  0  0  0  0  0
   21.0319   18.4220   21.9801 H   0  0  0  0  0  0  0  0  0  0  0  0
   20.5757   20.1011   22.2347 H   0  0  0  0  0  0  0  0  0  0  0  0
   19.0081   18.6647   22.7568 C   0  0  0  0  0  0  0  0  0  0  0  0
   18.9401   17.7055   23.2864 H   0  0  0  0  0  0  0  0  0  0  0  0
   18.4520   19.3881   23.3660 H   0  0  0  0  0  0  0  0  0  0  0  0
   18.2876   18.5244   21.3949 C   0  0  1  0  0  0  0  0  0  0  0  0
   17.2596   18.2114   21.6022 H   0  0  0  0  0  0  0  0  0  0  0  0
   18.2231   19.8611   20.6355 C   0  0  0  0  0  0  0  0  0  0  0  0
   19.2172   20.1920   20.3121 H   0  0  0  0  0  0  0  0  0  0  0  0
   17.7869   20.6465   21.2651 H   0  0  0  0  0  0  0  0  0  0  0  0
   17.5948   19.7644   19.7415 H   0  0  0  0  0  0  0  0  0  0  0  0
   18.8856   17.4444   20.5356 N   0  3  0  0  0  0  0  0  0  0  0  0
   18.8932   16.5414   21.0183 H   0  0  0  0  0  0  0  0  0  0  0  0
   18.3573   17.3220   19.6671 H   0  0  0  0  0  0  0  0  0  0  0  0
   19.8508   17.6647   20.2787 H   0  0  0  0  0  0  0  0  0  0  0  0
  1  2  1  0  0  0  0
  1  3  1  0  0  0  0
  1  4  1  0  0  0  0
  1  5  1  0  0  0  0
  5  6  1  0  0  0  0
  5  7  1  0  0  0  0
  5  8  1  0  0  0  0
  8  9  1  0  0  0  0
  8 10  1  0  0  0  0
  8 11  1  0  0  0  0
 11 12  1  0  0  0  0
 11 13  1  0  0  0  0
 11 14  1  0  0  0  0
 14 15  1  0  0  0  0
 14 16  1  0  0  0  0
 14 17  1  0  0  0  0
 17 18  1  0  0  0  0
 17 19  1  0  0  0  0
 19 20  1  0  0  0  0
 19 21  1  0  0  0  0
 19 22  1  0  0  0  0
 17 23  1  0  0  0  0
 23 24  1  0  0  0  0
 23 25  1  0  0  0  0
 23 26  1  0  0  0  0
M  END
> <VConfSearch Rank>
288

> <Conf_Id>
45

> <Delta U+W>
1.035

> <U+W>
-29.264

> <U>
24.725

> <W>
-53.989

> <W(PB)>
-56.298

> <W(SA)>
2.309

> <Valence>
3.780

> <Coulomb>
19.804

> <VdW>
1.141

> <VdW6>
-8.104

> <VdW12>
9.246

> <Bond>
0.254

> <Angle>
1.437

> <Pdih>
2.089

> <Idih>
0.000

> <Tether>
0.000

$$$$
VeraChem MOL file


 26 25  0  0  0  0  0  0  0  0999 V2000     
   16.6485   17.5422   21.1281 C   0  0  0  0  0  0  0  0  0  0  0  0
   16.6071   16.5030   20.7767 H   0  0  0  0  0  0  0  0  0  0  0  0
   15.7165   17.7519   21.6691 H   0  0  0  0  0  0  0  0  0  0  0  0
   16.6864   18.1949   20.2462 H   0  0  0  0  0  0  0  0  0  0  0  0
   17.8785   17.7624   22.0341 C   0  0  0  0  0  0  0  0  0  0  0  0
   18.7848   17.5028   21.4714 H   0  0  0  0  0  0  0  0  0  0  0  0
   17.8269   17.0761   22.8909 H   0  0  0  0  0  0  0  0  0  0  0  0
   17.9603   19.2229   22.5384 C   0  0  0  0  0  0  0  0  0  0  0  0
   18.0690   19.9047   21.6836 H   0  0  0  0  0  0  0  0  0  0  0  0
   17.0093   19.4854   23.0221 H   0  0  0  0  0  0  0  0  0  0  0  0
   19.1074   19.4697   23.5493 C   0  0  0  0  0  0  0  0  0  0  0  0
   18.9962   18.7884   24.4042 H   0  0  0  0  0  0  0  0  0  0  0  0
   18.9945   20.4865   23.9478 H   0  0  0  0  0  0  0  0  0  0  0  0
   20.5212   19.3089   22.9330 C   0  0  0  0  0  0  0  0  0  0  0  0
   20.6389   18.2850   22.5575 H   0  0  0  0  0  0  0  0  0  0  0  0
   20.6275   19.9760   22.0673 H   0  0  0  0  0  0  0  0  0  0  0  0
   21.6543   19.5877   23.9448 C   0  0  1  0  0  0  0  0  0  0  0  0
   21.5064   18.9377   24.8128 H   0  0  0  0  0  0  0  0  0  0  0  0
   23.0201   19.2567   23.3218 C   0  0  0  0  0  0  0  0  0  0  0  0
   23.2184   19.8838   22.4436 H   0  0  0  0  0  0  0  0  0  0  0  0
   23.0615   18.2062   23.0079 H   0  0  0  0  0  0  0  0  0  0  0  0
   23.8272   19.4188   24.0468 H   0  0  0  0  0  0  0  0  0  0  0  0
   21.6387   21.0030   24.4552 N   0  3  0  0  0  0  0  0  0  0  0  0
   20.7525   21.2253   24.9161 H   0  0  0  0  0  0  0  0  0  0  0  0
   22.3860   21.1631   25.1366 H   0  0  0  0  0  0  0  0  0  0  0  0
   21.7683   21.6756   23.6948 H   0  0  0  0  0  0  0  0  0  0  0  0
  1  2  1  0  0  0  0
  1  3  1  0  0  0  0
  1  4  1  0  0  0  0
  1  5  1  0  0  0  0
  5  6  1  0  0  0  0
  5  7  1  0  0  0  0
  5  8  1  0  0  0  0
  8  9  1  0  0  0  0
  8 10  1  0  0  0  0
  8 11  1  0  0  0  0
 11 12  1  0  0  0  0
 11 13  1  0  0  0  0
 11 14  1  0  0  0  0
 14 15  1  0  0  0  0
 14 16  1  0  0  0  0
 14 17  1  0  0  0  0
 17 18  1  0  0  0  0
 17 19  1  0  0  0  0
 19 20  1  0  0  0  0
 19 21  1  0  0  0  0
 19 22  1  0  0  0  0
 17 23  1  0  0  0  0
 23 24  1  0  0  0  0
 23 25  1  0  0  0  0
 23 26  1  0  0  0  0
M  END
> <VConfSearch Rank>
289

> <Conf_Id>
121

> <Delta U+W>
0.736

> <U+W>
-29.562

> <U>
24.282

> <W>
-53.844

> <W(PB)>
-56.205

> <W(SA)>
2.361

> <Valence>
3.311

> <Coulomb>
19.887

> <VdW>
1.083

> <VdW6>
-7.444

> <VdW12>
8.527

> <Bond>
0.219

> <Angle>
1.167

> <Pdih>
1.926

> <Idih>
0.000

> <Tether>
0.000

$$$$
VeraChem MOL file


 26 25  0  0  0  0  0  0  0  0999 V2000     
   16.8741   21.1642   22.0746 C   0  0  0  0  0  0  0  0  0  0  0  0
   16.3815   22.1344   21.9293 H   0  0  0  0  0  0  0  0  0  0  0  0
   16.4989   20.4788   21.3036 H   0  0  0  0  0  0  0  0  0  0  0  0
   16.5649   20.7821   23.0552 H   0  0  0  0  0  0  0  0  0  0  0  0
   18.4092   21.3186   21.9820 C   0  0  0  0  0  0  0  0  0  0  0  0
   18.7636   21.9811   22.7840 H   0  0  0  0  0  0  0  0  0  0  0  0
   18.6566   21.8214   21.0366 H   0  0  0  0  0  0  0  0  0  0  0  0
   19.1702   19.9719   22.0403 C   0  0  0  0  0  0  0  0  0  0  0  0
   18.8181   19.3167   21.2317 H   0  0  0  0  0  0  0  0  0  0  0  0
   20.2304   20.1722   21.8376 H   0  0  0  0  0  0  0  0  0  0  0  0
   19.0310   19.2440   23.4015 C   0  0  0  0  0  0  0  0  0  0  0  0
   17.9721   19.0306   23.5962 H   0  0  0  0  0  0  0  0  0  0  0  0
   19.3598   19.9059   24.2134 H   0  0  0  0  0  0  0  0  0  0  0  0
   19.8067   17.9023   23.4598 C   0  0  0  0  0  0  0  0  0  0  0  0
   19.6372   17.4354   24.4391 H   0  0  0  0  0  0  0  0  0  0  0  0
   19.3724   17.2190   22.7181 H   0  0  0  0  0  0  0  0  0  0  0  0
   21.3290   18.0082   23.2040 C   0  0  1  0  0  0  0  0  0  0  0  0
   21.4838   18.4627   22.2211 H   0  0  0  0  0  0  0  0  0  0  0  0
   22.0344   18.8785   24.2594 C   0  0  0  0  0  0  0  0  0  0  0  0
   21.8597   18.4938   25.2719 H   0  0  0  0  0  0  0  0  0  0  0  0
   21.6815   19.9156   24.2198 H   0  0  0  0  0  0  0  0  0  0  0  0
   23.1171   18.8971   24.0843 H   0  0  0  0  0  0  0  0  0  0  0  0
   21.9638   16.6466   23.1418 N   0  3  0  0  0  0  0  0  0  0  0  0
   21.5373   16.0641   22.4156 H   0  0  0  0  0  0  0  0  0  0  0  0
   22.9642   16.7092   22.9328 H   0  0  0  0  0  0  0  0  0  0  0  0
   21.8686   16.1483   24.0307 H   0  0  0  0  0  0  0  0  0  0  0  0
  1  2  1  0  0  0  0
  1  3  1  0  0  0  0
  1  4  1  0  0  0  0
  1  5  1  0  0  0  0
  5  6  1  0  0  0  0
  5  7  1  0  0  0  0
  5  8  1  0  0  0  0
  8  9  1  0  0  0  0
  8 10  1  0  0  0  0
  8 11  1  0  0  0  0
 11 12  1  0  0  0  0
 11 13  1  0  0  0  0
 11 14  1  0  0  0  0
 14 15  1  0  0  0  0
 14 16  1  0  0  0  0
 14 17  1  0  0  0  0
 17 18  1  0  0  0  0
 17 19  1  0  0  0  0
 19 20  1  0  0  0  0
 19 21  1  0  0  0  0
 19 22  1  0  0  0  0
 17 23  1  0  0  0  0
 23 24  1  0  0  0  0
 23 25  1  0  0  0  0
 23 26  1  0  0  0  0
M  END
> <VConfSearch Rank>
290

> <Conf_Id>
5

> <Delta U+W>
1.233

> <U+W>
-29.065

> <U>
25.023

> <W>
-54.088

> <W(PB)>
-56.383

> <W(SA)>
2.296

> <Valence>
4.083

> <Coulomb>
19.893

> <VdW>
1.047

> <VdW6>
-8.479

> <VdW12>
9.527

> <Bond>
0.256

> <Angle>
1.716

> <Pdih>
2.112

> <Idih>
0.000

> <Tether>
0.000

$$$$
VeraChem MOL file


 26 25  0  0  0  0  0  0  0  0999 V2000     
   19.0503   21.8106   20.5312 C   0  0  0  0  0  0  0  0  0  0  0  0
   19.2259   22.3710   19.6038 H   0  0  0  0  0  0  0  0  0  0  0  0
   18.1582   21.1914   20.3768 H   0  0  0  0  0  0  0  0  0  0  0  0
   18.8328   22.5364   21.3254 H   0  0  0  0  0  0  0  0  0  0  0  0
   20.2860   20.9522   20.8855 C   0  0  0  0  0  0  0  0  0  0  0  0
   21.1725   21.6016   20.9012 H   0  0  0  0  0  0  0  0  0  0  0  0
   20.4622   20.2114   20.0931 H   0  0  0  0  0  0  0  0  0  0  0  0
   20.1715   20.2387   22.2545 C   0  0  0  0  0  0  0  0  0  0  0  0
   21.1424   19.7769   22.4756 H   0  0  0  0  0  0  0  0  0  0  0  0
   19.9903   20.9833   23.0418 H   0  0  0  0  0  0  0  0  0  0  0  0
   19.0670   19.1531   22.2939 C   0  0  0  0  0  0  0  0  0  0  0  0
   19.2705   18.3966   21.5236 H   0  0  0  0  0  0  0  0  0  0  0  0
   18.1001   19.6033   22.0354 H   0  0  0  0  0  0  0  0  0  0  0  0
   18.9154   18.4561   23.6700 C   0  0  0  0  0  0  0  0  0  0  0  0
   18.6263   19.1907   24.4335 H   0  0  0  0  0  0  0  0  0  0  0  0
   18.0687   17.7611   23.5946 H   0  0  0  0  0  0  0  0  0  0  0  0
   20.1754   17.6762   24.1183 C   0  0  1  0  0  0  0  0  0  0  0  0
   20.8063   17.5128   23.2392 H   0  0  0  0  0  0  0  0  0  0  0  0
   20.9840   18.4610   25.1675 C   0  0  0  0  0  0  0  0  0  0  0  0
   20.4049   18.6001   26.0890 H   0  0  0  0  0  0  0  0  0  0  0  0
   21.2689   19.4519   24.7967 H   0  0  0  0  0  0  0  0  0  0  0  0
   21.9061   17.9254   25.4243 H   0  0  0  0  0  0  0  0  0  0  0  0
   19.8329   16.3102   24.6472 N   0  3  0  0  0  0  0  0  0  0  0  0
   19.3351   15.7500   23.9492 H   0  0  0  0  0  0  0  0  0  0  0  0
   20.6742   15.7895   24.9111 H   0  0  0  0  0  0  0  0  0  0  0  0
   19.2372   16.3686   25.4774 H   0  0  0  0  0  0  0  0  0  0  0  0
  1  2  1  0  0  0  0
  1  3  1  0  0  0  0
  1  4  1  0  0  0  0
  1  5  1  0  0  0  0
  5  6  1  0  0  0  0
  5  7  1  0  0  0  0
  5  8  1  0  0  0  0
  8  9  1  0  0  0  0
  8 10  1  0  0  0  0
  8 11  1  0  0  0  0
 11 12  1  0  0  0  0
 11 13  1  0  0  0  0
 11 14  1  0  0  0  0
 14 15  1  0  0  0  0
 14 16  1  0  0  0  0
 14 17  1  0  0  0  0
 17 18  1  0  0  0  0
 17 19  1  0  0  0  0
 19 20  1  0  0  0  0
 19 21  1  0  0  0  0
 19 22  1  0  0  0  0
 17 23  1  0  0  0  0
 23 24  1  0  0  0  0
 23 25  1  0  0  0  0
 23 26  1  0  0  0  0
M  END
> <VConfSearch Rank>
291

> <Conf_Id>
100

> <Delta U+W>
3.818

> <U+W>
-26.481

> <U>
27.496

> <W>
-53.977

> <W(PB)>
-56.267

> <W(SA)>
2.290

> <Valence>
6.472

> <Coulomb>
19.839

> <VdW>
1.185

> <VdW6>
-8.405

> <VdW12>
9.590

> <Bond>
0.248

> <Angle>
1.619

> <Pdih>
4.604

> <Idih>
0.000

> <Tether>
0.000

$$$$
VeraChem MOL file


 26 25  0  0  0  0  0  0  0  0999 V2000     
   22.0060   17.9670   25.7163 C   0  0  0  0  0  0  0  0  0  0  0  0
   22.0952   17.1572   26.4521 H   0  0  0  0  0  0  0  0  0  0  0  0
   22.7370   17.7797   24.9190 H   0  0  0  0  0  0  0  0  0  0  0  0
   22.2771   18.9067   26.2150 H   0  0  0  0  0  0  0  0  0  0  0  0
   20.5718   18.0330   25.1500 C   0  0  0  0  0  0  0  0  0  0  0  0
   19.8612   18.1861   25.9743 H   0  0  0  0  0  0  0  0  0  0  0  0
   20.3180   17.0689   24.6876 H   0  0  0  0  0  0  0  0  0  0  0  0
   20.4184   19.1659   24.1111 C   0  0  0  0  0  0  0  0  0  0  0  0
   20.6745   20.1259   24.5804 H   0  0  0  0  0  0  0  0  0  0  0  0
   21.1411   19.0112   23.3014 H   0  0  0  0  0  0  0  0  0  0  0  0
   18.9778   19.2370   23.5476 C   0  0  0  0  0  0  0  0  0  0  0  0
   18.2933   19.4161   24.3883 H   0  0  0  0  0  0  0  0  0  0  0  0
   18.6873   18.2665   23.1252 H   0  0  0  0  0  0  0  0  0  0  0  0
   18.7746   20.3718   22.5049 C   0  0  0  0  0  0  0  0  0  0  0  0
   17.7644   20.7818   22.6348 H   0  0  0  0  0  0  0  0  0  0  0  0
   19.4543   21.2060   22.7229 H   0  0  0  0  0  0  0  0  0  0  0  0
   18.9213   19.9646   21.0175 C   0  0  1  0  0  0  0  0  0  0  0  0
   18.7617   20.8680   20.4206 H   0  0  0  0  0  0  0  0  0  0  0  0
   20.3218   19.4295   20.6779 C   0  0  0  0  0  0  0  0  0  0  0  0
   20.5040   18.4550   21.1463 H   0  0  0  0  0  0  0  0  0  0  0  0
   21.0985   20.1287   21.0112 H   0  0  0  0  0  0  0  0  0  0  0  0
   20.4308   19.3037   19.5938 H   0  0  0  0  0  0  0  0  0  0  0  0
   17.8579   18.9924   20.5850 N   0  3  0  0  0  0  0  0  0  0  0  0
   16.9185   19.3626   20.7555 H   0  0  0  0  0  0  0  0  0  0  0  0
   17.9267   18.7835   19.5849 H   0  0  0  0  0  0  0  0  0  0  0  0
   17.9356   18.1061   21.0894 H   0  0  0  0  0  0  0  0  0  0  0  0
  1  2  1  0  0  0  0
  1  3  1  0  0  0  0
  1  4  1  0  0  0  0
  1  5  1  0  0  0  0
  5  6  1  0  0  0  0
  5  7  1  0  0  0  0
  5  8  1  0  0  0  0
  8  9  1  0  0  0  0
  8 10  1  0  0  0  0
  8 11  1  0  0  0  0
 11 12  1  0  0  0  0
 11 13  1  0  0  0  0
 11 14  1  0  0  0  0
 14 15  1  0  0  0  0
 14 16  1  0  0  0  0
 14 17  1  0  0  0  0
 17 18  1  0  0  0  0
 17 19  1  0  0  0  0
 19 20  1  0  0  0  0
 19 21  1  0  0  0  0
 19 22  1  0  0  0  0
 17 23  1  0  0  0  0
 23 24  1  0  0  0  0
 23 25  1  0  0  0  0
 23 26  1  0  0  0  0
M  END
> <VConfSearch Rank>
292

> <Conf_Id>
142

> <Delta U+W>
2.978

> <U+W>
-27.320

> <U>
26.848

> <W>
-54.168

> <W(PB)>
-56.427

> <W(SA)>
2.259

> <Valence>
5.823

> <Coulomb>
20.057

> <VdW>
0.968

> <VdW6>
-8.367

> <VdW12>
9.335

> <Bond>
0.267

> <Angle>
1.799

> <Pdih>
3.758

> <Idih>
0.000

> <Tether>
0.000

$$$$
VeraChem MOL file


 26 25  0  0  0  0  0  0  0  0999 V2000     
   21.1567   21.5716   25.0268 C   0  0  0  0  0  0  0  0  0  0  0  0
   21.2192   22.3304   24.2359 H   0  0  0  0  0  0  0  0  0  0  0  0
   21.1682   22.0928   25.9927 H   0  0  0  0  0  0  0  0  0  0  0  0
   22.0588   20.9496   24.9790 H   0  0  0  0  0  0  0  0  0  0  0  0
   19.8708   20.7255   24.8853 C   0  0  0  0  0  0  0  0  0  0  0  0
   19.0029   21.3735   25.0716 H   0  0  0  0  0  0  0  0  0  0  0  0
   19.8484   19.9511   25.6648 H   0  0  0  0  0  0  0  0  0  0  0  0
   19.7092   20.0721   23.4912 C   0  0  0  0  0  0  0  0  0  0  0  0
   18.7053   19.6342   23.4470 H   0  0  0  0  0  0  0  0  0  0  0  0
   19.7542   20.8488   22.7154 H   0  0  0  0  0  0  0  0  0  0  0  0
   20.7617   18.9727   23.1999 C   0  0  0  0  0  0  0  0  0  0  0  0
   20.6692   18.1676   23.9410 H   0  0  0  0  0  0  0  0  0  0  0  0
   21.7664   19.3905   23.3404 H   0  0  0  0  0  0  0  0  0  0  0  0
   20.7054   18.3836   21.7618 C   0  0  0  0  0  0  0  0  0  0  0  0
   20.9196   19.1788   21.0359 H   0  0  0  0  0  0  0  0  0  0  0  0
   21.5340   17.6700   21.6629 H   0  0  0  0  0  0  0  0  0  0  0  0
   19.4077   17.6499   21.3362 C   0  0  1  0  0  0  0  0  0  0  0  0
   19.6397   17.1127   20.4113 H   0  0  0  0  0  0  0  0  0  0  0  0
   18.9551   16.6047   22.3707 C   0  0  0  0  0  0  0  0  0  0  0  0
   18.6159   17.0757   23.3009 H   0  0  0  0  0  0  0  0  0  0  0  0
   19.7749   15.9168   22.6120 H   0  0  0  0  0  0  0  0  0  0  0  0
   18.1248   16.0071   21.9750 H   0  0  0  0  0  0  0  0  0  0  0  0
   18.2877   18.5872   20.9761 N   0  3  0  0  0  0  0  0  0  0  0  0
   18.5667   19.2367   20.2353 H   0  0  0  0  0  0  0  0  0  0  0  0
   17.4668   18.0759   20.6397 H   0  0  0  0  0  0  0  0  0  0  0  0
   17.9949   19.1450   21.7806 H   0  0  0  0  0  0  0  0  0  0  0  0
  1  2  1  0  0  0  0
  1  3  1  0  0  0  0
  1  4  1  0  0  0  0
  1  5  1  0  0  0  0
  5  6  1  0  0  0  0
  5  7  1  0  0  0  0
  5  8  1  0  0  0  0
  8  9  1  0  0  0  0
  8 10  1  0  0  0  0
  8 11  1  0  0  0  0
 11 12  1  0  0  0  0
 11 13  1  0  0  0  0
 11 14  1  0  0  0  0
 14 15  1  0  0  0  0
 14 16  1  0  0  0  0
 14 17  1  0  0  0  0
 17 18  1  0  0  0  0
 17 19  1  0  0  0  0
 19 20  1  0  0  0  0
 19 21  1  0  0  0  0
 19 22  1  0  0  0  0
 17 23  1  0  0  0  0
 23 24  1  0  0  0  0
 23 25  1  0  0  0  0
 23 26  1  0  0  0  0
M  END
> <VConfSearch Rank>
293

> <Conf_Id>
119

> <Delta U+W>
3.538

> <U+W>
-26.761

> <U>
27.482

> <W>
-54.243

> <W(PB)>
-56.494

> <W(SA)>
2.251

> <Valence>
5.284

> <Coulomb>
21.247

> <VdW>
0.951

> <VdW6>
-9.416

> <VdW12>
10.367

> <Bond>
0.323

> <Angle>
2.522

> <Pdih>
2.439

> <Idih>
0.000

> <Tether>
0.000

$$$$
VeraChem MOL file


 26 25  0  0  0  0  0  0  0  0999 V2000     
   19.0951   17.9561   26.1812 C   0  0  0  0  0  0  0  0  0  0  0  0
   19.9576   18.3004   26.7665 H   0  0  0  0  0  0  0  0  0  0  0  0
   18.4273   18.8107   26.0166 H   0  0  0  0  0  0  0  0  0  0  0  0
   18.5486   17.2229   26.7884 H   0  0  0  0  0  0  0  0  0  0  0  0
   19.5469   17.3228   24.8457 C   0  0  0  0  0  0  0  0  0  0  0  0
   18.6654   17.0154   24.2659 H   0  0  0  0  0  0  0  0  0  0  0  0
   20.1081   16.4031   25.0622 H   0  0  0  0  0  0  0  0  0  0  0  0
   20.4360   18.2569   23.9898 C   0  0  0  0  0  0  0  0  0  0  0  0
   21.3283   18.5386   24.5656 H   0  0  0  0  0  0  0  0  0  0  0  0
   20.7999   17.6878   23.1263 H   0  0  0  0  0  0  0  0  0  0  0  0
   19.7028   19.5367   23.5117 C   0  0  0  0  0  0  0  0  0  0  0  0
   19.4552   20.1436   24.3925 H   0  0  0  0  0  0  0  0  0  0  0  0
   18.7440   19.2727   23.0473 H   0  0  0  0  0  0  0  0  0  0  0  0
   20.5547   20.4131   22.5513 C   0  0  0  0  0  0  0  0  0  0  0  0
   20.3464   21.4684   22.7713 H   0  0  0  0  0  0  0  0  0  0  0  0
   21.6222   20.2782   22.7702 H   0  0  0  0  0  0  0  0  0  0  0  0
   20.3085   20.1978   21.0371 C   0  0  1  0  0  0  0  0  0  0  0  0
   20.9834   20.8737   20.5027 H   0  0  0  0  0  0  0  0  0  0  0  0
   20.6289   18.7666   20.5764 C   0  0  0  0  0  0  0  0  0  0  0  0
   19.9172   18.0423   20.9902 H   0  0  0  0  0  0  0  0  0  0  0  0
   21.6414   18.4758   20.8823 H   0  0  0  0  0  0  0  0  0  0  0  0
   20.5794   18.6961   19.4829 H   0  0  0  0  0  0  0  0  0  0  0  0
   18.9172   20.5940   20.6241 N   0  3  0  0  0  0  0  0  0  0  0  0
   18.7123   21.5647   20.8773 H   0  0  0  0  0  0  0  0  0  0  0  0
   18.7892   20.5090   19.6118 H   0  0  0  0  0  0  0  0  0  0  0  0
   18.2129   20.0036   21.0730 H   0  0  0  0  0  0  0  0  0  0  0  0
  1  2  1  0  0  0  0
  1  3  1  0  0  0  0
  1  4  1  0  0  0  0
  1  5  1  0  0  0  0
  5  6  1  0  0  0  0
  5  7  1  0  0  0  0
  5  8  1  0  0  0  0
  8  9  1  0  0  0  0
  8 10  1  0  0  0  0
  8 11  1  0  0  0  0
 11 12  1  0  0  0  0
 11 13  1  0  0  0  0
 11 14  1  0  0  0  0
 14 15  1  0  0  0  0
 14 16  1  0  0  0  0
 14 17  1  0  0  0  0
 17 18  1  0  0  0  0
 17 19  1  0  0  0  0
 19 20  1  0  0  0  0
 19 21  1  0  0  0  0
 19 22  1  0  0  0  0
 17 23  1  0  0  0  0
 23 24  1  0  0  0  0
 23 25  1  0  0  0  0
 23 26  1  0  0  0  0
M  END
> <VConfSearch Rank>
294

> <Conf_Id>
127

> <Delta U+W>
3.544

> <U+W>
-26.754

> <U>
27.509

> <W>
-54.263

> <W(PB)>
-56.496

> <W(SA)>
2.232

> <Valence>
6.375

> <Coulomb>
20.014

> <VdW>
1.120

> <VdW6>
-8.976

> <VdW12>
10.096

> <Bond>
0.304

> <Angle>
1.986

> <Pdih>
4.086

> <Idih>
0.000

> <Tether>
0.000

$$$$
VeraChem MOL file


 26 25  0  0  0  0  0  0  0  0999 V2000     
   22.9471   19.6282   23.6504 C   0  0  0  0  0  0  0  0  0  0  0  0
   23.5341   20.2205   24.3642 H   0  0  0  0  0  0  0  0  0  0  0  0
   23.6531   19.1115   22.9873 H   0  0  0  0  0  0  0  0  0  0  0  0
   22.3626   20.3264   23.0413 H   0  0  0  0  0  0  0  0  0  0  0  0
   22.0499   18.6143   24.3979 C   0  0  0  0  0  0  0  0  0  0  0  0
   21.3990   19.1349   25.1140 H   0  0  0  0  0  0  0  0  0  0  0  0
   22.7018   17.9654   24.9995 H   0  0  0  0  0  0  0  0  0  0  0  0
   21.2061   17.7238   23.4497 C   0  0  0  0  0  0  0  0  0  0  0  0
   21.7235   17.5940   22.4891 H   0  0  0  0  0  0  0  0  0  0  0  0
   21.1453   16.7188   23.8898 H   0  0  0  0  0  0  0  0  0  0  0  0
   19.7552   18.2164   23.2116 C   0  0  0  0  0  0  0  0  0  0  0  0
   19.2226   18.2372   24.1717 H   0  0  0  0  0  0  0  0  0  0  0  0
   19.2460   17.4661   22.5935 H   0  0  0  0  0  0  0  0  0  0  0  0
   19.6610   19.6067   22.5284 C   0  0  0  0  0  0  0  0  0  0  0  0
   20.0847   20.3657   23.1969 H   0  0  0  0  0  0  0  0  0  0  0  0
   20.2810   19.6119   21.6222 H   0  0  0  0  0  0  0  0  0  0  0  0
   18.2277   20.0545   22.1557 C   0  0  1  0  0  0  0  0  0  0  0  0
   18.2994   21.0722   21.7594 H   0  0  0  0  0  0  0  0  0  0  0  0
   17.6106   19.1734   21.0552 C   0  0  0  0  0  0  0  0  0  0  0  0
   18.2780   19.1091   20.1869 H   0  0  0  0  0  0  0  0  0  0  0  0
   16.6599   19.5995   20.7121 H   0  0  0  0  0  0  0  0  0  0  0  0
   17.4107   18.1561   21.4115 H   0  0  0  0  0  0  0  0  0  0  0  0
   17.3213   20.1365   23.3532 N   0  3  0  0  0  0  0  0  0  0  0  0
   17.7023   20.7597   24.0707 H   0  0  0  0  0  0  0  0  0  0  0  0
   16.3959   20.4929   23.0985 H   0  0  0  0  0  0  0  0  0  0  0  0
   17.1889   19.2172   23.7818 H   0  0  0  0  0  0  0  0  0  0  0  0
  1  2  1  0  0  0  0
  1  3  1  0  0  0  0
  1  4  1  0  0  0  0
  1  5  1  0  0  0  0
  5  6  1  0  0  0  0
  5  7  1  0  0  0  0
  5  8  1  0  0  0  0
  8  9  1  0  0  0  0
  8 10  1  0  0  0  0
  8 11  1  0  0  0  0
 11 12  1  0  0  0  0
 11 13  1  0  0  0  0
 11 14  1  0  0  0  0
 14 15  1  0  0  0  0
 14 16  1  0  0  0  0
 14 17  1  0  0  0  0
 17 18  1  0  0  0  0
 17 19  1  0  0  0  0
 19 20  1  0  0  0  0
 19 21  1  0  0  0  0
 19 22  1  0  0  0  0
 17 23  1  0  0  0  0
 23 24  1  0  0  0  0
 23 25  1  0  0  0  0
 23 26  1  0  0  0  0
M  END
> <VConfSearch Rank>
295

> <Conf_Id>
131

> <Delta U+W>
3.589

> <U+W>
-26.710

> <U>
27.573

> <W>
-54.283

> <W(PB)>
-56.537

> <W(SA)>
2.254

> <Valence>
6.363

> <Coulomb>
20.026

> <VdW>
1.184

> <VdW6>
-8.939

> <VdW12>
10.123

> <Bond>
0.298

> <Angle>
2.018

> <Pdih>
4.047

> <Idih>
0.000

> <Tether>
0.000

$$$$
VeraChem MOL file


 26 25  0  0  0  0  0  0  0  0999 V2000     
   18.8358   17.0687   21.2361 C   0  0  0  0  0  0  0  0  0  0  0  0
   18.1988   16.7577   22.0742 H   0  0  0  0  0  0  0  0  0  0  0  0
   18.7320   18.1521   21.0996 H   0  0  0  0  0  0  0  0  0  0  0  0
   18.4539   16.5867   20.3269 H   0  0  0  0  0  0  0  0  0  0  0  0
   20.3087   16.6730   21.4781 C   0  0  0  0  0  0  0  0  0  0  0  0
   20.9293   17.0617   20.6587 H   0  0  0  0  0  0  0  0  0  0  0  0
   20.3917   15.5782   21.4290 H   0  0  0  0  0  0  0  0  0  0  0  0
   20.8842   17.1484   22.8366 C   0  0  0  0  0  0  0  0  0  0  0  0
   20.3385   16.6742   23.6639 H   0  0  0  0  0  0  0  0  0  0  0  0
   21.9140   16.7717   22.9082 H   0  0  0  0  0  0  0  0  0  0  0  0
   20.9194   18.6879   23.0240 C   0  0  0  0  0  0  0  0  0  0  0  0
   21.0406   19.1726   22.0468 H   0  0  0  0  0  0  0  0  0  0  0  0
   21.8151   18.9460   23.6060 H   0  0  0  0  0  0  0  0  0  0  0  0
   19.6811   19.2455   23.7748 C   0  0  0  0  0  0  0  0  0  0  0  0
   18.7616   19.0304   23.2192 H   0  0  0  0  0  0  0  0  0  0  0  0
   19.5912   18.7168   24.7328 H   0  0  0  0  0  0  0  0  0  0  0  0
   19.7625   20.7620   24.0623 C   0  0  1  0  0  0  0  0  0  0  0  0
   20.7108   20.9653   24.5694 H   0  0  0  0  0  0  0  0  0  0  0  0
   19.7095   21.5992   22.7715 C   0  0  0  0  0  0  0  0  0  0  0  0
   18.8016   21.3824   22.1949 H   0  0  0  0  0  0  0  0  0  0  0  0
   20.5776   21.4034   22.1319 H   0  0  0  0  0  0  0  0  0  0  0  0
   19.7154   22.6708   23.0058 H   0  0  0  0  0  0  0  0  0  0  0  0
   18.6755   21.1947   25.0068 N   0  3  0  0  0  0  0  0  0  0  0  0
   17.7469   21.0400   24.6054 H   0  0  0  0  0  0  0  0  0  0  0  0
   18.7179   20.6810   25.8917 H   0  0  0  0  0  0  0  0  0  0  0  0
   18.7493   22.1912   25.2304 H   0  0  0  0  0  0  0  0  0  0  0  0
  1  2  1  0  0  0  0
  1  3  1  0  0  0  0
  1  4  1  0  0  0  0
  1  5  1  0  0  0  0
  5  6  1  0  0  0  0
  5  7  1  0  0  0  0
  5  8  1  0  0  0  0
  8  9  1  0  0  0  0
  8 10  1  0  0  0  0
  8 11  1  0  0  0  0
 11 12  1  0  0  0  0
 11 13  1  0  0  0  0
 11 14  1  0  0  0  0
 14 15  1  0  0  0  0
 14 16  1  0  0  0  0
 14 17  1  0  0  0  0
 17 18  1  0  0  0  0
 17 19  1  0  0  0  0
 19 20  1  0  0  0  0
 19 21  1  0  0  0  0
 19 22  1  0  0  0  0
 17 23  1  0  0  0  0
 23 24  1  0  0  0  0
 23 25  1  0  0  0  0
 23 26  1  0  0  0  0
M  END
> <VConfSearch Rank>
296

> <Conf_Id>
80

> <Delta U+W>
3.351

> <U+W>
-26.948

> <U>
27.261

> <W>
-54.209

> <W(PB)>
-56.471

> <W(SA)>
2.263

> <Valence>
6.230

> <Coulomb>
19.945

> <VdW>
1.087

> <VdW6>
-8.618

> <VdW12>
9.704

> <Bond>
0.277

> <Angle>
1.928

> <Pdih>
4.025

> <Idih>
0.000

> <Tether>
0.000

$$$$
VeraChem MOL file


 26 25  0  0  0  0  0  0  0  0999 V2000     
   21.4550   17.4119   20.6537 C   0  0  0  0  0  0  0  0  0  0  0  0
   22.5104   17.2719   20.3865 H   0  0  0  0  0  0  0  0  0  0  0  0
   20.8722   16.6370   20.1391 H   0  0  0  0  0  0  0  0  0  0  0  0
   21.1444   18.3909   20.2679 H   0  0  0  0  0  0  0  0  0  0  0  0
   21.2682   17.3228   22.1851 C   0  0  0  0  0  0  0  0  0  0  0  0
   21.8382   18.1231   22.6743 H   0  0  0  0  0  0  0  0  0  0  0  0
   21.7134   16.3828   22.5398 H   0  0  0  0  0  0  0  0  0  0  0  0
   19.7842   17.3613   22.6345 C   0  0  0  0  0  0  0  0  0  0  0  0
   19.2850   16.4592   22.2549 H   0  0  0  0  0  0  0  0  0  0  0  0
   19.7484   17.2762   23.7264 H   0  0  0  0  0  0  0  0  0  0  0  0
   18.9689   18.5994   22.1648 C   0  0  0  0  0  0  0  0  0  0  0  0
   17.9207   18.4817   22.4722 H   0  0  0  0  0  0  0  0  0  0  0  0
   18.9433   18.6004   21.0672 H   0  0  0  0  0  0  0  0  0  0  0  0
   19.4941   19.9804   22.6485 C   0  0  0  0  0  0  0  0  0  0  0  0
   20.5855   19.9760   22.7447 H   0  0  0  0  0  0  0  0  0  0  0  0
   19.2744   20.7092   21.8573 H   0  0  0  0  0  0  0  0  0  0  0  0
   18.8485   20.5120   23.9510 C   0  0  1  0  0  0  0  0  0  0  0  0
   17.7663   20.5664   23.7977 H   0  0  0  0  0  0  0  0  0  0  0  0
   19.1151   19.6084   25.1661 C   0  0  0  0  0  0  0  0  0  0  0  0
   18.5856   18.6544   25.0673 H   0  0  0  0  0  0  0  0  0  0  0  0
   18.7527   20.0807   26.0875 H   0  0  0  0  0  0  0  0  0  0  0  0
   20.1867   19.4057   25.2850 H   0  0  0  0  0  0  0  0  0  0  0  0
   19.3031   21.9160   24.2400 N   0  3  0  0  0  0  0  0  0  0  0  0
   19.0925   22.5486   23.4628 H   0  0  0  0  0  0  0  0  0  0  0  0
   18.8429   22.2941   25.0729 H   0  0  0  0  0  0  0  0  0  0  0  0
   20.3125   21.9560   24.4045 H   0  0  0  0  0  0  0  0  0  0  0  0
  1  2  1  0  0  0  0
  1  3  1  0  0  0  0
  1  4  1  0  0  0  0
  1  5  1  0  0  0  0
  5  6  1  0  0  0  0
  5  7  1  0  0  0  0
  5  8  1  0  0  0  0
  8  9  1  0  0  0  0
  8 10  1  0  0  0  0
  8 11  1  0  0  0  0
 11 12  1  0  0  0  0
 11 13  1  0  0  0  0
 11 14  1  0  0  0  0
 14 15  1  0  0  0  0
 14 16  1  0  0  0  0
 14 17  1  0  0  0  0
 17 18  1  0  0  0  0
 17 19  1  0  0  0  0
 19 20  1  0  0  0  0
 19 21  1  0  0  0  0
 19 22  1  0  0  0  0
 17 23  1  0  0  0  0
 23 24  1  0  0  0  0
 23 25  1  0  0  0  0
 23 26  1  0  0  0  0
M  END
> <VConfSearch Rank>
297

> <Conf_Id>
136

> <Delta U+W>
4.272

> <U+W>
-26.026

> <U>
28.262

> <W>
-54.288

> <W(PB)>
-56.488

> <W(SA)>
2.200

> <Valence>
7.096

> <Coulomb>
19.990

> <VdW>
1.175

> <VdW6>
-9.404

> <VdW12>
10.580

> <Bond>
0.360

> <Angle>
2.785

> <Pdih>
3.951

> <Idih>
0.000

> <Tether>
0.000

$$$$
VeraChem MOL file


 26 25  0  0  0  0  0  0  0  0999 V2000     
   21.3015   18.2965   25.3906 C   0  0  0  0  0  0  0  0  0  0  0  0
   21.3885   17.8263   24.4033 H   0  0  0  0  0  0  0  0  0  0  0  0
   22.0602   17.8394   26.0389 H   0  0  0  0  0  0  0  0  0  0  0  0
   20.3150   18.0564   25.8077 H   0  0  0  0  0  0  0  0  0  0  0  0
   21.5141   19.8237   25.3056 C   0  0  0  0  0  0  0  0  0  0  0  0
   22.4846   20.0307   24.8335 H   0  0  0  0  0  0  0  0  0  0  0  0
   21.5802   20.2273   26.3257 H   0  0  0  0  0  0  0  0  0  0  0  0
   20.3955   20.5836   24.5478 C   0  0  0  0  0  0  0  0  0  0  0  0
   19.4368   20.4656   25.0713 H   0  0  0  0  0  0  0  0  0  0  0  0
   20.6309   21.6557   24.6004 H   0  0  0  0  0  0  0  0  0  0  0  0
   20.2456   20.1942   23.0540 C   0  0  0  0  0  0  0  0  0  0  0  0
   21.2103   19.8483   22.6576 H   0  0  0  0  0  0  0  0  0  0  0  0
   19.9905   21.1007   22.4892 H   0  0  0  0  0  0  0  0  0  0  0  0
   19.1460   19.1291   22.8052 C   0  0  0  0  0  0  0  0  0  0  0  0
   19.3258   18.2557   23.4420 H   0  0  0  0  0  0  0  0  0  0  0  0
   18.1694   19.5319   23.1047 H   0  0  0  0  0  0  0  0  0  0  0  0
   19.0837   18.6626   21.3346 C   0  0  1  0  0  0  0  0  0  0  0  0
   20.0728   18.2890   21.0518 H   0  0  0  0  0  0  0  0  0  0  0  0
   18.0728   17.5151   21.1801 C   0  0  0  0  0  0  0  0  0  0  0  0
   17.0601   17.8388   21.4515 H   0  0  0  0  0  0  0  0  0  0  0  0
   18.3439   16.6674   21.8217 H   0  0  0  0  0  0  0  0  0  0  0  0
   18.0503   17.1541   20.1445 H   0  0  0  0  0  0  0  0  0  0  0  0
   18.7574   19.7844   20.3867 N   0  3  0  0  0  0  0  0  0  0  0  0
   17.8405   20.1906   20.5906 H   0  0  0  0  0  0  0  0  0  0  0  0
   19.4484   20.5369   20.4458 H   0  0  0  0  0  0  0  0  0  0  0  0
   18.7400   19.4606   19.4155 H   0  0  0  0  0  0  0  0  0  0  0  0
  1  2  1  0  0  0  0
  1  3  1  0  0  0  0
  1  4  1  0  0  0  0
  1  5  1  0  0  0  0
  5  6  1  0  0  0  0
  5  7  1  0  0  0  0
  5  8  1  0  0  0  0
  8  9  1  0  0  0  0
  8 10  1  0  0  0  0
  8 11  1  0  0  0  0
 11 12  1  0  0  0  0
 11 13  1  0  0  0  0
 11 14  1  0  0  0  0
 14 15  1  0  0  0  0
 14 16  1  0  0  0  0
 14 17  1  0  0  0  0
 17 18  1  0  0  0  0
 17 19  1  0  0  0  0
 19 20  1  0  0  0  0
 19 21  1  0  0  0  0
 19 22  1  0  0  0  0
 17 23  1  0  0  0  0
 23 24  1  0  0  0  0
 23 25  1  0  0  0  0
 23 26  1  0  0  0  0
M  END
> <VConfSearch Rank>
298

> <Conf_Id>
124

> <Delta U+W>
3.001

> <U+W>
-27.298

> <U>
26.787

> <W>
-54.085

> <W(PB)>
-56.347

> <W(SA)>
2.262

> <Valence>
5.742

> <Coulomb>
20.023

> <VdW>
1.022

> <VdW6>
-8.392

> <VdW12>
9.414

> <Bond>
0.261

> <Angle>
1.576

> <Pdih>
3.904

> <Idih>
0.000

> <Tether>
0.000

$$$$
VeraChem MOL file


 26 25  0  0  0  0  0  0  0  0999 V2000     
   22.8284   19.8585   23.8590 C   0  0  0  0  0  0  0  0  0  0  0  0
   22.9398   20.8415   24.3348 H   0  0  0  0  0  0  0  0  0  0  0  0
   23.8279   19.4112   23.7821 H   0  0  0  0  0  0  0  0  0  0  0  0
   22.4573   20.0171   22.8407 H   0  0  0  0  0  0  0  0  0  0  0  0
   21.8913   18.9481   24.6865 C   0  0  0  0  0  0  0  0  0  0  0  0
   22.3432   18.8115   25.6790 H   0  0  0  0  0  0  0  0  0  0  0  0
   21.8384   17.9461   24.2385 H   0  0  0  0  0  0  0  0  0  0  0  0
   20.4669   19.5328   24.8700 C   0  0  0  0  0  0  0  0  0  0  0  0
   20.1096   19.2519   25.8704 H   0  0  0  0  0  0  0  0  0  0  0  0
   20.5031   20.6309   24.8673 H   0  0  0  0  0  0  0  0  0  0  0  0
   19.4189   19.0301   23.8437 C   0  0  0  0  0  0  0  0  0  0  0  0
   18.4430   19.4448   24.1273 H   0  0  0  0  0  0  0  0  0  0  0  0
   19.3274   17.9395   23.9339 H   0  0  0  0  0  0  0  0  0  0  0  0
   19.7365   19.4109   22.3734 C   0  0  0  0  0  0  0  0  0  0  0  0
   19.9736   20.4814   22.3185 H   0  0  0  0  0  0  0  0  0  0  0  0
   20.6375   18.8770   22.0469 H   0  0  0  0  0  0  0  0  0  0  0  0
   18.6046   19.1056   21.3640 C   0  0  1  0  0  0  0  0  0  0  0  0
   18.9583   19.4158   20.3757 H   0  0  0  0  0  0  0  0  0  0  0  0
   18.2840   17.6024   21.2934 C   0  0  0  0  0  0  0  0  0  0  0  0
   17.8376   17.2392   22.2268 H   0  0  0  0  0  0  0  0  0  0  0  0
   19.1920   17.0190   21.0964 H   0  0  0  0  0  0  0  0  0  0  0  0
   17.5752   17.3988   20.4814 H   0  0  0  0  0  0  0  0  0  0  0  0
   17.3621   19.9101   21.6315 N   0  3  0  0  0  0  0  0  0  0  0  0
   16.6476   19.7434   20.9174 H   0  0  0  0  0  0  0  0  0  0  0  0
   16.9517   19.6711   22.5374 H   0  0  0  0  0  0  0  0  0  0  0  0
   17.5593   20.9149   21.6378 H   0  0  0  0  0  0  0  0  0  0  0  0
  1  2  1  0  0  0  0
  1  3  1  0  0  0  0
  1  4  1  0  0  0  0
  1  5  1  0  0  0  0
  5  6  1  0  0  0  0
  5  7  1  0  0  0  0
  5  8  1  0  0  0  0
  8  9  1  0  0  0  0
  8 10  1  0  0  0  0
  8 11  1  0  0  0  0
 11 12  1  0  0  0  0
 11 13  1  0  0  0  0
 11 14  1  0  0  0  0
 14 15  1  0  0  0  0
 14 16  1  0  0  0  0
 14 17  1  0  0  0  0
 17 18  1  0  0  0  0
 17 19  1  0  0  0  0
 19 20  1  0  0  0  0
 19 21  1  0  0  0  0
 19 22  1  0  0  0  0
 17 23  1  0  0  0  0
 23 24  1  0  0  0  0
 23 25  1  0  0  0  0
 23 26  1  0  0  0  0
M  END
> <VConfSearch Rank>
299

> <Conf_Id>
105

> <Delta U+W>
3.442

> <U+W>
-26.857

> <U>
27.313

> <W>
-54.169

> <W(PB)>
-56.414

> <W(SA)>
2.245

> <Valence>
6.229

> <Coulomb>
19.943

> <VdW>
1.140

> <VdW6>
-9.001

> <VdW12>
10.140

> <Bond>
0.294

> <Angle>
1.969

> <Pdih>
3.967

> <Idih>
0.000

> <Tether>
0.000

$$$$
VeraChem MOL file


 26 25  0  0  0  0  0  0  0  0999 V2000     
   22.7863   18.6415   22.5826 C   0  0  0  0  0  0  0  0  0  0  0  0
   23.2552   19.1400   21.7243 H   0  0  0  0  0  0  0  0  0  0  0  0
   23.5304   17.9636   23.0204 H   0  0  0  0  0  0  0  0  0  0  0  0
   21.9606   18.0279   22.2065 H   0  0  0  0  0  0  0  0  0  0  0  0
   22.3147   19.6757   23.6313 C   0  0  0  0  0  0  0  0  0  0  0  0
   23.1985   20.2251   23.9846 H   0  0  0  0  0  0  0  0  0  0  0  0
   21.9041   19.1651   24.5136 H   0  0  0  0  0  0  0  0  0  0  0  0
   21.2901   20.6975   23.0742 C   0  0  0  0  0  0  0  0  0  0  0  0
   21.4718   21.6641   23.5641 H   0  0  0  0  0  0  0  0  0  0  0  0
   21.4694   20.8708   22.0041 H   0  0  0  0  0  0  0  0  0  0  0  0
   19.8039   20.3265   23.3142 C   0  0  0  0  0  0  0  0  0  0  0  0
   19.1801   21.1537   22.9479 H   0  0  0  0  0  0  0  0  0  0  0  0
   19.6221   20.2589   24.3952 H   0  0  0  0  0  0  0  0  0  0  0  0
   19.3555   19.0155   22.6226 C   0  0  0  0  0  0  0  0  0  0  0  0
   19.6755   19.0386   21.5725 H   0  0  0  0  0  0  0  0  0  0  0  0
   19.8532   18.1576   23.0916 H   0  0  0  0  0  0  0  0  0  0  0  0
   17.8271   18.8035   22.6737 C   0  0  1  0  0  0  0  0  0  0  0  0
   17.3449   19.6742   22.2186 H   0  0  0  0  0  0  0  0  0  0  0  0
   17.4332   17.5567   21.8655 C   0  0  0  0  0  0  0  0  0  0  0  0
   17.8905   16.6514   22.2839 H   0  0  0  0  0  0  0  0  0  0  0  0
   17.7559   17.6511   20.8212 H   0  0  0  0  0  0  0  0  0  0  0  0
   16.3446   17.4215   21.8663 H   0  0  0  0  0  0  0  0  0  0  0  0
   17.3065   18.7071   24.0818 N   0  3  0  0  0  0  0  0  0  0  0  0
   17.5253   19.5500   24.6196 H   0  0  0  0  0  0  0  0  0  0  0  0
   16.2895   18.5895   24.0976 H   0  0  0  0  0  0  0  0  0  0  0  0
   17.7149   17.9102   24.5772 H   0  0  0  0  0  0  0  0  0  0  0  0
  1  2  1  0  0  0  0
  1  3  1  0  0  0  0
  1  4  1  0  0  0  0
  1  5  1  0  0  0  0
  5  6  1  0  0  0  0
  5  7  1  0  0  0  0
  5  8  1  0  0  0  0
  8  9  1  0  0  0  0
  8 10  1  0  0  0  0
  8 11  1  0  0  0  0
 11 12  1  0  0  0  0
 11 13  1  0  0  0  0
 11 14  1  0  0  0  0
 14 15  1  0  0  0  0
 14 16  1  0  0  0  0
 14 17  1  0  0  0  0
 17 18  1  0  0  0  0
 17 19  1  0  0  0  0
 19 20  1  0  0  0  0
 19 21  1  0  0  0  0
 19 22  1  0  0  0  0
 17 23  1  0  0  0  0
 23 24  1  0  0  0  0
 23 25  1  0  0  0  0
 23 26  1  0  0  0  0
M  END
> <VConfSearch Rank>
300

> <Conf_Id>
107

> <Delta U+W>
2.995

> <U+W>
-27.304

> <U>
26.796

> <W>
-54.100

> <W(PB)>
-56.404

> <W(SA)>
2.304

> <Valence>
5.706

> <Coulomb>
20.107

> <VdW>
0.982

> <VdW6>
-8.396

> <VdW12>
9.378

> <Bond>
0.254

> <Angle>
1.644

> <Pdih>
3.808

> <Idih>
0.000

> <Tether>
0.000

$$$$
VeraChem MOL file


 26 25  0  0  0  0  0  0  0  0999 V2000     
   17.4056   20.8153   25.9162 C   0  0  0  0  0  0  0  0  0  0  0  0
   17.5027   20.0134   26.6596 H   0  0  0  0  0  0  0  0  0  0  0  0
   17.3287   21.7679   26.4563 H   0  0  0  0  0  0  0  0  0  0  0  0
   16.4668   20.6619   25.3683 H   0  0  0  0  0  0  0  0  0  0  0  0
   18.6130   20.8299   24.9549 C   0  0  0  0  0  0  0  0  0  0  0  0
   19.5322   21.0188   25.5270 H   0  0  0  0  0  0  0  0  0  0  0  0
   18.5042   21.6624   24.2458 H   0  0  0  0  0  0  0  0  0  0  0  0
   18.7444   19.4992   24.1813 C   0  0  0  0  0  0  0  0  0  0  0  0
   18.8494   18.6702   24.8949 H   0  0  0  0  0  0  0  0  0  0  0  0
   17.8227   19.3139   23.6125 H   0  0  0  0  0  0  0  0  0  0  0  0
   19.9529   19.5095   23.2181 C   0  0  0  0  0  0  0  0  0  0  0  0
   20.8743   19.6914   23.7887 H   0  0  0  0  0  0  0  0  0  0  0  0
   19.8435   20.3443   22.5131 H   0  0  0  0  0  0  0  0  0  0  0  0
   20.0810   18.1753   22.4434 C   0  0  0  0  0  0  0  0  0  0  0  0
   20.1340   17.3495   23.1655 H   0  0  0  0  0  0  0  0  0  0  0  0
   19.1783   18.0073   21.8410 H   0  0  0  0  0  0  0  0  0  0  0  0
   21.3288   18.1227   21.5352 C   0  0  1  0  0  0  0  0  0  0  0  0
   22.2110   18.3162   22.1533 H   0  0  0  0  0  0  0  0  0  0  0  0
   21.4754   16.7267   20.9090 C   0  0  0  0  0  0  0  0  0  0  0  0
   20.6136   16.4833   20.2750 H   0  0  0  0  0  0  0  0  0  0  0  0
   21.5558   15.9569   21.6866 H   0  0  0  0  0  0  0  0  0  0  0  0
   22.3805   16.6711   20.2916 H   0  0  0  0  0  0  0  0  0  0  0  0
   21.3085   19.1809   20.4660 N   0  3  0  0  0  0  0  0  0  0  0  0
   20.5037   19.0679   19.8440 H   0  0  0  0  0  0  0  0  0  0  0  0
   21.2571   20.1199   20.8696 H   0  0  0  0  0  0  0  0  0  0  0  0
   22.1516   19.1431   19.8861 H   0  0  0  0  0  0  0  0  0  0  0  0
  1  2  1  0  0  0  0
  1  3  1  0  0  0  0
  1  4  1  0  0  0  0
  1  5  1  0  0  0  0
  5  6  1  0  0  0  0
  5  7  1  0  0  0  0
  5  8  1  0  0  0  0
  8  9  1  0  0  0  0
  8 10  1  0  0  0  0
  8 11  1  0  0  0  0
 11 12  1  0  0  0  0
 11 13  1  0  0  0  0
 11 14  1  0  0  0  0
 14 15  1  0  0  0  0
 14 16  1  0  0  0  0
 14 17  1  0  0  0  0
 17 18  1  0  0  0  0
 17 19  1  0  0  0  0
 19 20  1  0  0  0  0
 19 21  1  0  0  0  0
 19 22  1  0  0  0  0
 17 23  1  0  0  0  0
 23 24  1  0  0  0  0
 23 25  1  0  0  0  0
 23 26  1  0  0  0  0
M  END
> <VConfSearch Rank>
301

> <Conf_Id>
122

> <Delta U+W>
0.000

> <U+W>
-30.299

> <U>
23.517

> <W>
-53.816

> <W(PB)>
-56.162

> <W(SA)>
2.346

> <Valence>
2.737

> <Coulomb>
19.862

> <VdW>
0.919

> <VdW6>
-6.793

> <VdW12>
7.712

> <Bond>
0.171

> <Angle>
0.873

> <Pdih>
1.693

> <Idih>
0.000

> <Tether>
0.000

$$$$
VeraChem MOL file


 26 25  0  0  0  0  0  0  0  0999 V2000     
   22.2976   21.3913   20.4211 C   0  0  0  0  0  0  0  0  0  0  0  0
   22.3752   21.6215   19.3506 H   0  0  0  0  0  0  0  0  0  0  0  0
   22.2270   22.3419   20.9658 H   0  0  0  0  0  0  0  0  0  0  0  0
   23.2256   20.8904   20.7262 H   0  0  0  0  0  0  0  0  0  0  0  0
   21.0687   20.4999   20.6992 C   0  0  0  0  0  0  0  0  0  0  0  0
   21.1514   19.5727   20.1149 H   0  0  0  0  0  0  0  0  0  0  0  0
   20.1605   21.0129   20.3528 H   0  0  0  0  0  0  0  0  0  0  0  0
   20.9359   20.1608   22.2004 C   0  0  0  0  0  0  0  0  0  0  0  0
   21.8467   19.6499   22.5424 H   0  0  0  0  0  0  0  0  0  0  0  0
   20.8569   21.0912   22.7797 H   0  0  0  0  0  0  0  0  0  0  0  0
   19.7060   19.2684   22.4830 C   0  0  0  0  0  0  0  0  0  0  0  0
   19.7911   18.3464   21.8931 H   0  0  0  0  0  0  0  0  0  0  0  0
   18.7952   19.7820   22.1451 H   0  0  0  0  0  0  0  0  0  0  0  0
   19.5782   18.9266   23.9880 C   0  0  0  0  0  0  0  0  0  0  0  0
   20.4578   18.3558   24.3142 H   0  0  0  0  0  0  0  0  0  0  0  0
   19.5853   19.8634   24.5608 H   0  0  0  0  0  0  0  0  0  0  0  0
   18.2913   18.1469   24.3430 C   0  0  1  0  0  0  0  0  0  0  0  0
   17.4327   18.7146   23.9712 H   0  0  0  0  0  0  0  0  0  0  0  0
   18.2646   16.7476   23.7018 C   0  0  0  0  0  0  0  0  0  0  0  0
   19.1434   16.1598   23.9949 H   0  0  0  0  0  0  0  0  0  0  0  0
   18.2419   16.8103   22.6077 H   0  0  0  0  0  0  0  0  0  0  0  0
   17.3682   16.1972   24.0130 H   0  0  0  0  0  0  0  0  0  0  0  0
   18.1157   18.0397   25.8324 N   0  3  0  0  0  0  0  0  0  0  0  0
   18.8822   17.5158   26.2632 H   0  0  0  0  0  0  0  0  0  0  0  0
   18.0860   18.9620   26.2764 H   0  0  0  0  0  0  0  0  0  0  0  0
   17.2443   17.5587   26.0728 H   0  0  0  0  0  0  0  0  0  0  0  0
  1  2  1  0  0  0  0
  1  3  1  0  0  0  0
  1  4  1  0  0  0  0
  1  5  1  0  0  0  0
  5  6  1  0  0  0  0
  5  7  1  0  0  0  0
  5  8  1  0  0  0  0
  8  9  1  0  0  0  0
  8 10  1  0  0  0  0
  8 11  1  0  0  0  0
 11 12  1  0  0  0  0
 11 13  1  0  0  0  0
 11 14  1  0  0  0  0
 14 15  1  0  0  0  0
 14 16  1  0  0  0  0
 14 17  1  0  0  0  0
 17 18  1  0  0  0  0
 17 19  1  0  0  0  0
 19 20  1  0  0  0  0
 19 21  1  0  0  0  0
 19 22  1  0  0  0  0
 17 23  1  0  0  0  0
 23 24  1  0  0  0  0
 23 25  1  0  0  0  0
 23 26  1  0  0  0  0
M  END
> <VConfSearch Rank>
302

> <Conf_Id>
54

> <Delta U+W>
0.453

> <U+W>
-29.845

> <U>
23.817

> <W>
-53.663

> <W(PB)>
-56.021

> <W(SA)>
2.358

> <Valence>
3.277

> <Coulomb>
19.492

> <VdW>
1.049

> <VdW6>
-6.949

> <VdW12>
7.998

> <Bond>
0.183

> <Angle>
1.152

> <Pdih>
1.942

> <Idih>
0.000

> <Tether>
0.000

$$$$
VeraChem MOL file


 26 25  0  0  0  0  0  0  0  0999 V2000     
   18.9770   15.7550   21.7965 C   0  0  0  0  0  0  0  0  0  0  0  0
   19.9486   15.6677   21.2932 H   0  0  0  0  0  0  0  0  0  0  0  0
   19.1169   15.5183   22.8582 H   0  0  0  0  0  0  0  0  0  0  0  0
   18.3116   14.9906   21.3748 H   0  0  0  0  0  0  0  0  0  0  0  0
   18.3731   17.1643   21.5991 C   0  0  0  0  0  0  0  0  0  0  0  0
   17.4190   17.2387   22.1394 H   0  0  0  0  0  0  0  0  0  0  0  0
   18.1338   17.2964   20.5346 H   0  0  0  0  0  0  0  0  0  0  0  0
   19.3168   18.3101   22.0389 C   0  0  0  0  0  0  0  0  0  0  0  0
   20.2789   18.2117   21.5174 H   0  0  0  0  0  0  0  0  0  0  0  0
   18.8659   19.2527   21.7066 H   0  0  0  0  0  0  0  0  0  0  0  0
   19.5470   18.3652   23.5703 C   0  0  0  0  0  0  0  0  0  0  0  0
   19.8770   17.3802   23.9235 H   0  0  0  0  0  0  0  0  0  0  0  0
   18.5923   18.5656   24.0758 H   0  0  0  0  0  0  0  0  0  0  0  0
   20.6037   19.4027   24.0339 C   0  0  0  0  0  0  0  0  0  0  0  0
   20.7381   19.2622   25.1148 H   0  0  0  0  0  0  0  0  0  0  0  0
   21.5784   19.1788   23.5808 H   0  0  0  0  0  0  0  0  0  0  0  0
   20.2262   20.8801   23.7709 C   0  0  1  0  0  0  0  0  0  0  0  0
   19.1525   20.9989   23.9463 H   0  0  0  0  0  0  0  0  0  0  0  0
   20.9774   21.8064   24.7417 C   0  0  0  0  0  0  0  0  0  0  0  0
   20.7026   22.8545   24.5703 H   0  0  0  0  0  0  0  0  0  0  0  0
   22.0638   21.7130   24.6188 H   0  0  0  0  0  0  0  0  0  0  0  0
   20.7290   21.5658   25.7830 H   0  0  0  0  0  0  0  0  0  0  0  0
   20.4959   21.3080   22.3538 N   0  3  0  0  0  0  0  0  0  0  0  0
   20.0025   20.7157   21.6824 H   0  0  0  0  0  0  0  0  0  0  0  0
   20.1969   22.2739   22.1917 H   0  0  0  0  0  0  0  0  0  0  0  0
   21.4940   21.2566   22.1339 H   0  0  0  0  0  0  0  0  0  0  0  0
  1  2  1  0  0  0  0
  1  3  1  0  0  0  0
  1  4  1  0  0  0  0
  1  5  1  0  0  0  0
  5  6  1  0  0  0  0
  5  7  1  0  0  0  0
  5  8  1  0  0  0  0
  8  9  1  0  0  0  0
  8 10  1  0  0  0  0
  8 11  1  0  0  0  0
 11 12  1  0  0  0  0
 11 13  1  0  0  0  0
 11 14  1  0  0  0  0
 14 15  1  0  0  0  0
 14 16  1  0  0  0  0
 14 17  1  0  0  0  0
 17 18  1  0  0  0  0
 17 19  1  0  0  0  0
 19 20  1  0  0  0  0
 19 21  1  0  0  0  0
 19 22  1  0  0  0  0
 17 23  1  0  0  0  0
 23 24  1  0  0  0  0
 23 25  1  0  0  0  0
 23 26  1  0  0  0  0
M  END
> <VConfSearch Rank>
303

> <Conf_Id>
110

> <Delta U+W>
3.764

> <U+W>
-26.535

> <U>
27.400

> <W>
-53.935

> <W(PB)>
-56.238

> <W(SA)>
2.303

> <Valence>
5.205

> <Coulomb>
21.096

> <VdW>
1.098

> <VdW6>
-8.389

> <VdW12>
9.488

> <Bond>
0.270

> <Angle>
1.912

> <Pdih>
3.023

> <Idih>
0.000

> <Tether>
0.000

$$$$
VeraChem MOL file


 26 25  0  0  0  0  0  0  0  0999 V2000     
   16.2496   18.5952   22.2553 C   0  0  0  0  0  0  0  0  0  0  0  0
   15.4443   18.4386   21.5259 H   0  0  0  0  0  0  0  0  0  0  0  0
   16.5949   17.6065   22.5822 H   0  0  0  0  0  0  0  0  0  0  0  0
   15.8209   19.1146   23.1222 H   0  0  0  0  0  0  0  0  0  0  0  0
   17.3968   19.4177   21.6260 C   0  0  0  0  0  0  0  0  0  0  0  0
   16.9796   20.3436   21.2058 H   0  0  0  0  0  0  0  0  0  0  0  0
   17.8278   18.8636   20.7804 H   0  0  0  0  0  0  0  0  0  0  0  0
   18.5133   19.7879   22.6319 C   0  0  0  0  0  0  0  0  0  0  0  0
   19.2193   20.4611   22.1310 H   0  0  0  0  0  0  0  0  0  0  0  0
   18.0804   20.3652   23.4604 H   0  0  0  0  0  0  0  0  0  0  0  0
   19.2648   18.5553   23.1979 C   0  0  0  0  0  0  0  0  0  0  0  0
   19.5878   17.8938   22.3823 H   0  0  0  0  0  0  0  0  0  0  0  0
   18.5630   17.9685   23.8052 H   0  0  0  0  0  0  0  0  0  0  0  0
   20.4771   18.9321   24.0904 C   0  0  0  0  0  0  0  0  0  0  0  0
   20.3227   19.9190   24.5465 H   0  0  0  0  0  0  0  0  0  0  0  0
   20.5127   18.2197   24.9253 H   0  0  0  0  0  0  0  0  0  0  0  0
   21.8497   18.8807   23.3766 C   0  0  1  0  0  0  0  0  0  0  0  0
   21.9863   17.8716   22.9757 H   0  0  0  0  0  0  0  0  0  0  0  0
   21.9544   19.8776   22.2101 C   0  0  0  0  0  0  0  0  0  0  0  0
   21.7420   20.9016   22.5416 H   0  0  0  0  0  0  0  0  0  0  0  0
   21.2550   19.6184   21.4068 H   0  0  0  0  0  0  0  0  0  0  0  0
   22.9622   19.8621   21.7773 H   0  0  0  0  0  0  0  0  0  0  0  0
   22.9728   19.1023   24.3515 N   0  3  0  0  0  0  0  0  0  0  0  0
   22.9526   18.4177   25.1127 H   0  0  0  0  0  0  0  0  0  0  0  0
   23.8858   19.0222   23.8948 H   0  0  0  0  0  0  0  0  0  0  0  0
   22.9236   20.0333   24.7738 H   0  0  0  0  0  0  0  0  0  0  0  0
  1  2  1  0  0  0  0
  1  3  1  0  0  0  0
  1  4  1  0  0  0  0
  1  5  1  0  0  0  0
  5  6  1  0  0  0  0
  5  7  1  0  0  0  0
  5  8  1  0  0  0  0
  8  9  1  0  0  0  0
  8 10  1  0  0  0  0
  8 11  1  0  0  0  0
 11 12  1  0  0  0  0
 11 13  1  0  0  0  0
 11 14  1  0  0  0  0
 14 15  1  0  0  0  0
 14 16  1  0  0  0  0
 14 17  1  0  0  0  0
 17 18  1  0  0  0  0
 17 19  1  0  0  0  0
 19 20  1  0  0  0  0
 19 21  1  0  0  0  0
 19 22  1  0  0  0  0
 17 23  1  0  0  0  0
 23 24  1  0  0  0  0
 23 25  1  0  0  0  0
 23 26  1  0  0  0  0
M  END
> <VConfSearch Rank>
304

> <Conf_Id>
34

> <Delta U+W>
3.568

> <U+W>
-26.731

> <U>
27.221

> <W>
-53.952

> <W(PB)>
-56.213

> <W(SA)>
2.261

> <Valence>
6.368

> <Coulomb>
19.698

> <VdW>
1.155

> <VdW6>
-8.532

> <VdW12>
9.687

> <Bond>
0.272

> <Angle>
1.847

> <Pdih>
4.248

> <Idih>
0.000

> <Tether>
0.000

$$$$
VeraChem MOL file


 26 25  0  0  0  0  0  0  0  0999 V2000     
   21.3094   16.3645   20.2905 C   0  0  0  0  0  0  0  0  0  0  0  0
   22.0902   16.9857   19.8326 H   0  0  0  0  0  0  0  0  0  0  0  0
   21.7880   15.6926   21.0149 H   0  0  0  0  0  0  0  0  0  0  0  0
   20.8643   15.7460   19.5003 H   0  0  0  0  0  0  0  0  0  0  0  0
   20.2334   17.2375   20.9704 C   0  0  0  0  0  0  0  0  0  0  0  0
   19.4499   16.5903   21.3888 H   0  0  0  0  0  0  0  0  0  0  0  0
   19.7498   17.8734   20.2156 H   0  0  0  0  0  0  0  0  0  0  0  0
   20.8342   18.1189   22.0879 C   0  0  0  0  0  0  0  0  0  0  0  0
   21.3185   17.4785   22.8381 H   0  0  0  0  0  0  0  0  0  0  0  0
   21.6185   18.7619   21.6650 H   0  0  0  0  0  0  0  0  0  0  0  0
   19.7599   18.9950   22.7711 C   0  0  0  0  0  0  0  0  0  0  0  0
   18.9790   18.3463   23.1895 H   0  0  0  0  0  0  0  0  0  0  0  0
   19.2792   19.6269   22.0128 H   0  0  0  0  0  0  0  0  0  0  0  0
   20.3701   19.8793   23.8897 C   0  0  0  0  0  0  0  0  0  0  0  0
   20.8892   19.2376   24.6137 H   0  0  0  0  0  0  0  0  0  0  0  0
   21.1409   20.5310   23.4572 H   0  0  0  0  0  0  0  0  0  0  0  0
   19.3517   20.7559   24.6565 C   0  0  1  0  0  0  0  0  0  0  0  0
   19.9066   21.2990   25.4279 H   0  0  0  0  0  0  0  0  0  0  0  0
   18.6832   21.7991   23.7440 C   0  0  0  0  0  0  0  0  0  0  0  0
   18.0285   21.3284   23.0010 H   0  0  0  0  0  0  0  0  0  0  0  0
   19.4373   22.3922   23.2119 H   0  0  0  0  0  0  0  0  0  0  0  0
   18.0730   22.4918   24.3365 H   0  0  0  0  0  0  0  0  0  0  0  0
   18.3211   19.9366   25.3837 N   0  3  0  0  0  0  0  0  0  0  0  0
   17.6944   20.5285   25.9362 H   0  0  0  0  0  0  0  0  0  0  0  0
   17.7423   19.4026   24.7310 H   0  0  0  0  0  0  0  0  0  0  0  0
   18.7570   19.2695   26.0267 H   0  0  0  0  0  0  0  0  0  0  0  0
  1  2  1  0  0  0  0
  1  3  1  0  0  0  0
  1  4  1  0  0  0  0
  1  5  1  0  0  0  0
  5  6  1  0  0  0  0
  5  7  1  0  0  0  0
  5  8  1  0  0  0  0
  8  9  1  0  0  0  0
  8 10  1  0  0  0  0
  8 11  1  0  0  0  0
 11 12  1  0  0  0  0
 11 13  1  0  0  0  0
 11 14  1  0  0  0  0
 14 15  1  0  0  0  0
 14 16  1  0  0  0  0
 14 17  1  0  0  0  0
 17 18  1  0  0  0  0
 17 19  1  0  0  0  0
 19 20  1  0  0  0  0
 19 21  1  0  0  0  0
 19 22  1  0  0  0  0
 17 23  1  0  0  0  0
 23 24  1  0  0  0  0
 23 25  1  0  0  0  0
 23 26  1  0  0  0  0
M  END
> <VConfSearch Rank>
305

> <Conf_Id>
132

> <Delta U+W>
0.363

> <U+W>
-29.936

> <U>
24.060

> <W>
-53.996

> <W(PB)>
-56.327

> <W(SA)>
2.332

> <Valence>
3.249

> <Coulomb>
19.781

> <VdW>
1.030

> <VdW6>
-7.421

> <VdW12>
8.451

> <Bond>
0.207

> <Angle>
1.205

> <Pdih>
1.837

> <Idih>
0.000

> <Tether>
0.000

$$$$
VeraChem MOL file


 26 25  0  0  0  0  0  0  0  0999 V2000     
   16.2816   18.6834   24.5427 C   0  0  0  0  0  0  0  0  0  0  0  0
   15.4875   18.0507   24.1254 H   0  0  0  0  0  0  0  0  0  0  0  0
   16.4140   18.4060   25.5967 H   0  0  0  0  0  0  0  0  0  0  0  0
   15.9379   19.7253   24.5039 H   0  0  0  0  0  0  0  0  0  0  0  0
   17.5945   18.5028   23.7516 C   0  0  0  0  0  0  0  0  0  0  0  0
   17.4106   18.7493   22.6976 H   0  0  0  0  0  0  0  0  0  0  0  0
   17.8969   17.4468   23.7844 H   0  0  0  0  0  0  0  0  0  0  0  0
   18.7283   19.3893   24.3195 C   0  0  0  0  0  0  0  0  0  0  0  0
   18.4483   20.4484   24.2356 H   0  0  0  0  0  0  0  0  0  0  0  0
   18.8358   19.1838   25.3935 H   0  0  0  0  0  0  0  0  0  0  0  0
   20.0995   19.1583   23.6377 C   0  0  0  0  0  0  0  0  0  0  0  0
   20.3753   18.0996   23.7318 H   0  0  0  0  0  0  0  0  0  0  0  0
   20.8536   19.7264   24.1975 H   0  0  0  0  0  0  0  0  0  0  0  0
   20.1263   19.5885   22.1453 C   0  0  0  0  0  0  0  0  0  0  0  0
   19.3952   18.9989   21.5791 H   0  0  0  0  0  0  0  0  0  0  0  0
   19.8022   20.6342   22.0623 H   0  0  0  0  0  0  0  0  0  0  0  0
   21.4995   19.4363   21.4488 C   0  0  1  0  0  0  0  0  0  0  0  0
   21.3637   19.7180   20.4000 H   0  0  0  0  0  0  0  0  0  0  0  0
   22.5618   20.3760   22.0461 C   0  0  0  0  0  0  0  0  0  0  0  0
   22.8286   20.0901   23.0703 H   0  0  0  0  0  0  0  0  0  0  0  0
   22.2024   21.4124   22.0602 H   0  0  0  0  0  0  0  0  0  0  0  0
   23.4778   20.3505   21.4431 H   0  0  0  0  0  0  0  0  0  0  0  0
   21.9835   18.0123   21.4385 N   0  3  0  0  0  0  0  0  0  0  0  0
   21.3017   17.3870   20.9998 H   0  0  0  0  0  0  0  0  0  0  0  0
   22.8616   17.9193   20.9200 H   0  0  0  0  0  0  0  0  0  0  0  0
   22.1501   17.6698   22.3878 H   0  0  0  0  0  0  0  0  0  0  0  0
  1  2  1  0  0  0  0
  1  3  1  0  0  0  0
  1  4  1  0  0  0  0
  1  5  1  0  0  0  0
  5  6  1  0  0  0  0
  5  7  1  0  0  0  0
  5  8  1  0  0  0  0
  8  9  1  0  0  0  0
  8 10  1  0  0  0  0
  8 11  1  0  0  0  0
 11 12  1  0  0  0  0
 11 13  1  0  0  0  0
 11 14  1  0  0  0  0
 14 15  1  0  0  0  0
 14 16  1  0  0  0  0
 14 17  1  0  0  0  0
 17 18  1  0  0  0  0
 17 19  1  0  0  0  0
 19 20  1  0  0  0  0
 19 21  1  0  0  0  0
 19 22  1  0  0  0  0
 17 23  1  0  0  0  0
 23 24  1  0  0  0  0
 23 25  1  0  0  0  0
 23 26  1  0  0  0  0
M  END
> <VConfSearch Rank>
306

> <Conf_Id>
46

> <Delta U+W>
1.114

> <U+W>
-29.185

> <U>
24.990

> <W>
-54.175

> <W(PB)>
-56.455

> <W(SA)>
2.279

> <Valence>
3.862

> <Coulomb>
19.956

> <VdW>
1.172

> <VdW6>
-8.054

> <VdW12>
9.226

> <Bond>
0.258

> <Angle>
1.499

> <Pdih>
2.106

> <Idih>
0.000

> <Tether>
0.000

$$$$
VeraChem MOL file


 26 25  0  0  0  0  0  0  0  0999 V2000     
   18.1285   19.9475   19.8242 C   0  0  0  0  0  0  0  0  0  0  0  0
   17.3553   20.2185   20.5535 H   0  0  0  0  0  0  0  0  0  0  0  0
   18.7167   20.8457   19.5956 H   0  0  0  0  0  0  0  0  0  0  0  0
   17.6178   19.6377   18.9032 H   0  0  0  0  0  0  0  0  0  0  0  0
   19.0327   18.8094   20.3495 C   0  0  0  0  0  0  0  0  0  0  0  0
   19.7027   18.4891   19.5394 H   0  0  0  0  0  0  0  0  0  0  0  0
   18.4173   17.9349   20.6027 H   0  0  0  0  0  0  0  0  0  0  0  0
   19.8921   19.2171   21.5707 C   0  0  0  0  0  0  0  0  0  0  0  0
   20.5873   18.3952   21.7863 H   0  0  0  0  0  0  0  0  0  0  0  0
   20.5119   20.0856   21.3084 H   0  0  0  0  0  0  0  0  0  0  0  0
   19.0541   19.5361   22.8349 C   0  0  0  0  0  0  0  0  0  0  0  0
   18.4124   18.6801   23.0821 H   0  0  0  0  0  0  0  0  0  0  0  0
   18.3759   20.3727   22.6228 H   0  0  0  0  0  0  0  0  0  0  0  0
   19.9208   19.9226   24.0612 C   0  0  0  0  0  0  0  0  0  0  0  0
   20.4860   20.8330   23.8208 H   0  0  0  0  0  0  0  0  0  0  0  0
   19.2590   20.1853   24.8972 H   0  0  0  0  0  0  0  0  0  0  0  0
   20.9067   18.8238   24.5181 C   0  0  1  0  0  0  0  0  0  0  0  0
   21.5755   18.5913   23.6842 H   0  0  0  0  0  0  0  0  0  0  0  0
   21.7631   19.3279   25.6906 C   0  0  0  0  0  0  0  0  0  0  0  0
   22.4926   18.5669   25.9939 H   0  0  0  0  0  0  0  0  0  0  0  0
   21.1411   19.5713   26.5611 H   0  0  0  0  0  0  0  0  0  0  0  0
   22.3208   20.2290   25.4064 H   0  0  0  0  0  0  0  0  0  0  0  0
   20.2090   17.5424   24.8839 N   0  3  0  0  0  0  0  0  0  0  0  0
   19.6662   17.1773   24.0966 H   0  0  0  0  0  0  0  0  0  0  0  0
   20.8770   16.8172   25.1598 H   0  0  0  0  0  0  0  0  0  0  0  0
   19.5640   17.6792   25.6665 H   0  0  0  0  0  0  0  0  0  0  0  0
  1  2  1  0  0  0  0
  1  3  1  0  0  0  0
  1  4  1  0  0  0  0
  1  5  1  0  0  0  0
  5  6  1  0  0  0  0
  5  7  1  0  0  0  0
  5  8  1  0  0  0  0
  8  9  1  0  0  0  0
  8 10  1  0  0  0  0
  8 11  1  0  0  0  0
 11 12  1  0  0  0  0
 11 13  1  0  0  0  0
 11 14  1  0  0  0  0
 14 15  1  0  0  0  0
 14 16  1  0  0  0  0
 14 17  1  0  0  0  0
 17 18  1  0  0  0  0
 17 19  1  0  0  0  0
 19 20  1  0  0  0  0
 19 21  1  0  0  0  0
 19 22  1  0  0  0  0
 17 23  1  0  0  0  0
 23 24  1  0  0  0  0
 23 25  1  0  0  0  0
 23 26  1  0  0  0  0
M  END
> <VConfSearch Rank>
307

> <Conf_Id>
113

> <Delta U+W>
1.137

> <U+W>
-29.162

> <U>
24.833

> <W>
-53.995

> <W(PB)>
-56.288

> <W(SA)>
2.294

> <Valence>
3.589

> <Coulomb>
20.270

> <VdW>
0.974

> <VdW6>
-8.255

> <VdW12>
9.229

> <Bond>
0.244

> <Angle>
1.377

> <Pdih>
1.967

> <Idih>
0.000

> <Tether>
0.000

$$$$
VeraChem MOL file


 26 25  0  0  0  0  0  0  0  0999 V2000     
   19.8509   22.4808   24.9989 C   0  0  0  0  0  0  0  0  0  0  0  0
   20.4653   23.3573   24.7555 H   0  0  0  0  0  0  0  0  0  0  0  0
   18.7969   22.7655   24.8838 H   0  0  0  0  0  0  0  0  0  0  0  0
   20.0243   22.2304   26.0536 H   0  0  0  0  0  0  0  0  0  0  0  0
   20.2078   21.2930   24.0801 C   0  0  0  0  0  0  0  0  0  0  0  0
   21.2735   21.0509   24.1956 H   0  0  0  0  0  0  0  0  0  0  0  0
   20.0609   21.5954   23.0348 H   0  0  0  0  0  0  0  0  0  0  0  0
   19.3506   20.0460   24.4017 C   0  0  0  0  0  0  0  0  0  0  0  0
   19.4503   19.8110   25.4705 H   0  0  0  0  0  0  0  0  0  0  0  0
   18.2887   20.2733   24.2347 H   0  0  0  0  0  0  0  0  0  0  0  0
   19.7487   18.7921   23.5849 C   0  0  0  0  0  0  0  0  0  0  0  0
   19.1723   17.9393   23.9664 H   0  0  0  0  0  0  0  0  0  0  0  0
   20.8056   18.5621   23.7742 H   0  0  0  0  0  0  0  0  0  0  0  0
   19.4996   18.9466   22.0596 C   0  0  0  0  0  0  0  0  0  0  0  0
   18.4675   19.2821   21.8939 H   0  0  0  0  0  0  0  0  0  0  0  0
   20.1445   19.7380   21.6580 H   0  0  0  0  0  0  0  0  0  0  0  0
   19.7363   17.6624   21.2298 C   0  0  1  0  0  0  0  0  0  0  0  0
   19.5181   17.9059   20.1853 H   0  0  0  0  0  0  0  0  0  0  0  0
   21.1988   17.1898   21.3018 C   0  0  0  0  0  0  0  0  0  0  0  0
   21.4627   16.8398   22.3069 H   0  0  0  0  0  0  0  0  0  0  0  0
   21.8847   18.0013   21.0289 H   0  0  0  0  0  0  0  0  0  0  0  0
   21.3691   16.3615   20.6032 H   0  0  0  0  0  0  0  0  0  0  0  0
   18.7920   16.5529   21.6038 N   0  3  0  0  0  0  0  0  0  0  0  0
   17.8148   16.8462   21.5173 H   0  0  0  0  0  0  0  0  0  0  0  0
   18.9196   15.7344   21.0020 H   0  0  0  0  0  0  0  0  0  0  0  0
   18.9384   16.2491   22.5694 H   0  0  0  0  0  0  0  0  0  0  0  0
  1  2  1  0  0  0  0
  1  3  1  0  0  0  0
  1  4  1  0  0  0  0
  1  5  1  0  0  0  0
  5  6  1  0  0  0  0
  5  7  1  0  0  0  0
  5  8  1  0  0  0  0
  8  9  1  0  0  0  0
  8 10  1  0  0  0  0
  8 11  1  0  0  0  0
 11 12  1  0  0  0  0
 11 13  1  0  0  0  0
 11 14  1  0  0  0  0
 14 15  1  0  0  0  0
 14 16  1  0  0  0  0
 14 17  1  0  0  0  0
 17 18  1  0  0  0  0
 17 19  1  0  0  0  0
 19 20  1  0  0  0  0
 19 21  1  0  0  0  0
 19 22  1  0  0  0  0
 17 23  1  0  0  0  0
 23 24  1  0  0  0  0
 23 25  1  0  0  0  0
 23 26  1  0  0  0  0
M  END
> <VConfSearch Rank>
308

> <Conf_Id>
45

> <Delta U+W>
1.035

> <U+W>
-29.264

> <U>
24.725

> <W>
-53.989

> <W(PB)>
-56.298

> <W(SA)>
2.309

> <Valence>
3.780

> <Coulomb>
19.804

> <VdW>
1.141

> <VdW6>
-8.104

> <VdW12>
9.246

> <Bond>
0.254

> <Angle>
1.437

> <Pdih>
2.089

> <Idih>
0.000

> <Tether>
0.000

$$$$
VeraChem MOL file


 26 25  0  0  0  0  0  0  0  0999 V2000     
   23.6424   19.8921   22.2234 C   0  0  0  0  0  0  0  0  0  0  0  0
   24.0644   20.9032   22.1553 H   0  0  0  0  0  0  0  0  0  0  0  0
   24.3032   19.2941   22.8645 H   0  0  0  0  0  0  0  0  0  0  0  0
   23.6538   19.4536   21.2170 H   0  0  0  0  0  0  0  0  0  0  0  0
   22.2083   19.9372   22.7923 C   0  0  0  0  0  0  0  0  0  0  0  0
   21.5909   20.5768   22.1480 H   0  0  0  0  0  0  0  0  0  0  0  0
   22.2257   20.4067   23.7858 H   0  0  0  0  0  0  0  0  0  0  0  0
   21.5907   18.5223   22.8933 C   0  0  0  0  0  0  0  0  0  0  0  0
   21.5215   18.0756   21.8918 H   0  0  0  0  0  0  0  0  0  0  0  0
   22.2693   17.8790   23.4706 H   0  0  0  0  0  0  0  0  0  0  0  0
   20.1984   18.4969   23.5712 C   0  0  0  0  0  0  0  0  0  0  0  0
   20.2698   18.9423   24.5732 H   0  0  0  0  0  0  0  0  0  0  0  0
   19.9130   17.4472   23.7192 H   0  0  0  0  0  0  0  0  0  0  0  0
   19.0985   19.2225   22.7538 C   0  0  0  0  0  0  0  0  0  0  0  0
   19.3755   20.2765   22.6284 H   0  0  0  0  0  0  0  0  0  0  0  0
   19.0384   18.7907   21.7460 H   0  0  0  0  0  0  0  0  0  0  0  0
   17.7099   19.1629   23.4272 C   0  0  1  0  0  0  0  0  0  0  0  0
   17.8029   19.5647   24.4409 H   0  0  0  0  0  0  0  0  0  0  0  0
   16.7039   20.0315   22.6549 C   0  0  0  0  0  0  0  0  0  0  0  0
   16.5734   19.6694   21.6274 H   0  0  0  0  0  0  0  0  0  0  0  0
   17.0428   21.0740   22.6093 H   0  0  0  0  0  0  0  0  0  0  0  0
   15.7239   20.0221   23.1477 H   0  0  0  0  0  0  0  0  0  0  0  0
   17.1933   17.7564   23.5640 N   0  3  0  0  0  0  0  0  0  0  0  0
   17.8292   17.1758   24.1171 H   0  0  0  0  0  0  0  0  0  0  0  0
   16.2805   17.7365   24.0274 H   0  0  0  0  0  0  0  0  0  0  0  0
   17.0827   17.3087   22.6504 H   0  0  0  0  0  0  0  0  0  0  0  0
  1  2  1  0  0  0  0
  1  3  1  0  0  0  0
  1  4  1  0  0  0  0
  1  5  1  0  0  0  0
  5  6  1  0  0  0  0
  5  7  1  0  0  0  0
  5  8  1  0  0  0  0
  8  9  1  0  0  0  0
  8 10  1  0  0  0  0
  8 11  1  0  0  0  0
 11 12  1  0  0  0  0
 11 13  1  0  0  0  0
 11 14  1  0  0  0  0
 14 15  1  0  0  0  0
 14 16  1  0  0  0  0
 14 17  1  0  0  0  0
 17 18  1  0  0  0  0
 17 19  1  0  0  0  0
 19 20  1  0  0  0  0
 19 21  1  0  0  0  0
 19 22  1  0  0  0  0
 17 23  1  0  0  0  0
 23 24  1  0  0  0  0
 23 25  1  0  0  0  0
 23 26  1  0  0  0  0
M  END
> <VConfSearch Rank>
309

> <Conf_Id>
121

> <Delta U+W>
0.736

> <U+W>
-29.562

> <U>
24.282

> <W>
-53.844

> <W(PB)>
-56.205

> <W(SA)>
2.361

> <Valence>
3.311

> <Coulomb>
19.887

> <VdW>
1.083

> <VdW6>
-7.444

> <VdW12>
8.527

> <Bond>
0.219

> <Angle>
1.167

> <Pdih>
1.926

> <Idih>
0.000

> <Tether>
0.000

$$$$
VeraChem MOL file


 26 25  0  0  0  0  0  0  0  0999 V2000     
   22.7378   18.4767   20.8274 C   0  0  0  0  0  0  0  0  0  0  0  0
   23.4527   17.7785   20.3732 H   0  0  0  0  0  0  0  0  0  0  0  0
   22.5272   19.2657   20.0938 H   0  0  0  0  0  0  0  0  0  0  0  0
   23.2306   18.9345   21.6939 H   0  0  0  0  0  0  0  0  0  0  0  0
   21.4435   17.7361   21.2342 C   0  0  0  0  0  0  0  0  0  0  0  0
   21.6752   16.9758   21.9932 H   0  0  0  0  0  0  0  0  0  0  0  0
   21.0600   17.1907   20.3605 H   0  0  0  0  0  0  0  0  0  0  0  0
   20.3317   18.6772   21.7577 C   0  0  0  0  0  0  0  0  0  0  0  0
   20.0982   19.4299   20.9921 H   0  0  0  0  0  0  0  0  0  0  0  0
   19.4197   18.0815   21.8950 H   0  0  0  0  0  0  0  0  0  0  0  0
   20.6967   19.3812   23.0893 C   0  0  0  0  0  0  0  0  0  0  0  0
   21.5998   19.9885   22.9470 H   0  0  0  0  0  0  0  0  0  0  0  0
   20.9537   18.6314   23.8490 H   0  0  0  0  0  0  0  0  0  0  0  0
   19.5739   20.3120   23.6169 C   0  0  0  0  0  0  0  0  0  0  0  0
   19.9163   20.7932   24.5425 H   0  0  0  0  0  0  0  0  0  0  0  0
   19.4258   21.1217   22.8902 H   0  0  0  0  0  0  0  0  0  0  0  0
   18.2126   19.6234   23.8755 C   0  0  1  0  0  0  0  0  0  0  0  0
   17.8772   19.1592   22.9435 H   0  0  0  0  0  0  0  0  0  0  0  0
   18.3122   18.5310   24.9551 C   0  0  0  0  0  0  0  0  0  0  0  0
   18.7007   18.9381   25.8969 H   0  0  0  0  0  0  0  0  0  0  0  0
   18.9707   17.7149   24.6355 H   0  0  0  0  0  0  0  0  0  0  0  0
   17.3264   18.0933   25.1544 H   0  0  0  0  0  0  0  0  0  0  0  0
   17.1587   20.6293   24.2470 N   0  3  0  0  0  0  0  0  0  0  0  0
   17.0457   21.3430   23.5213 H   0  0  0  0  0  0  0  0  0  0  0  0
   16.2465   20.1839   24.3802 H   0  0  0  0  0  0  0  0  0  0  0  0
   17.3925   21.1119   25.1187 H   0  0  0  0  0  0  0  0  0  0  0  0
  1  2  1  0  0  0  0
  1  3  1  0  0  0  0
  1  4  1  0  0  0  0
  1  5  1  0  0  0  0
  5  6  1  0  0  0  0
  5  7  1  0  0  0  0
  5  8  1  0  0  0  0
  8  9  1  0  0  0  0
  8 10  1  0  0  0  0
  8 11  1  0  0  0  0
 11 12  1  0  0  0  0
 11 13  1  0  0  0  0
 11 14  1  0  0  0  0
 14 15  1  0  0  0  0
 14 16  1  0  0  0  0
 14 17  1  0  0  0  0
 17 18  1  0  0  0  0
 17 19  1  0  0  0  0
 19 20  1  0  0  0  0
 19 21  1  0  0  0  0
 19 22  1  0  0  0  0
 17 23  1  0  0  0  0
 23 24  1  0  0  0  0
 23 25  1  0  0  0  0
 23 26  1  0  0  0  0
M  END
> <VConfSearch Rank>
310

> <Conf_Id>
5

> <Delta U+W>
1.233

> <U+W>
-29.065

> <U>
25.023

> <W>
-54.088

> <W(PB)>
-56.383

> <W(SA)>
2.296

> <Valence>
4.083

> <Coulomb>
19.893

> <VdW>
1.047

> <VdW6>
-8.479

> <VdW12>
9.527

> <Bond>
0.256

> <Angle>
1.716

> <Pdih>
2.112

> <Idih>
0.000

> <Tether>
0.000

$$$$
VeraChem MOL file


 26 25  0  0  0  0  0  0  0  0999 V2000     
   17.3922   19.4108   20.2037 C   0  0  0  0  0  0  0  0  0  0  0  0
   17.0080   19.1501   19.2091 H   0  0  0  0  0  0  0  0  0  0  0  0
   16.7431   18.9270   20.9437 H   0  0  0  0  0  0  0  0  0  0  0  0
   17.3011   20.4982   20.3238 H   0  0  0  0  0  0  0  0  0  0  0  0
   18.8623   18.9564   20.3509 C   0  0  0  0  0  0  0  0  0  0  0  0
   19.4424   19.3653   19.5119 H   0  0  0  0  0  0  0  0  0  0  0  0
   18.9228   17.8627   20.2617 H   0  0  0  0  0  0  0  0  0  0  0  0
   19.5207   19.4118   21.6758 C   0  0  0  0  0  0  0  0  0  0  0  0
   20.5892   19.1663   21.6224 H   0  0  0  0  0  0  0  0  0  0  0  0
   19.4527   20.5050   21.7620 H   0  0  0  0  0  0  0  0  0  0  0  0
   18.9043   18.7465   22.9317 C   0  0  0  0  0  0  0  0  0  0  0  0
   19.0020   17.6550   22.8522 H   0  0  0  0  0  0  0  0  0  0  0  0
   17.8279   18.9574   22.9682 H   0  0  0  0  0  0  0  0  0  0  0  0
   19.5284   19.2214   24.2686 C   0  0  0  0  0  0  0  0  0  0  0  0
   19.3604   20.2988   24.4001 H   0  0  0  0  0  0  0  0  0  0  0  0
   18.9728   18.7354   25.0815 H   0  0  0  0  0  0  0  0  0  0  0  0
   21.0334   18.8867   24.4101 C   0  0  1  0  0  0  0  0  0  0  0  0
   21.2805   18.1107   23.6791 H   0  0  0  0  0  0  0  0  0  0  0  0
   21.9157   20.1191   24.1395 C   0  0  0  0  0  0  0  0  0  0  0  0
   21.7377   20.9036   24.8856 H   0  0  0  0  0  0  0  0  0  0  0  0
   21.7182   20.5455   23.1497 H   0  0  0  0  0  0  0  0  0  0  0  0
   22.9783   19.8495   24.1782 H   0  0  0  0  0  0  0  0  0  0  0  0
   21.3564   18.3076   25.7603 N   0  3  0  0  0  0  0  0  0  0  0  0
   20.8156   17.4577   25.9448 H   0  0  0  0  0  0  0  0  0  0  0  0
   22.3471   18.0595   25.8337 H   0  0  0  0  0  0  0  0  0  0  0  0
   21.1518   18.9721   26.5115 H   0  0  0  0  0  0  0  0  0  0  0  0
  1  2  1  0  0  0  0
  1  3  1  0  0  0  0
  1  4  1  0  0  0  0
  1  5  1  0  0  0  0
  5  6  1  0  0  0  0
  5  7  1  0  0  0  0
  5  8  1  0  0  0  0
  8  9  1  0  0  0  0
  8 10  1  0  0  0  0
  8 11  1  0  0  0  0
 11 12  1  0  0  0  0
 11 13  1  0  0  0  0
 11 14  1  0  0  0  0
 14 15  1  0  0  0  0
 14 16  1  0  0  0  0
 14 17  1  0  0  0  0
 17 18  1  0  0  0  0
 17 19  1  0  0  0  0
 19 20  1  0  0  0  0
 19 21  1  0  0  0  0
 19 22  1  0  0  0  0
 17 23  1  0  0  0  0
 23 24  1  0  0  0  0
 23 25  1  0  0  0  0
 23 26  1  0  0  0  0
M  END
> <VConfSearch Rank>
311

> <Conf_Id>
100

> <Delta U+W>
3.818

> <U+W>
-26.481

> <U>
27.496

> <W>
-53.977

> <W(PB)>
-56.267

> <W(SA)>
2.290

> <Valence>
6.472

> <Coulomb>
19.839

> <VdW>
1.185

> <VdW6>
-8.405

> <VdW12>
9.590

> <Bond>
0.248

> <Angle>
1.619

> <Pdih>
4.604

> <Idih>
0.000

> <Tether>
0.000

$$$$
VeraChem MOL file


 26 25  0  0  0  0  0  0  0  0999 V2000     
   19.8189   21.5132   20.0885 C   0  0  0  0  0  0  0  0  0  0  0  0
   20.0989   22.5516   19.8684 H   0  0  0  0  0  0  0  0  0  0  0  0
   20.5986   20.8595   19.6763 H   0  0  0  0  0  0  0  0  0  0  0  0
   18.8795   21.2989   19.5624 H   0  0  0  0  0  0  0  0  0  0  0  0
   19.6639   21.3013   21.6094 C   0  0  0  0  0  0  0  0  0  0  0  0
   18.9029   21.9925   21.9980 H   0  0  0  0  0  0  0  0  0  0  0  0
   20.6084   21.5553   22.1107 H   0  0  0  0  0  0  0  0  0  0  0  0
   19.2692   19.8465   21.9471 C   0  0  0  0  0  0  0  0  0  0  0  0
   18.3250   19.6000   21.4420 H   0  0  0  0  0  0  0  0  0  0  0  0
   20.0271   19.1654   21.5427 H   0  0  0  0  0  0  0  0  0  0  0  0
   19.1069   19.6350   23.4725 C   0  0  0  0  0  0  0  0  0  0  0  0
   18.3238   20.3189   23.8283 H   0  0  0  0  0  0  0  0  0  0  0  0
   20.0249   19.9311   23.9964 H   0  0  0  0  0  0  0  0  0  0  0  0
   18.6987   18.1855   23.8582 C   0  0  0  0  0  0  0  0  0  0  0  0
   18.0179   18.2369   24.7180 H   0  0  0  0  0  0  0  0  0  0  0  0
   18.1079   17.7358   23.0494 H   0  0  0  0  0  0  0  0  0  0  0  0
   19.8568   17.2305   24.2409 C   0  0  1  0  0  0  0  0  0  0  0  0
   19.4082   16.2593   24.4719 H   0  0  0  0  0  0  0  0  0  0  0  0
   20.8589   17.0146   23.0955 C   0  0  0  0  0  0  0  0  0  0  0  0
   21.4389   17.9227   22.8925 H   0  0  0  0  0  0  0  0  0  0  0  0
   20.3419   16.7166   22.1750 H   0  0  0  0  0  0  0  0  0  0  0  0
   21.5671   16.2172   23.3519 H   0  0  0  0  0  0  0  0  0  0  0  0
   20.5639   17.6660   25.4953 N   0  3  0  0  0  0  0  0  0  0  0  0
   19.9132   17.7593   26.2804 H   0  0  0  0  0  0  0  0  0  0  0  0
   21.2823   16.9913   25.7729 H   0  0  0  0  0  0  0  0  0  0  0  0
   21.0249   18.5702   25.3686 H   0  0  0  0  0  0  0  0  0  0  0  0
  1  2  1  0  0  0  0
  1  3  1  0  0  0  0
  1  4  1  0  0  0  0
  1  5  1  0  0  0  0
  5  6  1  0  0  0  0
  5  7  1  0  0  0  0
  5  8  1  0  0  0  0
  8  9  1  0  0  0  0
  8 10  1  0  0  0  0
  8 11  1  0  0  0  0
 11 12  1  0  0  0  0
 11 13  1  0  0  0  0
 11 14  1  0  0  0  0
 14 15  1  0  0  0  0
 14 16  1  0  0  0  0
 14 17  1  0  0  0  0
 17 18  1  0  0  0  0
 17 19  1  0  0  0  0
 19 20  1  0  0  0  0
 19 21  1  0  0  0  0
 19 22  1  0  0  0  0
 17 23  1  0  0  0  0
 23 24  1  0  0  0  0
 23 25  1  0  0  0  0
 23 26  1  0  0  0  0
M  END
> <VConfSearch Rank>
312

> <Conf_Id>
142

> <Delta U+W>
2.978

> <U+W>
-27.320

> <U>
26.848

> <W>
-54.168

> <W(PB)>
-56.427

> <W(SA)>
2.259

> <Valence>
5.823

> <Coulomb>
20.057

> <VdW>
0.968

> <VdW6>
-8.367

> <VdW12>
9.335

> <Bond>
0.267

> <Angle>
1.799

> <Pdih>
3.758

> <Idih>
0.000

> <Tether>
0.000

$$$$
VeraChem MOL file


 26 25  0  0  0  0  0  0  0  0999 V2000     
   17.2272   18.7930   20.6128 C   0  0  0  0  0  0  0  0  0  0  0  0
   16.8104   19.7868   20.8217 H   0  0  0  0  0  0  0  0  0  0  0  0
   16.8631   18.4776   19.6265 H   0  0  0  0  0  0  0  0  0  0  0  0
   16.8252   18.0889   21.3514 H   0  0  0  0  0  0  0  0  0  0  0  0
   18.7726   18.8226   20.6334 C   0  0  0  0  0  0  0  0  0  0  0  0
   19.1223   19.4380   19.7926 H   0  0  0  0  0  0  0  0  0  0  0  0
   19.1656   17.8115   20.4577 H   0  0  0  0  0  0  0  0  0  0  0  0
   19.3641   19.3955   21.9443 C   0  0  0  0  0  0  0  0  0  0  0  0
   20.4429   19.5175   21.7933 H   0  0  0  0  0  0  0  0  0  0  0  0
   18.9508   20.3972   22.1253 H   0  0  0  0  0  0  0  0  0  0  0  0
   19.1178   18.4913   23.1784 C   0  0  0  0  0  0  0  0  0  0  0  0
   19.5886   17.5122   23.0185 H   0  0  0  0  0  0  0  0  0  0  0  0
   18.0428   18.2916   23.2692 H   0  0  0  0  0  0  0  0  0  0  0  0
   19.5893   19.0957   24.5315 C   0  0  0  0  0  0  0  0  0  0  0  0
   19.0218   20.0130   24.7359 H   0  0  0  0  0  0  0  0  0  0  0  0
   19.3024   18.3943   25.3261 H   0  0  0  0  0  0  0  0  0  0  0  0
   21.1018   19.3922   24.6979 C   0  0  1  0  0  0  0  0  0  0  0  0
   21.2698   19.5791   25.7631 H   0  0  0  0  0  0  0  0  0  0  0  0
   21.9842   18.1965   24.2989 C   0  0  0  0  0  0  0  0  0  0  0  0
   21.9415   18.0033   23.2204 H   0  0  0  0  0  0  0  0  0  0  0  0
   21.6671   17.2872   24.8245 H   0  0  0  0  0  0  0  0  0  0  0  0
   23.0314   18.3863   24.5645 H   0  0  0  0  0  0  0  0  0  0  0  0
   21.5386   20.6530   24.0037 N   0  3  0  0  0  0  0  0  0  0  0  0
   20.9989   21.4624   24.3231 H   0  0  0  0  0  0  0  0  0  0  0  0
   22.5262   20.8552   24.1836 H   0  0  0  0  0  0  0  0  0  0  0  0
   21.4181   20.5826   22.9915 H   0  0  0  0  0  0  0  0  0  0  0  0
  1  2  1  0  0  0  0
  1  3  1  0  0  0  0
  1  4  1  0  0  0  0
  1  5  1  0  0  0  0
  5  6  1  0  0  0  0
  5  7  1  0  0  0  0
  5  8  1  0  0  0  0
  8  9  1  0  0  0  0
  8 10  1  0  0  0  0
  8 11  1  0  0  0  0
 11 12  1  0  0  0  0
 11 13  1  0  0  0  0
 11 14  1  0  0  0  0
 14 15  1  0  0  0  0
 14 16  1  0  0  0  0
 14 17  1  0  0  0  0
 17 18  1  0  0  0  0
 17 19  1  0  0  0  0
 19 20  1  0  0  0  0
 19 21  1  0  0  0  0
 19 22  1  0  0  0  0
 17 23  1  0  0  0  0
 23 24  1  0  0  0  0
 23 25  1  0  0  0  0
 23 26  1  0  0  0  0
M  END
> <VConfSearch Rank>
313

> <Conf_Id>
119

> <Delta U+W>
3.538

> <U+W>
-26.761

> <U>
27.482

> <W>
-54.243

> <W(PB)>
-56.494

> <W(SA)>
2.251

> <Valence>
5.284

> <Coulomb>
21.247

> <VdW>
0.951

> <VdW6>
-9.416

> <VdW12>
10.367

> <Bond>
0.323

> <Angle>
2.522

> <Pdih>
2.439

> <Idih>
0.000

> <Tether>
0.000

$$$$
VeraChem MOL file


 26 25  0  0  0  0  0  0  0  0999 V2000     
   21.8093   16.4766   21.6278 C   0  0  0  0  0  0  0  0  0  0  0  0
   21.1506   15.6039   21.7257 H   0  0  0  0  0  0  0  0  0  0  0  0
   21.4869   17.0552   20.7533 H   0  0  0  0  0  0  0  0  0  0  0  0
   22.8239   16.1102   21.4248 H   0  0  0  0  0  0  0  0  0  0  0  0
   21.7911   17.3337   22.9139 C   0  0  0  0  0  0  0  0  0  0  0  0
   22.4327   18.2157   22.7790 H   0  0  0  0  0  0  0  0  0  0  0  0
   22.2369   16.7521   23.7329 H   0  0  0  0  0  0  0  0  0  0  0  0
   20.3709   17.7799   23.3377 C   0  0  0  0  0  0  0  0  0  0  0  0
   19.7428   16.8926   23.4968 H   0  0  0  0  0  0  0  0  0  0  0  0
   20.4442   18.2779   24.3116 H   0  0  0  0  0  0  0  0  0  0  0  0
   19.6890   18.7198   22.3104 C   0  0  0  0  0  0  0  0  0  0  0  0
   19.5218   18.1564   21.3829 H   0  0  0  0  0  0  0  0  0  0  0  0
   20.3631   19.5445   22.0457 H   0  0  0  0  0  0  0  0  0  0  0  0
   18.3158   19.2666   22.7916 C   0  0  0  0  0  0  0  0  0  0  0  0
   17.6428   19.3193   21.9256 H   0  0  0  0  0  0  0  0  0  0  0  0
   17.8472   18.5486   23.4775 H   0  0  0  0  0  0  0  0  0  0  0  0
   18.3358   20.6690   23.4493 C   0  0  1  0  0  0  0  0  0  0  0  0
   17.3064   20.9032   23.7379 H   0  0  0  0  0  0  0  0  0  0  0  0
   19.1951   20.7204   24.7230 C   0  0  0  0  0  0  0  0  0  0  0  0
   20.2608   20.6019   24.4940 H   0  0  0  0  0  0  0  0  0  0  0  0
   18.8987   19.9317   25.4255 H   0  0  0  0  0  0  0  0  0  0  0  0
   19.0679   21.6835   25.2322 H   0  0  0  0  0  0  0  0  0  0  0  0
   18.7473   21.7458   22.4826 N   0  3  0  0  0  0  0  0  0  0  0  0
   18.1458   21.7566   21.6540 H   0  0  0  0  0  0  0  0  0  0  0  0
   18.6928   22.6740   22.9114 H   0  0  0  0  0  0  0  0  0  0  0  0
   19.7094   21.6117   22.1627 H   0  0  0  0  0  0  0  0  0  0  0  0
  1  2  1  0  0  0  0
  1  3  1  0  0  0  0
  1  4  1  0  0  0  0
  1  5  1  0  0  0  0
  5  6  1  0  0  0  0
  5  7  1  0  0  0  0
  5  8  1  0  0  0  0
  8  9  1  0  0  0  0
  8 10  1  0  0  0  0
  8 11  1  0  0  0  0
 11 12  1  0  0  0  0
 11 13  1  0  0  0  0
 11 14  1  0  0  0  0
 14 15  1  0  0  0  0
 14 16  1  0  0  0  0
 14 17  1  0  0  0  0
 17 18  1  0  0  0  0
 17 19  1  0  0  0  0
 19 20  1  0  0  0  0
 19 21  1  0  0  0  0
 19 22  1  0  0  0  0
 17 23  1  0  0  0  0
 23 24  1  0  0  0  0
 23 25  1  0  0  0  0
 23 26  1  0  0  0  0
M  END
> <VConfSearch Rank>
314

> <Conf_Id>
127

> <Delta U+W>
3.544

> <U+W>
-26.754

> <U>
27.509

> <W>
-54.263

> <W(PB)>
-56.496

> <W(SA)>
2.232

> <Valence>
6.375

> <Coulomb>
20.014

> <VdW>
1.120

> <VdW6>
-8.976

> <VdW12>
10.096

> <Bond>
0.304

> <Angle>
1.986

> <Pdih>
4.086

> <Idih>
0.000

> <Tether>
0.000

$$$$
VeraChem MOL file


 26 25  0  0  0  0  0  0  0  0999 V2000     
   21.1070   16.5908   21.5380 C   0  0  0  0  0  0  0  0  0  0  0  0
   20.7947   15.5626   21.3139 H   0  0  0  0  0  0  0  0  0  0  0  0
   22.1465   16.7030   21.2034 H   0  0  0  0  0  0  0  0  0  0  0  0
   21.0886   16.7136   22.6264 H   0  0  0  0  0  0  0  0  0  0  0  0
   20.1848   17.6045   20.8212 C   0  0  0  0  0  0  0  0  0  0  0  0
   19.1368   17.4354   21.1053 H   0  0  0  0  0  0  0  0  0  0  0  0
   20.2401   17.4070   19.7414 H   0  0  0  0  0  0  0  0  0  0  0  0
   20.5811   19.0821   21.0738 C   0  0  0  0  0  0  0  0  0  0  0  0
   21.6612   19.1597   21.2598 H   0  0  0  0  0  0  0  0  0  0  0  0
   20.3999   19.6468   20.1488 H   0  0  0  0  0  0  0  0  0  0  0  0
   19.7926   19.7839   22.2097 C   0  0  0  0  0  0  0  0  0  0  0  0
   18.7249   19.7896   21.9531 H   0  0  0  0  0  0  0  0  0  0  0  0
   20.1087   20.8344   22.2346 H   0  0  0  0  0  0  0  0  0  0  0  0
   19.9929   19.1450   23.6099 C   0  0  0  0  0  0  0  0  0  0  0  0
   19.5845   18.1273   23.6030 H   0  0  0  0  0  0  0  0  0  0  0  0
   21.0666   19.0460   23.8167 H   0  0  0  0  0  0  0  0  0  0  0  0
   19.3277   19.9116   24.7777 C   0  0  1  0  0  0  0  0  0  0  0  0
   19.4791   19.3161   25.6834 H   0  0  0  0  0  0  0  0  0  0  0  0
   19.9769   21.2864   25.0156 C   0  0  0  0  0  0  0  0  0  0  0  0
   21.0636   21.1901   25.1312 H   0  0  0  0  0  0  0  0  0  0  0  0
   19.5846   21.7410   25.9336 H   0  0  0  0  0  0  0  0  0  0  0  0
   19.7789   21.9794   24.1896 H   0  0  0  0  0  0  0  0  0  0  0  0
   17.8389   20.0398   24.6072 N   0  3  0  0  0  0  0  0  0  0  0  0
   17.3933   19.1246   24.4965 H   0  0  0  0  0  0  0  0  0  0  0  0
   17.4072   20.4943   25.4168 H   0  0  0  0  0  0  0  0  0  0  0  0
   17.6067   20.5978   23.7819 H   0  0  0  0  0  0  0  0  0  0  0  0
  1  2  1  0  0  0  0
  1  3  1  0  0  0  0
  1  4  1  0  0  0  0
  1  5  1  0  0  0  0
  5  6  1  0  0  0  0
  5  7  1  0  0  0  0
  5  8  1  0  0  0  0
  8  9  1  0  0  0  0
  8 10  1  0  0  0  0
  8 11  1  0  0  0  0
 11 12  1  0  0  0  0
 11 13  1  0  0  0  0
 11 14  1  0  0  0  0
 14 15  1  0  0  0  0
 14 16  1  0  0  0  0
 14 17  1  0  0  0  0
 17 18  1  0  0  0  0
 17 19  1  0  0  0  0
 19 20  1  0  0  0  0
 19 21  1  0  0  0  0
 19 22  1  0  0  0  0
 17 23  1  0  0  0  0
 23 24  1  0  0  0  0
 23 25  1  0  0  0  0
 23 26  1  0  0  0  0
M  END
> <VConfSearch Rank>
315

> <Conf_Id>
131

> <Delta U+W>
3.589

> <U+W>
-26.710

> <U>
27.573

> <W>
-54.283

> <W(PB)>
-56.537

> <W(SA)>
2.254

> <Valence>
6.363

> <Coulomb>
20.026

> <VdW>
1.184

> <VdW6>
-8.939

> <VdW12>
10.123

> <Bond>
0.298

> <Angle>
2.018

> <Pdih>
4.047

> <Idih>
0.000

> <Tether>
0.000

$$$$
VeraChem MOL file


 26 25  0  0  0  0  0  0  0  0999 V2000     
   19.1099   16.4885   23.8877 C   0  0  0  0  0  0  0  0  0  0  0  0
   19.6421   16.1367   22.9945 H   0  0  0  0  0  0  0  0  0  0  0  0
   19.7404   17.2211   24.4063 H   0  0  0  0  0  0  0  0  0  0  0  0
   18.9822   15.6318   24.5619 H   0  0  0  0  0  0  0  0  0  0  0  0
   17.7376   17.0924   23.5177 C   0  0  0  0  0  0  0  0  0  0  0  0
   17.2638   17.5001   24.4216 H   0  0  0  0  0  0  0  0  0  0  0  0
   17.0800   16.2842   23.1681 H   0  0  0  0  0  0  0  0  0  0  0  0
   17.7948   18.1873   22.4218 C   0  0  0  0  0  0  0  0  0  0  0  0
   18.1634   17.7588   21.4797 H   0  0  0  0  0  0  0  0  0  0  0  0
   16.7625   18.5038   22.2181 H   0  0  0  0  0  0  0  0  0  0  0  0
   18.6188   19.4452   22.8029 C   0  0  0  0  0  0  0  0  0  0  0  0
   18.5745   19.5963   23.8890 H   0  0  0  0  0  0  0  0  0  0  0  0
   18.1377   20.3244   22.3525 H   0  0  0  0  0  0  0  0  0  0  0  0
   20.0877   19.3932   22.3053 C   0  0  0  0  0  0  0  0  0  0  0  0
   20.6167   18.5413   22.7467 H   0  0  0  0  0  0  0  0  0  0  0  0
   20.0791   19.2204   21.2211 H   0  0  0  0  0  0  0  0  0  0  0  0
   20.8821   20.6894   22.5847 C   0  0  1  0  0  0  0  0  0  0  0  0
   20.3133   21.5342   22.1842 H   0  0  0  0  0  0  0  0  0  0  0  0
   21.1032   20.9192   24.0907 C   0  0  0  0  0  0  0  0  0  0  0  0
   21.6173   20.0663   24.5511 H   0  0  0  0  0  0  0  0  0  0  0  0
   20.1533   21.0718   24.6156 H   0  0  0  0  0  0  0  0  0  0  0  0
   21.7134   21.8151   24.2591 H   0  0  0  0  0  0  0  0  0  0  0  0
   22.2003   20.6849   21.8612 N   0  3  0  0  0  0  0  0  0  0  0  0
   22.8004   19.9199   22.1806 H   0  0  0  0  0  0  0  0  0  0  0  0
   22.0756   20.5770   20.8505 H   0  0  0  0  0  0  0  0  0  0  0  0
   22.7128   21.5584   22.0124 H   0  0  0  0  0  0  0  0  0  0  0  0
  1  2  1  0  0  0  0
  1  3  1  0  0  0  0
  1  4  1  0  0  0  0
  1  5  1  0  0  0  0
  5  6  1  0  0  0  0
  5  7  1  0  0  0  0
  5  8  1  0  0  0  0
  8  9  1  0  0  0  0
  8 10  1  0  0  0  0
  8 11  1  0  0  0  0
 11 12  1  0  0  0  0
 11 13  1  0  0  0  0
 11 14  1  0  0  0  0
 14 15  1  0  0  0  0
 14 16  1  0  0  0  0
 14 17  1  0  0  0  0
 17 18  1  0  0  0  0
 17 19  1  0  0  0  0
 19 20  1  0  0  0  0
 19 21  1  0  0  0  0
 19 22  1  0  0  0  0
 17 23  1  0  0  0  0
 23 24  1  0  0  0  0
 23 25  1  0  0  0  0
 23 26  1  0  0  0  0
M  END
> <VConfSearch Rank>
316

> <Conf_Id>
80

> <Delta U+W>
3.351

> <U+W>
-26.948

> <U>
27.261

> <W>
-54.209

> <W(PB)>
-56.471

> <W(SA)>
2.263

> <Valence>
6.230

> <Coulomb>
19.945

> <VdW>
1.087

> <VdW6>
-8.618

> <VdW12>
9.704

> <Bond>
0.277

> <Angle>
1.928

> <Pdih>
4.025

> <Idih>
0.000

> <Tether>
0.000

$$$$
VeraChem MOL file


 26 25  0  0  0  0  0  0  0  0999 V2000     
   18.4748   16.6241   24.6443 C   0  0  0  0  0  0  0  0  0  0  0  0
   17.5000   16.4418   25.1148 H   0  0  0  0  0  0  0  0  0  0  0  0
   18.9979   15.6618   24.5708 H   0  0  0  0  0  0  0  0  0  0  0  0
   19.0469   17.2779   25.3143 H   0  0  0  0  0  0  0  0  0  0  0  0
   18.2912   17.2649   23.2501 C   0  0  0  0  0  0  0  0  0  0  0  0
   17.7909   18.2365   23.3528 H   0  0  0  0  0  0  0  0  0  0  0  0
   17.6049   16.6391   22.6628 H   0  0  0  0  0  0  0  0  0  0  0  0
   19.6148   17.4177   22.4562 C   0  0  0  0  0  0  0  0  0  0  0  0
   20.0031   16.4137   22.2360 H   0  0  0  0  0  0  0  0  0  0  0  0
   19.3867   17.8620   21.4807 H   0  0  0  0  0  0  0  0  0  0  0  0
   20.7379   18.2261   23.1657 C   0  0  0  0  0  0  0  0  0  0  0  0
   21.6471   18.2022   22.5494 H   0  0  0  0  0  0  0  0  0  0  0  0
   21.0096   17.7013   24.0910 H   0  0  0  0  0  0  0  0  0  0  0  0
   20.3935   19.7010   23.5163 C   0  0  0  0  0  0  0  0  0  0  0  0
   19.3286   19.8133   23.7484 H   0  0  0  0  0  0  0  0  0  0  0  0
   20.9219   19.9479   24.4465 H   0  0  0  0  0  0  0  0  0  0  0  0
   20.8193   20.7470   22.4578 C   0  0  1  0  0  0  0  0  0  0  0  0
   21.8979   20.6519   22.2989 H   0  0  0  0  0  0  0  0  0  0  0  0
   20.1170   20.5523   21.1040 C   0  0  0  0  0  0  0  0  0  0  0  0
   20.4611   19.6350   20.6136 H   0  0  0  0  0  0  0  0  0  0  0  0
   20.3467   21.3826   20.4250 H   0  0  0  0  0  0  0  0  0  0  0  0
   19.0277   20.5003   21.2235 H   0  0  0  0  0  0  0  0  0  0  0  0
   20.5907   22.1447   22.9635 N   0  3  0  0  0  0  0  0  0  0  0  0
   21.0888   22.3145   23.8420 H   0  0  0  0  0  0  0  0  0  0  0  0
   20.9157   22.8439   22.2898 H   0  0  0  0  0  0  0  0  0  0  0  0
   19.5974   22.3232   23.1335 H   0  0  0  0  0  0  0  0  0  0  0  0
  1  2  1  0  0  0  0
  1  3  1  0  0  0  0
  1  4  1  0  0  0  0
  1  5  1  0  0  0  0
  5  6  1  0  0  0  0
  5  7  1  0  0  0  0
  5  8  1  0  0  0  0
  8  9  1  0  0  0  0
  8 10  1  0  0  0  0
  8 11  1  0  0  0  0
 11 12  1  0  0  0  0
 11 13  1  0  0  0  0
 11 14  1  0  0  0  0
 14 15  1  0  0  0  0
 14 16  1  0  0  0  0
 14 17  1  0  0  0  0
 17 18  1  0  0  0  0
 17 19  1  0  0  0  0
 19 20  1  0  0  0  0
 19 21  1  0  0  0  0
 19 22  1  0  0  0  0
 17 23  1  0  0  0  0
 23 24  1  0  0  0  0
 23 25  1  0  0  0  0
 23 26  1  0  0  0  0
M  END
> <VConfSearch Rank>
317

> <Conf_Id>
136

> <Delta U+W>
4.272

> <U+W>
-26.026

> <U>
28.262

> <W>
-54.288

> <W(PB)>
-56.488

> <W(SA)>
2.200

> <Valence>
7.096

> <Coulomb>
19.990

> <VdW>
1.175

> <VdW6>
-9.404

> <VdW12>
10.580

> <Bond>
0.360

> <Angle>
2.785

> <Pdih>
3.951

> <Idih>
0.000

> <Tether>
0.000

$$$$
VeraChem MOL file


 26 25  0  0  0  0  0  0  0  0999 V2000     
   17.8405   21.2513   22.1074 C   0  0  0  0  0  0  0  0  0  0  0  0
   18.9232   21.4186   22.1631 H   0  0  0  0  0  0  0  0  0  0  0  0
   17.3961   22.1369   21.6353 H   0  0  0  0  0  0  0  0  0  0  0  0
   17.4436   21.1804   23.1284 H   0  0  0  0  0  0  0  0  0  0  0  0
   17.5100   19.9823   21.2917 C   0  0  0  0  0  0  0  0  0  0  0  0
   17.9678   20.0601   20.2957 H   0  0  0  0  0  0  0  0  0  0  0  0
   16.4244   19.9438   21.1250 H   0  0  0  0  0  0  0  0  0  0  0  0
   17.9515   18.6572   21.9640 C   0  0  0  0  0  0  0  0  0  0  0  0
   17.4205   18.5211   22.9162 H   0  0  0  0  0  0  0  0  0  0  0  0
   17.6177   17.8326   21.3189 H   0  0  0  0  0  0  0  0  0  0  0  0
   19.4817   18.5167   22.1752 C   0  0  0  0  0  0  0  0  0  0  0  0
   20.0207   19.0951   21.4121 H   0  0  0  0  0  0  0  0  0  0  0  0
   19.7536   17.4656   22.0106 H   0  0  0  0  0  0  0  0  0  0  0  0
   19.9454   18.9322   23.5957 C   0  0  0  0  0  0  0  0  0  0  0  0
   19.5905   19.9444   23.8197 H   0  0  0  0  0  0  0  0  0  0  0  0
   19.4827   18.2722   24.3414 H   0  0  0  0  0  0  0  0  0  0  0  0
   21.4805   18.9007   23.7593 C   0  0  1  0  0  0  0  0  0  0  0  0
   21.9199   19.5449   22.9914 H   0  0  0  0  0  0  0  0  0  0  0  0
   21.8826   19.4502   25.1374 C   0  0  0  0  0  0  0  0  0  0  0  0
   21.4665   18.8367   25.9463 H   0  0  0  0  0  0  0  0  0  0  0  0
   21.5218   20.4781   25.2678 H   0  0  0  0  0  0  0  0  0  0  0  0
   22.9741   19.4648   25.2462 H   0  0  0  0  0  0  0  0  0  0  0  0
   22.0548   17.5258   23.5515 N   0  3  0  0  0  0  0  0  0  0  0  0
   21.6866   16.8600   24.2359 H   0  0  0  0  0  0  0  0  0  0  0  0
   21.8334   17.1648   22.6198 H   0  0  0  0  0  0  0  0  0  0  0  0
   23.0745   17.5282   23.6442 H   0  0  0  0  0  0  0  0  0  0  0  0
  1  2  1  0  0  0  0
  1  3  1  0  0  0  0
  1  4  1  0  0  0  0
  1  5  1  0  0  0  0
  5  6  1  0  0  0  0
  5  7  1  0  0  0  0
  5  8  1  0  0  0  0
  8  9  1  0  0  0  0
  8 10  1  0  0  0  0
  8 11  1  0  0  0  0
 11 12  1  0  0  0  0
 11 13  1  0  0  0  0
 11 14  1  0  0  0  0
 14 15  1  0  0  0  0
 14 16  1  0  0  0  0
 14 17  1  0  0  0  0
 17 18  1  0  0  0  0
 17 19  1  0  0  0  0
 19 20  1  0  0  0  0
 19 21  1  0  0  0  0
 19 22  1  0  0  0  0
 17 23  1  0  0  0  0
 23 24  1  0  0  0  0
 23 25  1  0  0  0  0
 23 26  1  0  0  0  0
M  END
> <VConfSearch Rank>
318

> <Conf_Id>
124

> <Delta U+W>
3.001

> <U+W>
-27.298

> <U>
26.787

> <W>
-54.085

> <W(PB)>
-56.347

> <W(SA)>
2.262

> <Valence>
5.742

> <Coulomb>
20.023

> <VdW>
1.022

> <VdW6>
-8.392

> <VdW12>
9.414

> <Bond>
0.261

> <Angle>
1.576

> <Pdih>
3.904

> <Idih>
0.000

> <Tether>
0.000

$$$$
VeraChem MOL file


 26 25  0  0  0  0  0  0  0  0999 V2000     
   22.2530   20.3255   21.2260 C   0  0  0  0  0  0  0  0  0  0  0  0
   22.6385   21.2910   21.5784 H   0  0  0  0  0  0  0  0  0  0  0  0
   22.8023   20.0613   20.3132 H   0  0  0  0  0  0  0  0  0  0  0  0
   21.2013   20.4621   20.9519 H   0  0  0  0  0  0  0  0  0  0  0  0
   22.4377   19.2314   22.3034 C   0  0  0  0  0  0  0  0  0  0  0  0
   23.5141   19.1314   22.5019 H   0  0  0  0  0  0  0  0  0  0  0  0
   22.1102   18.2560   21.9176 H   0  0  0  0  0  0  0  0  0  0  0  0
   21.7182   19.5526   23.6388 C   0  0  0  0  0  0  0  0  0  0  0  0
   22.3392   19.1705   24.4609 H   0  0  0  0  0  0  0  0  0  0  0  0
   21.6645   20.6395   23.7903 H   0  0  0  0  0  0  0  0  0  0  0  0
   20.3095   18.9221   23.7882 C   0  0  0  0  0  0  0  0  0  0  0  0
   19.9435   19.1492   24.7979 H   0  0  0  0  0  0  0  0  0  0  0  0
   20.4013   17.8292   23.7330 H   0  0  0  0  0  0  0  0  0  0  0  0
   19.2781   19.4163   22.7395 C   0  0  0  0  0  0  0  0  0  0  0  0
   19.3010   20.5130   22.6964 H   0  0  0  0  0  0  0  0  0  0  0  0
   19.5736   19.0609   21.7447 H   0  0  0  0  0  0  0  0  0  0  0  0
   17.8212   18.9647   22.9981 C   0  0  1  0  0  0  0  0  0  0  0  0
   17.2060   19.3744   22.1909 H   0  0  0  0  0  0  0  0  0  0  0  0
   17.6766   17.4333   22.9627 C   0  0  0  0  0  0  0  0  0  0  0  0
   18.1968   16.9578   23.8027 H   0  0  0  0  0  0  0  0  0  0  0  0
   18.0843   17.0247   22.0297 H   0  0  0  0  0  0  0  0  0  0  0  0
   16.6193   17.1462   23.0173 H   0  0  0  0  0  0  0  0  0  0  0  0
   17.2612   19.5300   24.2746 N   0  3  0  0  0  0  0  0  0  0  0  0
   16.2774   19.2739   24.3972 H   0  0  0  0  0  0  0  0  0  0  0  0
   17.7718   19.1841   25.0905 H   0  0  0  0  0  0  0  0  0  0  0  0
   17.3147   20.5525   24.2879 H   0  0  0  0  0  0  0  0  0  0  0  0
  1  2  1  0  0  0  0
  1  3  1  0  0  0  0
  1  4  1  0  0  0  0
  1  5  1  0  0  0  0
  5  6  1  0  0  0  0
  5  7  1  0  0  0  0
  5  8  1  0  0  0  0
  8  9  1  0  0  0  0
  8 10  1  0  0  0  0
  8 11  1  0  0  0  0
 11 12  1  0  0  0  0
 11 13  1  0  0  0  0
 11 14  1  0  0  0  0
 14 15  1  0  0  0  0
 14 16  1  0  0  0  0
 14 17  1  0  0  0  0
 17 18  1  0  0  0  0
 17 19  1  0  0  0  0
 19 20  1  0  0  0  0
 19 21  1  0  0  0  0
 19 22  1  0  0  0  0
 17 23  1  0  0  0  0
 23 24  1  0  0  0  0
 23 25  1  0  0  0  0
 23 26  1  0  0  0  0
M  END
> <VConfSearch Rank>
319

> <Conf_Id>
105

> <Delta U+W>
3.442

> <U+W>
-26.857

> <U>
27.313

> <W>
-54.169

> <W(PB)>
-56.414

> <W(SA)>
2.245

> <Valence>
6.229

> <Coulomb>
19.943

> <VdW>
1.140

> <VdW6>
-9.001

> <VdW12>
10.140

> <Bond>
0.294

> <Angle>
1.969

> <Pdih>
3.967

> <Idih>
0.000

> <Tether>
0.000

$$$$
VeraChem MOL file


 26 25  0  0  0  0  0  0  0  0999 V2000     
   18.5581   21.7467   23.9481 C   0  0  0  0  0  0  0  0  0  0  0  0
   19.1709   22.6488   23.8222 H   0  0  0  0  0  0  0  0  0  0  0  0
   17.6797   22.0224   24.5459 H   0  0  0  0  0  0  0  0  0  0  0  0
   19.1394   21.0223   24.5287 H   0  0  0  0  0  0  0  0  0  0  0  0
   18.1217   21.1802   22.5767 C   0  0  0  0  0  0  0  0  0  0  0  0
   17.5177   21.9470   22.0716 H   0  0  0  0  0  0  0  0  0  0  0  0
   17.4579   20.3154   22.7143 H   0  0  0  0  0  0  0  0  0  0  0  0
   19.3117   20.8056   21.6560 C   0  0  0  0  0  0  0  0  0  0  0  0
   19.0208   21.0208   20.6184 H   0  0  0  0  0  0  0  0  0  0  0  0
   20.1720   21.4570   21.8624 H   0  0  0  0  0  0  0  0  0  0  0  0
   19.7407   19.3169   21.7194 C   0  0  0  0  0  0  0  0  0  0  0  0
   20.5333   19.1561   20.9754 H   0  0  0  0  0  0  0  0  0  0  0  0
   18.8956   18.6875   21.4101 H   0  0  0  0  0  0  0  0  0  0  0  0
   20.2553   18.8614   23.1072 C   0  0  0  0  0  0  0  0  0  0  0  0
   20.9980   19.5855   23.4675 H   0  0  0  0  0  0  0  0  0  0  0  0
   19.4294   18.8617   23.8294 H   0  0  0  0  0  0  0  0  0  0  0  0
   20.9000   17.4590   23.0766 C   0  0  1  0  0  0  0  0  0  0  0  0
   21.7094   17.4698   22.3401 H   0  0  0  0  0  0  0  0  0  0  0  0
   21.5014   17.1172   24.4493 C   0  0  0  0  0  0  0  0  0  0  0  0
   20.7274   17.0908   25.2266 H   0  0  0  0  0  0  0  0  0  0  0  0
   22.2536   17.8606   24.7413 H   0  0  0  0  0  0  0  0  0  0  0  0
   21.9943   16.1375   24.4242 H   0  0  0  0  0  0  0  0  0  0  0  0
   19.9336   16.3911   22.6420 N   0  3  0  0  0  0  0  0  0  0  0  0
   19.5571   16.5847   21.7102 H   0  0  0  0  0  0  0  0  0  0  0  0
   20.3832   15.4719   22.6055 H   0  0  0  0  0  0  0  0  0  0  0  0
   19.1416   16.3195   23.2861 H   0  0  0  0  0  0  0  0  0  0  0  0
  1  2  1  0  0  0  0
  1  3  1  0  0  0  0
  1  4  1  0  0  0  0
  1  5  1  0  0  0  0
  5  6  1  0  0  0  0
  5  7  1  0  0  0  0
  5  8  1  0  0  0  0
  8  9  1  0  0  0  0
  8 10  1  0  0  0  0
  8 11  1  0  0  0  0
 11 12  1  0  0  0  0
 11 13  1  0  0  0  0
 11 14  1  0  0  0  0
 14 15  1  0  0  0  0
 14 16  1  0  0  0  0
 14 17  1  0  0  0  0
 17 18  1  0  0  0  0
 17 19  1  0  0  0  0
 19 20  1  0  0  0  0
 19 21  1  0  0  0  0
 19 22  1  0  0  0  0
 17 23  1  0  0  0  0
 23 24  1  0  0  0  0
 23 25  1  0  0  0  0
 23 26  1  0  0  0  0
M  END
> <VConfSearch Rank>
320

> <Conf_Id>
107

> <Delta U+W>
2.995

> <U+W>
-27.304

> <U>
26.796

> <W>
-54.100

> <W(PB)>
-56.404

> <W(SA)>
2.304

> <Valence>
5.706

> <Coulomb>
20.107

> <VdW>
0.982

> <VdW6>
-8.396

> <VdW12>
9.378

> <Bond>
0.254

> <Angle>
1.644

> <Pdih>
3.808

> <Idih>
0.000

> <Tether>
0.000

$$$$
VeraChem MOL file


 26 25  0  0  0  0  0  0  0  0999 V2000     
   21.0069   20.4622   26.7414 C   0  0  0  0  0  0  0  0  0  0  0  0
   21.1348   21.5226   26.4872 H   0  0  0  0  0  0  0  0  0  0  0  0
   20.6379   20.4054   27.7737 H   0  0  0  0  0  0  0  0  0  0  0  0
   21.9934   19.9815   26.7092 H   0  0  0  0  0  0  0  0  0  0  0  0
   20.0225   19.7741   25.7720 C   0  0  0  0  0  0  0  0  0  0  0  0
   19.0371   20.2544   25.8515 H   0  0  0  0  0  0  0  0  0  0  0  0
   19.8892   18.7252   26.0719 H   0  0  0  0  0  0  0  0  0  0  0  0
   20.5187   19.8401   24.3106 C   0  0  0  0  0  0  0  0  0  0  0  0
   20.6536   20.8904   24.0173 H   0  0  0  0  0  0  0  0  0  0  0  0
   21.5045   19.3604   24.2366 H   0  0  0  0  0  0  0  0  0  0  0  0
   19.5351   19.1527   23.3366 C   0  0  0  0  0  0  0  0  0  0  0  0
   18.5506   19.6356   23.4091 H   0  0  0  0  0  0  0  0  0  0  0  0
   19.4009   18.1060   23.6405 H   0  0  0  0  0  0  0  0  0  0  0  0
   20.0358   19.2192   21.8731 C   0  0  0  0  0  0  0  0  0  0  0  0
   20.2158   20.2695   21.6072 H   0  0  0  0  0  0  0  0  0  0  0  0
   21.0018   18.7042   21.7872 H   0  0  0  0  0  0  0  0  0  0  0  0
   19.0338   18.6157   20.8651 C   0  0  1  0  0  0  0  0  0  0  0  0
   18.0745   19.1282   20.9866 H   0  0  0  0  0  0  0  0  0  0  0  0
   19.5224   18.8419   19.4254 C   0  0  0  0  0  0  0  0  0  0  0  0
   20.4846   18.3445   19.2498 H   0  0  0  0  0  0  0  0  0  0  0  0
   19.6487   19.9122   19.2200 H   0  0  0  0  0  0  0  0  0  0  0  0
   18.7972   18.4481   18.7027 H   0  0  0  0  0  0  0  0  0  0  0  0
   18.7780   17.1537   21.1116 N   0  3  0  0  0  0  0  0  0  0  0  0
   19.6359   16.6036   21.0182 H   0  0  0  0  0  0  0  0  0  0  0  0
   18.4084   16.9918   22.0521 H   0  0  0  0  0  0  0  0  0  0  0  0
   18.0976   16.7756   20.4464 H   0  0  0  0  0  0  0  0  0  0  0  0
  1  2  1  0  0  0  0
  1  3  1  0  0  0  0
  1  4  1  0  0  0  0
  1  5  1  0  0  0  0
  5  6  1  0  0  0  0
  5  7  1  0  0  0  0
  5  8  1  0  0  0  0
  8  9  1  0  0  0  0
  8 10  1  0  0  0  0
  8 11  1  0  0  0  0
 11 12  1  0  0  0  0
 11 13  1  0  0  0  0
 11 14  1  0  0  0  0
 14 15  1  0  0  0  0
 14 16  1  0  0  0  0
 14 17  1  0  0  0  0
 17 18  1  0  0  0  0
 17 19  1  0  0  0  0
 19 20  1  0  0  0  0
 19 21  1  0  0  0  0
 19 22  1  0  0  0  0
 17 23  1  0  0  0  0
 23 24  1  0  0  0  0
 23 25  1  0  0  0  0
 23 26  1  0  0  0  0
M  END
> <VConfSearch Rank>
321

> <Conf_Id>
122

> <Delta U+W>
0.000

> <U+W>
-30.299

> <U>
23.517

> <W>
-53.816

> <W(PB)>
-56.162

> <W(SA)>
2.346

> <Valence>
2.737

> <Coulomb>
19.862

> <VdW>
0.919

> <VdW6>
-6.793

> <VdW12>
7.712

> <Bond>
0.171

> <Angle>
0.873

> <Pdih>
1.693

> <Idih>
0.000

> <Tether>
0.000

$$$$
VeraChem MOL file


 26 25  0  0  0  0  0  0  0  0999 V2000     
   16.0270   17.4788   22.2157 C   0  0  0  0  0  0  0  0  0  0  0  0
   15.2052   17.0401   22.7965 H   0  0  0  0  0  0  0  0  0  0  0  0
   15.6183   18.3130   21.6306 H   0  0  0  0  0  0  0  0  0  0  0  0
   16.3896   16.7152   21.5152 H   0  0  0  0  0  0  0  0  0  0  0  0
   17.1590   17.9577   23.1491 C   0  0  0  0  0  0  0  0  0  0  0  0
   17.5237   17.1091   23.7447 H   0  0  0  0  0  0  0  0  0  0  0  0
   16.7585   18.6947   23.8593 H   0  0  0  0  0  0  0  0  0  0  0  0
   18.3295   18.5801   22.3560 C   0  0  0  0  0  0  0  0  0  0  0  0
   18.7253   17.8404   21.6463 H   0  0  0  0  0  0  0  0  0  0  0  0
   17.9586   19.4255   21.7601 H   0  0  0  0  0  0  0  0  0  0  0  0
   19.4652   19.0614   23.2875 C   0  0  0  0  0  0  0  0  0  0  0  0
   19.8220   18.2113   23.8836 H   0  0  0  0  0  0  0  0  0  0  0  0
   19.0697   19.8046   23.9938 H   0  0  0  0  0  0  0  0  0  0  0  0
   20.6389   19.6807   22.4893 C   0  0  0  0  0  0  0  0  0  0  0  0
   21.0792   18.9216   21.8291 H   0  0  0  0  0  0  0  0  0  0  0  0
   20.2400   20.4677   21.8358 H   0  0  0  0  0  0  0  0  0  0  0  0
   21.7415   20.2977   23.3801 C   0  0  1  0  0  0  0  0  0  0  0  0
   21.2724   21.0190   24.0564 H   0  0  0  0  0  0  0  0  0  0  0  0
   22.4659   19.2357   24.2269 C   0  0  0  0  0  0  0  0  0  0  0  0
   22.9004   18.4520   23.5939 H   0  0  0  0  0  0  0  0  0  0  0  0
   21.7836   18.7617   24.9418 H   0  0  0  0  0  0  0  0  0  0  0  0
   23.2769   19.6921   24.8075 H   0  0  0  0  0  0  0  0  0  0  0  0
   22.7335   21.0718   22.5570 N   0  3  0  0  0  0  0  0  0  0  0  0
   23.2234   20.4659   21.8934 H   0  0  0  0  0  0  0  0  0  0  0  0
   22.2789   21.8143   22.0178 H   0  0  0  0  0  0  0  0  0  0  0  0
   23.4434   21.5156   23.1465 H   0  0  0  0  0  0  0  0  0  0  0  0
  1  2  1  0  0  0  0
  1  3  1  0  0  0  0
  1  4  1  0  0  0  0
  1  5  1  0  0  0  0
  5  6  1  0  0  0  0
  5  7  1  0  0  0  0
  5  8  1  0  0  0  0
  8  9  1  0  0  0  0
  8 10  1  0  0  0  0
  8 11  1  0  0  0  0
 11 12  1  0  0  0  0
 11 13  1  0  0  0  0
 11 14  1  0  0  0  0
 14 15  1  0  0  0  0
 14 16  1  0  0  0  0
 14 17  1  0  0  0  0
 17 18  1  0  0  0  0
 17 19  1  0  0  0  0
 19 20  1  0  0  0  0
 19 21  1  0  0  0  0
 19 22  1  0  0  0  0
 17 23  1  0  0  0  0
 23 24  1  0  0  0  0
 23 25  1  0  0  0  0
 23 26  1  0  0  0  0
M  END
> <VConfSearch Rank>
322

> <Conf_Id>
54

> <Delta U+W>
0.453

> <U+W>
-29.845

> <U>
23.817

> <W>
-53.663

> <W(PB)>
-56.021

> <W(SA)>
2.358

> <Valence>
3.277

> <Coulomb>
19.492

> <VdW>
1.049

> <VdW6>
-6.949

> <VdW12>
7.998

> <Bond>
0.183

> <Angle>
1.152

> <Pdih>
1.942

> <Idih>
0.000

> <Tether>
0.000

$$$$
VeraChem MOL file


 26 25  0  0  0  0  0  0  0  0999 V2000     
   18.5381   22.3684   24.0002 C   0  0  0  0  0  0  0  0  0  0  0  0
   17.7990   21.8803   24.6487 H   0  0  0  0  0  0  0  0  0  0  0  0
   19.4943   22.4061   24.5360 H   0  0  0  0  0  0  0  0  0  0  0  0
   18.2108   23.4038   23.8397 H   0  0  0  0  0  0  0  0  0  0  0  0
   18.6677   21.6280   22.6494 C   0  0  0  0  0  0  0  0  0  0  0  0
   19.4364   22.1134   22.0319 H   0  0  0  0  0  0  0  0  0  0  0  0
   17.7215   21.7337   22.1004 H   0  0  0  0  0  0  0  0  0  0  0  0
   18.9872   20.1204   22.7971 C   0  0  0  0  0  0  0  0  0  0  0  0
   18.2317   19.6480   23.4401 H   0  0  0  0  0  0  0  0  0  0  0  0
   18.8934   19.6660   21.8037 H   0  0  0  0  0  0  0  0  0  0  0  0
   20.4062   19.8430   23.3545 C   0  0  0  0  0  0  0  0  0  0  0  0
   20.5456   20.4030   24.2877 H   0  0  0  0  0  0  0  0  0  0  0  0
   21.1565   20.2310   22.6518 H   0  0  0  0  0  0  0  0  0  0  0  0
   20.7072   18.3514   23.6586 C   0  0  0  0  0  0  0  0  0  0  0  0
   21.6947   18.3150   24.1380 H   0  0  0  0  0  0  0  0  0  0  0  0
   19.9994   17.9668   24.4047 H   0  0  0  0  0  0  0  0  0  0  0  0
   20.7247   17.4240   22.4201 C   0  0  1  0  0  0  0  0  0  0  0  0
   21.1783   17.9690   21.5866 H   0  0  0  0  0  0  0  0  0  0  0  0
   21.5768   16.1744   22.6981 C   0  0  0  0  0  0  0  0  0  0  0  0
   21.6055   15.5198   21.8183 H   0  0  0  0  0  0  0  0  0  0  0  0
   21.1733   15.5982   23.5403 H   0  0  0  0  0  0  0  0  0  0  0  0
   22.6110   16.4516   22.9375 H   0  0  0  0  0  0  0  0  0  0  0  0
   19.3463   17.0084   21.9827 N   0  3  0  0  0  0  0  0  0  0  0  0
   18.7561   17.8185   21.7814 H   0  0  0  0  0  0  0  0  0  0  0  0
   19.3804   16.4331   21.1363 H   0  0  0  0  0  0  0  0  0  0  0  0
   18.8770   16.4583   22.7069 H   0  0  0  0  0  0  0  0  0  0  0  0
  1  2  1  0  0  0  0
  1  3  1  0  0  0  0
  1  4  1  0  0  0  0
  1  5  1  0  0  0  0
  5  6  1  0  0  0  0
  5  7  1  0  0  0  0
  5  8  1  0  0  0  0
  8  9  1  0  0  0  0
  8 10  1  0  0  0  0
  8 11  1  0  0  0  0
 11 12  1  0  0  0  0
 11 13  1  0  0  0  0
 11 14  1  0  0  0  0
 14 15  1  0  0  0  0
 14 16  1  0  0  0  0
 14 17  1  0  0  0  0
 17 18  1  0  0  0  0
 17 19  1  0  0  0  0
 19 20  1  0  0  0  0
 19 21  1  0  0  0  0
 19 22  1  0  0  0  0
 17 23  1  0  0  0  0
 23 24  1  0  0  0  0
 23 25  1  0  0  0  0
 23 26  1  0  0  0  0
M  END
> <VConfSearch Rank>
323

> <Conf_Id>
110

> <Delta U+W>
3.764

> <U+W>
-26.535

> <U>
27.400

> <W>
-53.935

> <W(PB)>
-56.238

> <W(SA)>
2.303

> <Valence>
5.205

> <Coulomb>
21.096

> <VdW>
1.098

> <VdW6>
-8.389

> <VdW12>
9.488

> <Bond>
0.270

> <Angle>
1.912

> <Pdih>
3.023

> <Idih>
0.000

> <Tether>
0.000

$$$$
VeraChem MOL file


 26 25  0  0  0  0  0  0  0  0999 V2000     
   23.4648   18.9680   23.4353 C   0  0  0  0  0  0  0  0  0  0  0  0
   24.3506   18.3783   23.7048 H   0  0  0  0  0  0  0  0  0  0  0  0
   23.3596   18.9245   22.3441 H   0  0  0  0  0  0  0  0  0  0  0  0
   23.6554   20.0103   23.7219 H   0  0  0  0  0  0  0  0  0  0  0  0
   22.2100   18.4158   24.1490 C   0  0  0  0  0  0  0  0  0  0  0  0
   22.4099   18.3659   25.2285 H   0  0  0  0  0  0  0  0  0  0  0  0
   22.0241   17.3830   23.8228 H   0  0  0  0  0  0  0  0  0  0  0  0
   20.9423   19.2732   23.9178 C   0  0  0  0  0  0  0  0  0  0  0  0
   20.1377   18.8756   24.5479 H   0  0  0  0  0  0  0  0  0  0  0  0
   21.1256   20.2972   24.2713 H   0  0  0  0  0  0  0  0  0  0  0  0
   20.4874   19.3115   22.4360 C   0  0  0  0  0  0  0  0  0  0  0  0
   20.4303   18.2942   22.0246 H   0  0  0  0  0  0  0  0  0  0  0  0
   21.2550   19.8336   21.8496 H   0  0  0  0  0  0  0  0  0  0  0  0
   19.1371   20.0472   22.2272 C   0  0  0  0  0  0  0  0  0  0  0  0
   18.9825   20.7924   23.0189 H   0  0  0  0  0  0  0  0  0  0  0  0
   19.2072   20.6167   21.2910 H   0  0  0  0  0  0  0  0  0  0  0  0
   17.9027   19.1199   22.1161 C   0  0  1  0  0  0  0  0  0  0  0  0
   18.0747   18.4232   21.2898 H   0  0  0  0  0  0  0  0  0  0  0  0
   17.6561   18.2975   23.3922 C   0  0  0  0  0  0  0  0  0  0  0  0
   17.5598   18.9467   24.2713 H   0  0  0  0  0  0  0  0  0  0  0  0
   18.4744   17.5898   23.5686 H   0  0  0  0  0  0  0  0  0  0  0  0
   16.7350   17.7089   23.3011 H   0  0  0  0  0  0  0  0  0  0  0  0
   16.6705   19.9033   21.7570 N   0  3  0  0  0  0  0  0  0  0  0  0
   16.7941   20.4215   20.8825 H   0  0  0  0  0  0  0  0  0  0  0  0
   15.8597   19.2900   21.6349 H   0  0  0  0  0  0  0  0  0  0  0  0
   16.4329   20.5818   22.4855 H   0  0  0  0  0  0  0  0  0  0  0  0
  1  2  1  0  0  0  0
  1  3  1  0  0  0  0
  1  4  1  0  0  0  0
  1  5  1  0  0  0  0
  5  6  1  0  0  0  0
  5  7  1  0  0  0  0
  5  8  1  0  0  0  0
  8  9  1  0  0  0  0
  8 10  1  0  0  0  0
  8 11  1  0  0  0  0
 11 12  1  0  0  0  0
 11 13  1  0  0  0  0
 11 14  1  0  0  0  0
 14 15  1  0  0  0  0
 14 16  1  0  0  0  0
 14 17  1  0  0  0  0
 17 18  1  0  0  0  0
 17 19  1  0  0  0  0
 19 20  1  0  0  0  0
 19 21  1  0  0  0  0
 19 22  1  0  0  0  0
 17 23  1  0  0  0  0
 23 24  1  0  0  0  0
 23 25  1  0  0  0  0
 23 26  1  0  0  0  0
M  END
> <VConfSearch Rank>
324

> <Conf_Id>
34

> <Delta U+W>
3.568

> <U+W>
-26.731

> <U>
27.221

> <W>
-53.952

> <W(PB)>
-56.213

> <W(SA)>
2.261

> <Valence>
6.368

> <Coulomb>
19.698

> <VdW>
1.155

> <VdW6>
-8.532

> <VdW12>
9.687

> <Bond>
0.272

> <Angle>
1.847

> <Pdih>
4.248

> <Idih>
0.000

> <Tether>
0.000

$$$$
VeraChem MOL file


 26 25  0  0  0  0  0  0  0  0999 V2000     
   23.5182   20.2842   24.2237 C   0  0  0  0  0  0  0  0  0  0  0  0
   23.2290   21.2355   24.6891 H   0  0  0  0  0  0  0  0  0  0  0  0
   23.6494   19.5399   25.0199 H   0  0  0  0  0  0  0  0  0  0  0  0
   24.4904   20.4299   23.7351 H   0  0  0  0  0  0  0  0  0  0  0  0
   22.4584   19.8219   23.2013 C   0  0  0  0  0  0  0  0  0  0  0  0
   22.7913   18.8872   22.7287 H   0  0  0  0  0  0  0  0  0  0  0  0
   22.3742   20.5698   22.4004 H   0  0  0  0  0  0  0  0  0  0  0  0
   21.0791   19.6093   23.8638 C   0  0  0  0  0  0  0  0  0  0  0  0
   21.1695   18.8629   24.6652 H   0  0  0  0  0  0  0  0  0  0  0  0
   20.7522   20.5455   24.3370 H   0  0  0  0  0  0  0  0  0  0  0  0
   20.0147   19.1465   22.8432 C   0  0  0  0  0  0  0  0  0  0  0  0
   20.3488   18.2121   22.3734 H   0  0  0  0  0  0  0  0  0  0  0  0
   19.9357   19.8962   22.0450 H   0  0  0  0  0  0  0  0  0  0  0  0
   18.6320   18.9378   23.5142 C   0  0  0  0  0  0  0  0  0  0  0  0
   18.7369   18.2235   24.3414 H   0  0  0  0  0  0  0  0  0  0  0  0
   18.3038   19.8813   23.9702 H   0  0  0  0  0  0  0  0  0  0  0  0
   17.5183   18.4295   22.5683 C   0  0  1  0  0  0  0  0  0  0  0  0
   16.6146   18.2983   23.1717 H   0  0  0  0  0  0  0  0  0  0  0  0
   17.1928   19.4450   21.4590 C   0  0  0  0  0  0  0  0  0  0  0  0
   18.0246   19.5560   20.7534 H   0  0  0  0  0  0  0  0  0  0  0  0
   16.9695   20.4306   21.8859 H   0  0  0  0  0  0  0  0  0  0  0  0
   16.3123   19.1221   20.8901 H   0  0  0  0  0  0  0  0  0  0  0  0
   17.8307   17.0779   21.9870 N   0  3  0  0  0  0  0  0  0  0  0  0
   17.0567   16.7288   21.4147 H   0  0  0  0  0  0  0  0  0  0  0  0
   18.6614   17.1124   21.3912 H   0  0  0  0  0  0  0  0  0  0  0  0
   18.0052   16.3849   22.7203 H   0  0  0  0  0  0  0  0  0  0  0  0
  1  2  1  0  0  0  0
  1  3  1  0  0  0  0
  1  4  1  0  0  0  0
  1  5  1  0  0  0  0
  5  6  1  0  0  0  0
  5  7  1  0  0  0  0
  5  8  1  0  0  0  0
  8  9  1  0  0  0  0
  8 10  1  0  0  0  0
  8 11  1  0  0  0  0
 11 12  1  0  0  0  0
 11 13  1  0  0  0  0
 11 14  1  0  0  0  0
 14 15  1  0  0  0  0
 14 16  1  0  0  0  0
 14 17  1  0  0  0  0
 17 18  1  0  0  0  0
 17 19  1  0  0  0  0
 19 20  1  0  0  0  0
 19 21  1  0  0  0  0
 19 22  1  0  0  0  0
 17 23  1  0  0  0  0
 23 24  1  0  0  0  0
 23 25  1  0  0  0  0
 23 26  1  0  0  0  0
M  END
> <VConfSearch Rank>
325

> <Conf_Id>
132

> <Delta U+W>
0.363

> <U+W>
-29.936

> <U>
24.060

> <W>
-53.996

> <W(PB)>
-56.327

> <W(SA)>
2.332

> <Valence>
3.249

> <Coulomb>
19.781

> <VdW>
1.030

> <VdW6>
-7.421

> <VdW12>
8.451

> <Bond>
0.207

> <Angle>
1.205

> <Pdih>
1.837

> <Idih>
0.000

> <Tether>
0.000

$$$$
VeraChem MOL file


 26 25  0  0  0  0  0  0  0  0999 V2000     
   18.2905   16.3479   20.6343 C   0  0  0  0  0  0  0  0  0  0  0  0
   17.2181   16.2444   20.4238 H   0  0  0  0  0  0  0  0  0  0  0  0
   18.8216   16.3685   19.6737 H   0  0  0  0  0  0  0  0  0  0  0  0
   18.6136   15.4546   21.1847 H   0  0  0  0  0  0  0  0  0  0  0  0
   18.5648   17.6301   21.4485 C   0  0  0  0  0  0  0  0  0  0  0  0
   17.9849   17.5901   22.3799 H   0  0  0  0  0  0  0  0  0  0  0  0
   18.2048   18.5026   20.8855 H   0  0  0  0  0  0  0  0  0  0  0  0
   20.0710   17.7949   21.7614 C   0  0  0  0  0  0  0  0  0  0  0  0
   20.4177   16.9493   22.3713 H   0  0  0  0  0  0  0  0  0  0  0  0
   20.6366   17.7475   20.8205 H   0  0  0  0  0  0  0  0  0  0  0  0
   20.4167   19.1260   22.4734 C   0  0  0  0  0  0  0  0  0  0  0  0
   20.0734   19.9657   21.8547 H   0  0  0  0  0  0  0  0  0  0  0  0
   21.5101   19.2057   22.5256 H   0  0  0  0  0  0  0  0  0  0  0  0
   19.8185   19.2340   23.9029 C   0  0  0  0  0  0  0  0  0  0  0  0
   18.7242   19.1864   23.8486 H   0  0  0  0  0  0  0  0  0  0  0  0
   20.1309   18.3636   24.4947 H   0  0  0  0  0  0  0  0  0  0  0  0
   20.1994   20.5214   24.6721 C   0  0  1  0  0  0  0  0  0  0  0  0
   19.6713   20.4943   25.6303 H   0  0  0  0  0  0  0  0  0  0  0  0
   21.7062   20.5927   24.9764 C   0  0  0  0  0  0  0  0  0  0  0  0
   22.2998   20.7262   24.0644 H   0  0  0  0  0  0  0  0  0  0  0  0
   22.0466   19.6785   25.4783 H   0  0  0  0  0  0  0  0  0  0  0  0
   21.9226   21.4371   25.6421 H   0  0  0  0  0  0  0  0  0  0  0  0
   19.7306   21.7679   23.9731 N   0  3  0  0  0  0  0  0  0  0  0  0
   18.7202   21.7490   23.8087 H   0  0  0  0  0  0  0  0  0  0  0  0
   19.9350   22.6057   24.5251 H   0  0  0  0  0  0  0  0  0  0  0  0
   20.1888   21.8792   23.0654 H   0  0  0  0  0  0  0  0  0  0  0  0
  1  2  1  0  0  0  0
  1  3  1  0  0  0  0
  1  4  1  0  0  0  0
  1  5  1  0  0  0  0
  5  6  1  0  0  0  0
  5  7  1  0  0  0  0
  5  8  1  0  0  0  0
  8  9  1  0  0  0  0
  8 10  1  0  0  0  0
  8 11  1  0  0  0  0
 11 12  1  0  0  0  0
 11 13  1  0  0  0  0
 11 14  1  0  0  0  0
 14 15  1  0  0  0  0
 14 16  1  0  0  0  0
 14 17  1  0  0  0  0
 17 18  1  0  0  0  0
 17 19  1  0  0  0  0
 19 20  1  0  0  0  0
 19 21  1  0  0  0  0
 19 22  1  0  0  0  0
 17 23  1  0  0  0  0
 23 24  1  0  0  0  0
 23 25  1  0  0  0  0
 23 26  1  0  0  0  0
M  END
> <VConfSearch Rank>
326

> <Conf_Id>
46

> <Delta U+W>
1.114

> <U+W>
-29.185

> <U>
24.990

> <W>
-54.175

> <W(PB)>
-56.455

> <W(SA)>
2.279

> <Valence>
3.862

> <Coulomb>
19.956

> <VdW>
1.172

> <VdW6>
-8.054

> <VdW12>
9.226

> <Bond>
0.258

> <Angle>
1.499

> <Pdih>
2.106

> <Idih>
0.000

> <Tether>
0.000

$$$$
VeraChem MOL file


 26 25  0  0  0  0  0  0  0  0999 V2000     
   23.3689   19.1426   21.9393 C   0  0  0  0  0  0  0  0  0  0  0  0
   23.4745   19.0300   23.0253 H   0  0  0  0  0  0  0  0  0  0  0  0
   23.3655   18.1421   21.4877 H   0  0  0  0  0  0  0  0  0  0  0  0
   24.2591   19.6718   21.5754 H   0  0  0  0  0  0  0  0  0  0  0  0
   22.0874   19.9238   21.5699 C   0  0  0  0  0  0  0  0  0  0  0  0
   22.0938   20.1205   20.4887 H   0  0  0  0  0  0  0  0  0  0  0  0
   22.0991   20.9070   22.0608 H   0  0  0  0  0  0  0  0  0  0  0  0
   20.7818   19.1739   21.9291 C   0  0  0  0  0  0  0  0  0  0  0  0
   19.9388   19.7422   21.5148 H   0  0  0  0  0  0  0  0  0  0  0  0
   20.7717   18.1962   21.4279 H   0  0  0  0  0  0  0  0  0  0  0  0
   20.5813   18.9814   23.4539 C   0  0  0  0  0  0  0  0  0  0  0  0
   20.6199   19.9548   23.9604 H   0  0  0  0  0  0  0  0  0  0  0  0
   21.4144   18.3939   23.8611 H   0  0  0  0  0  0  0  0  0  0  0  0
   19.2615   18.2491   23.8091 C   0  0  0  0  0  0  0  0  0  0  0  0
   19.2851   17.2446   23.3659 H   0  0  0  0  0  0  0  0  0  0  0  0
   19.2164   18.1027   24.8965 H   0  0  0  0  0  0  0  0  0  0  0  0
   17.9814   18.9765   23.3397 C   0  0  1  0  0  0  0  0  0  0  0  0
   18.0285   19.0920   22.2530 H   0  0  0  0  0  0  0  0  0  0  0  0
   16.7370   18.1401   23.6774 C   0  0  0  0  0  0  0  0  0  0  0  0
   15.8274   18.6321   23.3113 H   0  0  0  0  0  0  0  0  0  0  0  0
   16.6360   17.9975   24.7606 H   0  0  0  0  0  0  0  0  0  0  0  0
   16.7929   17.1509   23.2063 H   0  0  0  0  0  0  0  0  0  0  0  0
   17.8628   20.3602   23.9175 N   0  3  0  0  0  0  0  0  0  0  0  0
   18.6691   20.9382   23.6657 H   0  0  0  0  0  0  0  0  0  0  0  0
   17.0235   20.8380   23.5774 H   0  0  0  0  0  0  0  0  0  0  0  0
   17.8083   20.3344   24.9391 H   0  0  0  0  0  0  0  0  0  0  0  0
  1  2  1  0  0  0  0
  1  3  1  0  0  0  0
  1  4  1  0  0  0  0
  1  5  1  0  0  0  0
  5  6  1  0  0  0  0
  5  7  1  0  0  0  0
  5  8  1  0  0  0  0
  8  9  1  0  0  0  0
  8 10  1  0  0  0  0
  8 11  1  0  0  0  0
 11 12  1  0  0  0  0
 11 13  1  0  0  0  0
 11 14  1  0  0  0  0
 14 15  1  0  0  0  0
 14 16  1  0  0  0  0
 14 17  1  0  0  0  0
 17 18  1  0  0  0  0
 17 19  1  0  0  0  0
 19 20  1  0  0  0  0
 19 21  1  0  0  0  0
 19 22  1  0  0  0  0
 17 23  1  0  0  0  0
 23 24  1  0  0  0  0
 23 25  1  0  0  0  0
 23 26  1  0  0  0  0
M  END
> <VConfSearch Rank>
327

> <Conf_Id>
113

> <Delta U+W>
1.137

> <U+W>
-29.162

> <U>
24.833

> <W>
-53.995

> <W(PB)>
-56.288

> <W(SA)>
2.294

> <Valence>
3.589

> <Coulomb>
20.270

> <VdW>
0.974

> <VdW6>
-8.255

> <VdW12>
9.229

> <Bond>
0.244

> <Angle>
1.377

> <Pdih>
1.967

> <Idih>
0.000

> <Tether>
0.000

$$$$
VeraChem MOL file


 26 25  0  0  0  0  0  0  0  0999 V2000     
   18.8552   17.5210   26.3897 C   0  0  0  0  0  0  0  0  0  0  0  0
   18.6100   18.0882   27.2971 H   0  0  0  0  0  0  0  0  0  0  0  0
   17.9549   16.9744   26.0802 H   0  0  0  0  0  0  0  0  0  0  0  0
   19.6284   16.7866   26.6505 H   0  0  0  0  0  0  0  0  0  0  0  0
   19.3418   18.4665   25.2710 C   0  0  0  0  0  0  0  0  0  0  0  0
   20.2246   19.0199   25.6204 H   0  0  0  0  0  0  0  0  0  0  0  0
   18.5594   19.2095   25.0680 H   0  0  0  0  0  0  0  0  0  0  0  0
   19.6896   17.6894   23.9793 C   0  0  0  0  0  0  0  0  0  0  0  0
   20.4133   16.8992   24.2227 H   0  0  0  0  0  0  0  0  0  0  0  0
   18.7930   17.1793   23.6010 H   0  0  0  0  0  0  0  0  0  0  0  0
   20.2916   18.5786   22.8635 C   0  0  0  0  0  0  0  0  0  0  0  0
   20.6144   17.9245   22.0430 H   0  0  0  0  0  0  0  0  0  0  0  0
   21.1974   19.0680   23.2451 H   0  0  0  0  0  0  0  0  0  0  0  0
   19.2977   19.6414   22.3201 C   0  0  0  0  0  0  0  0  0  0  0  0
   18.3566   19.1484   22.0436 H   0  0  0  0  0  0  0  0  0  0  0  0
   19.0455   20.3528   23.1163 H   0  0  0  0  0  0  0  0  0  0  0  0
   19.8079   20.4430   21.0992 C   0  0  1  0  0  0  0  0  0  0  0  0
   19.0151   21.1421   20.8154 H   0  0  0  0  0  0  0  0  0  0  0  0
   21.0606   21.2711   21.4346 C   0  0  0  0  0  0  0  0  0  0  0  0
   21.9267   20.6308   21.6400 H   0  0  0  0  0  0  0  0  0  0  0  0
   20.8853   21.9050   22.3127 H   0  0  0  0  0  0  0  0  0  0  0  0
   21.3215   21.9288   20.5965 H   0  0  0  0  0  0  0  0  0  0  0  0
   20.0437   19.5717   19.8959 N   0  3  0  0  0  0  0  0  0  0  0  0
   19.2013   19.0489   19.6399 H   0  0  0  0  0  0  0  0  0  0  0  0
   20.3185   20.1266   19.0804 H   0  0  0  0  0  0  0  0  0  0  0  0
   20.7879   18.8918   20.0688 H   0  0  0  0  0  0  0  0  0  0  0  0
  1  2  1  0  0  0  0
  1  3  1  0  0  0  0
  1  4  1  0  0  0  0
  1  5  1  0  0  0  0
  5  6  1  0  0  0  0
  5  7  1  0  0  0  0
  5  8  1  0  0  0  0
  8  9  1  0  0  0  0
  8 10  1  0  0  0  0
  8 11  1  0  0  0  0
 11 12  1  0  0  0  0
 11 13  1  0  0  0  0
 11 14  1  0  0  0  0
 14 15  1  0  0  0  0
 14 16  1  0  0  0  0
 14 17  1  0  0  0  0
 17 18  1  0  0  0  0
 17 19  1  0  0  0  0
 19 20  1  0  0  0  0
 19 21  1  0  0  0  0
 19 22  1  0  0  0  0
 17 23  1  0  0  0  0
 23 24  1  0  0  0  0
 23 25  1  0  0  0  0
 23 26  1  0  0  0  0
M  END
> <VConfSearch Rank>
328

> <Conf_Id>
45

> <Delta U+W>
1.035

> <U+W>
-29.264

> <U>
24.725

> <W>
-53.989

> <W(PB)>
-56.298

> <W(SA)>
2.309

> <Valence>
3.780

> <Coulomb>
19.804

> <VdW>
1.141

> <VdW6>
-8.104

> <VdW12>
9.246

> <Bond>
0.254

> <Angle>
1.437

> <Pdih>
2.089

> <Idih>
0.000

> <Tether>
0.000

$$$$
VeraChem MOL file


 26 25  0  0  0  0  0  0  0  0999 V2000     
   19.3537   23.0689   23.3766 C   0  0  0  0  0  0  0  0  0  0  0  0
   20.0959   23.8081   23.0483 H   0  0  0  0  0  0  0  0  0  0  0  0
   18.3676   23.4057   23.0311 H   0  0  0  0  0  0  0  0  0  0  0  0
   19.3475   23.0621   24.4744 H   0  0  0  0  0  0  0  0  0  0  0  0
   19.6914   21.6712   22.8156 C   0  0  0  0  0  0  0  0  0  0  0  0
   20.6990   21.3892   23.1484 H   0  0  0  0  0  0  0  0  0  0  0  0
   19.7188   21.7167   21.7179 H   0  0  0  0  0  0  0  0  0  0  0  0
   18.6603   20.6108   23.2694 C   0  0  0  0  0  0  0  0  0  0  0  0
   18.6739   20.5254   24.3647 H   0  0  0  0  0  0  0  0  0  0  0  0
   17.6528   20.9573   23.0005 H   0  0  0  0  0  0  0  0  0  0  0  0
   18.8823   19.2148   22.6364 C   0  0  0  0  0  0  0  0  0  0  0  0
   18.8666   19.3017   21.5411 H   0  0  0  0  0  0  0  0  0  0  0  0
   18.0287   18.5802   22.9082 H   0  0  0  0  0  0  0  0  0  0  0  0
   20.1995   18.5326   23.0878 C   0  0  0  0  0  0  0  0  0  0  0  0
   21.0514   19.1579   22.7934 H   0  0  0  0  0  0  0  0  0  0  0  0
   20.2250   18.4615   24.1833 H   0  0  0  0  0  0  0  0  0  0  0  0
   20.3924   17.1292   22.4724 C   0  0  1  0  0  0  0  0  0  0  0  0
   20.3273   17.2204   21.3837 H   0  0  0  0  0  0  0  0  0  0  0  0
   21.7822   16.5766   22.8276 C   0  0  0  0  0  0  0  0  0  0  0  0
   21.8998   16.4654   23.9128 H   0  0  0  0  0  0  0  0  0  0  0  0
   22.5725   17.2457   22.4651 H   0  0  0  0  0  0  0  0  0  0  0  0
   21.9398   15.5948   22.3643 H   0  0  0  0  0  0  0  0  0  0  0  0
   19.3193   16.1615   22.8914 N   0  3  0  0  0  0  0  0  0  0  0  0
   18.3897   16.4920   22.6196 H   0  0  0  0  0  0  0  0  0  0  0  0
   19.4550   15.2428   22.4602 H   0  0  0  0  0  0  0  0  0  0  0  0
   19.3141   16.0259   23.9058 H   0  0  0  0  0  0  0  0  0  0  0  0
  1  2  1  0  0  0  0
  1  3  1  0  0  0  0
  1  4  1  0  0  0  0
  1  5  1  0  0  0  0
  5  6  1  0  0  0  0
  5  7  1  0  0  0  0
  5  8  1  0  0  0  0
  8  9  1  0  0  0  0
  8 10  1  0  0  0  0
  8 11  1  0  0  0  0
 11 12  1  0  0  0  0
 11 13  1  0  0  0  0
 11 14  1  0  0  0  0
 14 15  1  0  0  0  0
 14 16  1  0  0  0  0
 14 17  1  0  0  0  0
 17 18  1  0  0  0  0
 17 19  1  0  0  0  0
 19 20  1  0  0  0  0
 19 21  1  0  0  0  0
 19 22  1  0  0  0  0
 17 23  1  0  0  0  0
 23 24  1  0  0  0  0
 23 25  1  0  0  0  0
 23 26  1  0  0  0  0
M  END
> <VConfSearch Rank>
329

> <Conf_Id>
121

> <Delta U+W>
0.736

> <U+W>
-29.562

> <U>
24.282

> <W>
-53.844

> <W(PB)>
-56.205

> <W(SA)>
2.361

> <Valence>
3.311

> <Coulomb>
19.887

> <VdW>
1.083

> <VdW6>
-7.444

> <VdW12>
8.527

> <Bond>
0.219

> <Angle>
1.167

> <Pdih>
1.926

> <Idih>
0.000

> <Tether>
0.000

$$$$
VeraChem MOL file


 26 25  0  0  0  0  0  0  0  0999 V2000     
   19.5975   22.7322   22.1379 C   0  0  0  0  0  0  0  0  0  0  0  0
   19.8788   23.5952   21.5207 H   0  0  0  0  0  0  0  0  0  0  0  0
   18.5384   22.8417   22.4049 H   0  0  0  0  0  0  0  0  0  0  0  0
   20.1916   22.7791   23.0588 H   0  0  0  0  0  0  0  0  0  0  0  0
   19.8434   21.4145   21.3683 C   0  0  0  0  0  0  0  0  0  0  0  0
   20.9141   21.3118   21.1430 H   0  0  0  0  0  0  0  0  0  0  0  0
   19.3296   21.4716   20.3985 H   0  0  0  0  0  0  0  0  0  0  0  0
   19.3435   20.1573   22.1203 C   0  0  0  0  0  0  0  0  0  0  0  0
   18.2711   20.2615   22.3357 H   0  0  0  0  0  0  0  0  0  0  0  0
   19.4419   19.2968   21.4457 H   0  0  0  0  0  0  0  0  0  0  0  0
   20.1162   19.8772   23.4342 C   0  0  0  0  0  0  0  0  0  0  0  0
   20.0045   20.7316   24.1141 H   0  0  0  0  0  0  0  0  0  0  0  0
   21.1909   19.7967   23.2246 H   0  0  0  0  0  0  0  0  0  0  0  0
   19.6210   18.6087   24.1766 C   0  0  0  0  0  0  0  0  0  0  0  0
   20.1941   18.4939   25.1061 H   0  0  0  0  0  0  0  0  0  0  0  0
   18.5784   18.7706   24.4805 H   0  0  0  0  0  0  0  0  0  0  0  0
   19.7017   17.2945   23.3640 C   0  0  1  0  0  0  0  0  0  0  0  0
   19.1170   17.4178   22.4478 H   0  0  0  0  0  0  0  0  0  0  0  0
   21.1485   16.9425   22.9746 C   0  0  0  0  0  0  0  0  0  0  0  0
   21.7902   16.8642   23.8610 H   0  0  0  0  0  0  0  0  0  0  0  0
   21.5757   17.6992   22.3064 H   0  0  0  0  0  0  0  0  0  0  0  0
   21.1834   15.9835   22.4432 H   0  0  0  0  0  0  0  0  0  0  0  0
   19.0713   16.1542   24.1144 N   0  3  0  0  0  0  0  0  0  0  0  0
   18.0934   16.3500   24.3468 H   0  0  0  0  0  0  0  0  0  0  0  0
   19.0861   15.2906   23.5645 H   0  0  0  0  0  0  0  0  0  0  0  0
   19.5638   15.9656   24.9915 H   0  0  0  0  0  0  0  0  0  0  0  0
  1  2  1  0  0  0  0
  1  3  1  0  0  0  0
  1  4  1  0  0  0  0
  1  5  1  0  0  0  0
  5  6  1  0  0  0  0
  5  7  1  0  0  0  0
  5  8  1  0  0  0  0
  8  9  1  0  0  0  0
  8 10  1  0  0  0  0
  8 11  1  0  0  0  0
 11 12  1  0  0  0  0
 11 13  1  0  0  0  0
 11 14  1  0  0  0  0
 14 15  1  0  0  0  0
 14 16  1  0  0  0  0
 14 17  1  0  0  0  0
 17 18  1  0  0  0  0
 17 19  1  0  0  0  0
 19 20  1  0  0  0  0
 19 21  1  0  0  0  0
 19 22  1  0  0  0  0
 17 23  1  0  0  0  0
 23 24  1  0  0  0  0
 23 25  1  0  0  0  0
 23 26  1  0  0  0  0
M  END
> <VConfSearch Rank>
330

> <Conf_Id>
5

> <Delta U+W>
1.233

> <U+W>
-29.065

> <U>
25.023

> <W>
-54.088

> <W(PB)>
-56.383

> <W(SA)>
2.296

> <Valence>
4.083

> <Coulomb>
19.893

> <VdW>
1.047

> <VdW6>
-8.479

> <VdW12>
9.527

> <Bond>
0.256

> <Angle>
1.716

> <Pdih>
2.112

> <Idih>
0.000

> <Tether>
0.000

$$$$
VeraChem MOL file


 26 25  0  0  0  0  0  0  0  0999 V2000     
   21.3116   22.3924   22.0646 C   0  0  0  0  0  0  0  0  0  0  0  0
   21.4717   23.4695   22.2026 H   0  0  0  0  0  0  0  0  0  0  0  0
   22.2233   21.8798   22.3950 H   0  0  0  0  0  0  0  0  0  0  0  0
   21.1824   22.2076   20.9903 H   0  0  0  0  0  0  0  0  0  0  0  0
   20.0732   21.9241   22.8624 C   0  0  0  0  0  0  0  0  0  0  0  0
   19.2173   22.5557   22.5858 H   0  0  0  0  0  0  0  0  0  0  0  0
   20.2406   22.0873   23.9362 H   0  0  0  0  0  0  0  0  0  0  0  0
   19.6977   20.4439   22.6090 C   0  0  0  0  0  0  0  0  0  0  0  0
   18.7365   20.2512   23.1029 H   0  0  0  0  0  0  0  0  0  0  0  0
   19.5366   20.2856   21.5338 H   0  0  0  0  0  0  0  0  0  0  0  0
   20.7543   19.4406   23.1352 C   0  0  0  0  0  0  0  0  0  0  0  0
   20.8889   19.5850   24.2160 H   0  0  0  0  0  0  0  0  0  0  0  0
   21.7263   19.6545   22.6726 H   0  0  0  0  0  0  0  0  0  0  0  0
   20.4098   17.9556   22.8549 C   0  0  0  0  0  0  0  0  0  0  0  0
   20.3579   17.7797   21.7721 H   0  0  0  0  0  0  0  0  0  0  0  0
   21.2533   17.3498   23.2116 H   0  0  0  0  0  0  0  0  0  0  0  0
   19.1101   17.4741   23.5447 C   0  0  1  0  0  0  0  0  0  0  0  0
   18.8631   18.1837   24.3404 H   0  0  0  0  0  0  0  0  0  0  0  0
   17.9325   17.4129   22.5547 C   0  0  0  0  0  0  0  0  0  0  0  0
   18.1167   16.6708   21.7677 H   0  0  0  0  0  0  0  0  0  0  0  0
   17.7633   18.3812   22.0708 H   0  0  0  0  0  0  0  0  0  0  0  0
   17.0065   17.1347   23.0727 H   0  0  0  0  0  0  0  0  0  0  0  0
   19.2901   16.1397   24.2152 N   0  3  0  0  0  0  0  0  0  0  0  0
   20.0381   16.1673   24.9143 H   0  0  0  0  0  0  0  0  0  0  0  0
   18.4356   15.8442   24.6959 H   0  0  0  0  0  0  0  0  0  0  0  0
   19.5277   15.4095   23.5384 H   0  0  0  0  0  0  0  0  0  0  0  0
  1  2  1  0  0  0  0
  1  3  1  0  0  0  0
  1  4  1  0  0  0  0
  1  5  1  0  0  0  0
  5  6  1  0  0  0  0
  5  7  1  0  0  0  0
  5  8  1  0  0  0  0
  8  9  1  0  0  0  0
  8 10  1  0  0  0  0
  8 11  1  0  0  0  0
 11 12  1  0  0  0  0
 11 13  1  0  0  0  0
 11 14  1  0  0  0  0
 14 15  1  0  0  0  0
 14 16  1  0  0  0  0
 14 17  1  0  0  0  0
 17 18  1  0  0  0  0
 17 19  1  0  0  0  0
 19 20  1  0  0  0  0
 19 21  1  0  0  0  0
 19 22  1  0  0  0  0
 17 23  1  0  0  0  0
 23 24  1  0  0  0  0
 23 25  1  0  0  0  0
 23 26  1  0  0  0  0
M  END
> <VConfSearch Rank>
331

> <Conf_Id>
100

> <Delta U+W>
3.818

> <U+W>
-26.481

> <U>
27.496

> <W>
-53.977

> <W(PB)>
-56.267

> <W(SA)>
2.290

> <Valence>
6.472

> <Coulomb>
19.839

> <VdW>
1.185

> <VdW6>
-8.405

> <VdW12>
9.590

> <Bond>
0.248

> <Angle>
1.619

> <Pdih>
4.604

> <Idih>
0.000

> <Tether>
0.000

$$$$
VeraChem MOL file


 26 25  0  0  0  0  0  0  0  0999 V2000     
   18.9862   15.4601   23.3416 C   0  0  0  0  0  0  0  0  0  0  0  0
   19.4672   14.4746   23.2914 H   0  0  0  0  0  0  0  0  0  0  0  0
   18.8660   15.7229   24.4007 H   0  0  0  0  0  0  0  0  0  0  0  0
   17.9869   15.3704   22.8960 H   0  0  0  0  0  0  0  0  0  0  0  0
   19.8314   16.5173   22.5999 C   0  0  0  0  0  0  0  0  0  0  0  0
   19.9632   16.2096   21.5531 H   0  0  0  0  0  0  0  0  0  0  0  0
   20.8347   16.5603   23.0465 H   0  0  0  0  0  0  0  0  0  0  0  0
   19.1760   17.9151   22.6548 C   0  0  0  0  0  0  0  0  0  0  0  0
   18.1737   17.8639   22.2075 H   0  0  0  0  0  0  0  0  0  0  0  0
   19.0362   18.2056   23.7026 H   0  0  0  0  0  0  0  0  0  0  0  0
   20.0202   18.9748   21.9050 C   0  0  0  0  0  0  0  0  0  0  0  0
   20.1137   18.6551   20.8579 H   0  0  0  0  0  0  0  0  0  0  0  0
   21.0424   18.9975   22.3044 H   0  0  0  0  0  0  0  0  0  0  0  0
   19.3920   20.3965   21.9251 C   0  0  0  0  0  0  0  0  0  0  0  0
   19.6019   20.8793   20.9616 H   0  0  0  0  0  0  0  0  0  0  0  0
   18.2978   20.3210   21.9772 H   0  0  0  0  0  0  0  0  0  0  0  0
   19.8950   21.3481   23.0392 C   0  0  1  0  0  0  0  0  0  0  0  0
   19.3536   22.2921   22.9230 H   0  0  0  0  0  0  0  0  0  0  0  0
   19.6044   20.8213   24.4538 C   0  0  0  0  0  0  0  0  0  0  0  0
   20.2128   19.9395   24.6870 H   0  0  0  0  0  0  0  0  0  0  0  0
   18.5458   20.5545   24.5614 H   0  0  0  0  0  0  0  0  0  0  0  0
   19.8312   21.5901   25.2025 H   0  0  0  0  0  0  0  0  0  0  0  0
   21.3524   21.6876   22.8838 N   0  3  0  0  0  0  0  0  0  0  0  0
   21.5480   22.0918   21.9636 H   0  0  0  0  0  0  0  0  0  0  0  0
   21.6546   22.3681   23.5866 H   0  0  0  0  0  0  0  0  0  0  0  0
   21.9415   20.8579   22.9871 H   0  0  0  0  0  0  0  0  0  0  0  0
  1  2  1  0  0  0  0
  1  3  1  0  0  0  0
  1  4  1  0  0  0  0
  1  5  1  0  0  0  0
  5  6  1  0  0  0  0
  5  7  1  0  0  0  0
  5  8  1  0  0  0  0
  8  9  1  0  0  0  0
  8 10  1  0  0  0  0
  8 11  1  0  0  0  0
 11 12  1  0  0  0  0
 11 13  1  0  0  0  0
 11 14  1  0  0  0  0
 14 15  1  0  0  0  0
 14 16  1  0  0  0  0
 14 17  1  0  0  0  0
 17 18  1  0  0  0  0
 17 19  1  0  0  0  0
 19 20  1  0  0  0  0
 19 21  1  0  0  0  0
 19 22  1  0  0  0  0
 17 23  1  0  0  0  0
 23 24  1  0  0  0  0
 23 25  1  0  0  0  0
 23 26  1  0  0  0  0
M  END
> <VConfSearch Rank>
332

> <Conf_Id>
142

> <Delta U+W>
2.978

> <U+W>
-27.320

> <U>
26.848

> <W>
-54.168

> <W(PB)>
-56.427

> <W(SA)>
2.259

> <Valence>
5.823

> <Coulomb>
20.057

> <VdW>
0.968

> <VdW6>
-8.367

> <VdW12>
9.335

> <Bond>
0.267

> <Angle>
1.799

> <Pdih>
3.758

> <Idih>
0.000

> <Tether>
0.000

$$$$
VeraChem MOL file


 26 25  0  0  0  0  0  0  0  0999 V2000     
   17.5769   19.2003   20.2541 C   0  0  0  0  0  0  0  0  0  0  0  0
   17.5059   20.2957   20.2434 H   0  0  0  0  0  0  0  0  0  0  0  0
   17.2475   18.8337   19.2732 H   0  0  0  0  0  0  0  0  0  0  0  0
   16.8715   18.8169   21.0013 H   0  0  0  0  0  0  0  0  0  0  0  0
   19.0236   18.7396   20.5444 C   0  0  0  0  0  0  0  0  0  0  0  0
   19.6620   19.0377   19.7009 H   0  0  0  0  0  0  0  0  0  0  0  0
   19.0625   17.6421   20.5856 H   0  0  0  0  0  0  0  0  0  0  0  0
   19.6143   19.3352   21.8454 C   0  0  0  0  0  0  0  0  0  0  0  0
   20.6790   19.0759   21.8728 H   0  0  0  0  0  0  0  0  0  0  0  0
   19.5527   20.4315   21.8071 H   0  0  0  0  0  0  0  0  0  0  0  0
   18.9256   18.8119   23.1311 C   0  0  0  0  0  0  0  0  0  0  0  0
   19.0460   17.7224   23.1970 H   0  0  0  0  0  0  0  0  0  0  0  0
   17.8450   18.9864   23.0568 H   0  0  0  0  0  0  0  0  0  0  0  0
   19.4105   19.4832   24.4475 C   0  0  0  0  0  0  0  0  0  0  0  0
   19.1734   20.5547   24.4165 H   0  0  0  0  0  0  0  0  0  0  0  0
   18.8065   19.0764   25.2693 H   0  0  0  0  0  0  0  0  0  0  0  0
   20.9010   19.3086   24.8364 C   0  0  1  0  0  0  0  0  0  0  0  0
   20.9940   19.6336   25.8773 H   0  0  0  0  0  0  0  0  0  0  0  0
   21.3588   17.8410   24.7731 C   0  0  0  0  0  0  0  0  0  0  0  0
   21.3819   17.4678   23.7423 H   0  0  0  0  0  0  0  0  0  0  0  0
   20.6873   17.1992   25.3568 H   0  0  0  0  0  0  0  0  0  0  0  0
   22.3673   17.7349   25.1910 H   0  0  0  0  0  0  0  0  0  0  0  0
   21.8252   20.2063   24.0601 N   0  3  0  0  0  0  0  0  0  0  0  0
   21.5630   21.1910   24.1612 H   0  0  0  0  0  0  0  0  0  0  0  0
   22.7927   20.1141   24.3822 H   0  0  0  0  0  0  0  0  0  0  0  0
   21.8101   19.9845   23.0628 H   0  0  0  0  0  0  0  0  0  0  0  0
  1  2  1  0  0  0  0
  1  3  1  0  0  0  0
  1  4  1  0  0  0  0
  1  5  1  0  0  0  0
  5  6  1  0  0  0  0
  5  7  1  0  0  0  0
  5  8  1  0  0  0  0
  8  9  1  0  0  0  0
  8 10  1  0  0  0  0
  8 11  1  0  0  0  0
 11 12  1  0  0  0  0
 11 13  1  0  0  0  0
 11 14  1  0  0  0  0
 14 15  1  0  0  0  0
 14 16  1  0  0  0  0
 14 17  1  0  0  0  0
 17 18  1  0  0  0  0
 17 19  1  0  0  0  0
 19 20  1  0  0  0  0
 19 21  1  0  0  0  0
 19 22  1  0  0  0  0
 17 23  1  0  0  0  0
 23 24  1  0  0  0  0
 23 25  1  0  0  0  0
 23 26  1  0  0  0  0
M  END
> <VConfSearch Rank>
333

> <Conf_Id>
119

> <Delta U+W>
3.538

> <U+W>
-26.761

> <U>
27.482

> <W>
-54.243

> <W(PB)>
-56.494

> <W(SA)>
2.251

> <Valence>
5.284

> <Coulomb>
21.247

> <VdW>
0.951

> <VdW6>
-9.416

> <VdW12>
10.367

> <Bond>
0.323

> <Angle>
2.522

> <Pdih>
2.439

> <Idih>
0.000

> <Tether>
0.000

$$$$
VeraChem MOL file


 26 25  0  0  0  0  0  0  0  0999 V2000     
   19.1764   22.4239   23.8449 C   0  0  0  0  0  0  0  0  0  0  0  0
   20.0143   22.6692   24.5102 H   0  0  0  0  0  0  0  0  0  0  0  0
   19.5321   22.4779   22.8085 H   0  0  0  0  0  0  0  0  0  0  0  0
   18.4096   23.1993   23.9709 H   0  0  0  0  0  0  0  0  0  0  0  0
   18.5950   21.0302   24.1738 C   0  0  0  0  0  0  0  0  0  0  0  0
   17.7799   20.7957   23.4751 H   0  0  0  0  0  0  0  0  0  0  0  0
   18.1419   21.0630   25.1745 H   0  0  0  0  0  0  0  0  0  0  0  0
   19.6509   19.8988   24.1441 C   0  0  0  0  0  0  0  0  0  0  0  0
   20.4490   20.1265   24.8641 H   0  0  0  0  0  0  0  0  0  0  0  0
   19.1760   18.9769   24.4996 H   0  0  0  0  0  0  0  0  0  0  0  0
   20.2692   19.6707   22.7406 C   0  0  0  0  0  0  0  0  0  0  0  0
   20.8373   20.5681   22.4623 H   0  0  0  0  0  0  0  0  0  0  0  0
   19.4757   19.5701   21.9890 H   0  0  0  0  0  0  0  0  0  0  0  0
   21.2367   18.4555   22.6831 C   0  0  0  0  0  0  0  0  0  0  0  0
   22.0683   18.7081   22.0122 H   0  0  0  0  0  0  0  0  0  0  0  0
   21.6978   18.2979   23.6670 H   0  0  0  0  0  0  0  0  0  0  0  0
   20.6250   17.1234   22.1820 C   0  0  1  0  0  0  0  0  0  0  0  0
   21.4219   16.3737   22.2091 H   0  0  0  0  0  0  0  0  0  0  0  0
   19.4830   16.6153   23.0770 C   0  0  0  0  0  0  0  0  0  0  0  0
   18.6024   17.2656   23.0130 H   0  0  0  0  0  0  0  0  0  0  0  0
   19.8028   16.5621   24.1249 H   0  0  0  0  0  0  0  0  0  0  0  0
   19.1767   15.6073   22.7718 H   0  0  0  0  0  0  0  0  0  0  0  0
   20.1840   17.2036   20.7459 N   0  3  0  0  0  0  0  0  0  0  0  0
   20.9527   17.4882   20.1322 H   0  0  0  0  0  0  0  0  0  0  0  0
   19.8429   16.2990   20.4085 H   0  0  0  0  0  0  0  0  0  0  0  0
   19.4272   17.8810   20.6257 H   0  0  0  0  0  0  0  0  0  0  0  0
  1  2  1  0  0  0  0
  1  3  1  0  0  0  0
  1  4  1  0  0  0  0
  1  5  1  0  0  0  0
  5  6  1  0  0  0  0
  5  7  1  0  0  0  0
  5  8  1  0  0  0  0
  8  9  1  0  0  0  0
  8 10  1  0  0  0  0
  8 11  1  0  0  0  0
 11 12  1  0  0  0  0
 11 13  1  0  0  0  0
 11 14  1  0  0  0  0
 14 15  1  0  0  0  0
 14 16  1  0  0  0  0
 14 17  1  0  0  0  0
 17 18  1  0  0  0  0
 17 19  1  0  0  0  0
 19 20  1  0  0  0  0
 19 21  1  0  0  0  0
 19 22  1  0  0  0  0
 17 23  1  0  0  0  0
 23 24  1  0  0  0  0
 23 25  1  0  0  0  0
 23 26  1  0  0  0  0
M  END
> <VConfSearch Rank>
334

> <Conf_Id>
127

> <Delta U+W>
3.544

> <U+W>
-26.754

> <U>
27.509

> <W>
-54.263

> <W(PB)>
-56.496

> <W(SA)>
2.232

> <Valence>
6.375

> <Coulomb>
20.014

> <VdW>
1.120

> <VdW6>
-8.976

> <VdW12>
10.096

> <Bond>
0.304

> <Angle>
1.986

> <Pdih>
4.086

> <Idih>
0.000

> <Tether>
0.000

$$$$
VeraChem MOL file


 26 25  0  0  0  0  0  0  0  0999 V2000     
   20.5211   20.1200   19.9878 C   0  0  0  0  0  0  0  0  0  0  0  0
   20.1344   20.8586   19.2737 H   0  0  0  0  0  0  0  0  0  0  0  0
   21.3156   19.5545   19.4838 H   0  0  0  0  0  0  0  0  0  0  0  0
   19.7072   19.4240   20.2188 H   0  0  0  0  0  0  0  0  0  0  0  0
   21.0634   20.8239   21.2535 C   0  0  0  0  0  0  0  0  0  0  0  0
   20.2815   21.4473   21.7092 H   0  0  0  0  0  0  0  0  0  0  0  0
   21.8574   21.5167   20.9411 H   0  0  0  0  0  0  0  0  0  0  0  0
   21.6490   19.8415   22.3004 C   0  0  0  0  0  0  0  0  0  0  0  0
   22.0396   18.9433   21.8025 H   0  0  0  0  0  0  0  0  0  0  0  0
   22.5197   20.3211   22.7688 H   0  0  0  0  0  0  0  0  0  0  0  0
   20.6723   19.4395   23.4357 C   0  0  0  0  0  0  0  0  0  0  0  0
   20.3767   20.3409   23.9889 H   0  0  0  0  0  0  0  0  0  0  0  0
   21.2262   18.8112   24.1446 H   0  0  0  0  0  0  0  0  0  0  0  0
   19.4073   18.6847   22.9470 C   0  0  0  0  0  0  0  0  0  0  0  0
   18.8093   19.3543   22.3173 H   0  0  0  0  0  0  0  0  0  0  0  0
   19.7071   17.8442   22.3073 H   0  0  0  0  0  0  0  0  0  0  0  0
   18.4894   18.1528   24.0733 C   0  0  1  0  0  0  0  0  0  0  0  0
   17.6075   17.7172   23.5933 H   0  0  0  0  0  0  0  0  0  0  0  0
   19.1633   17.0407   24.8963 C   0  0  0  0  0  0  0  0  0  0  0  0
   19.5418   16.2458   24.2419 H   0  0  0  0  0  0  0  0  0  0  0  0
   18.4428   16.5864   25.5876 H   0  0  0  0  0  0  0  0  0  0  0  0
   20.0002   17.4240   25.4916 H   0  0  0  0  0  0  0  0  0  0  0  0
   17.9788   19.2508   24.9655 N   0  3  0  0  0  0  0  0  0  0  0  0
   17.4865   19.9714   24.4301 H   0  0  0  0  0  0  0  0  0  0  0  0
   17.3251   18.8901   25.6662 H   0  0  0  0  0  0  0  0  0  0  0  0
   18.7445   19.7078   25.4666 H   0  0  0  0  0  0  0  0  0  0  0  0
  1  2  1  0  0  0  0
  1  3  1  0  0  0  0
  1  4  1  0  0  0  0
  1  5  1  0  0  0  0
  5  6  1  0  0  0  0
  5  7  1  0  0  0  0
  5  8  1  0  0  0  0
  8  9  1  0  0  0  0
  8 10  1  0  0  0  0
  8 11  1  0  0  0  0
 11 12  1  0  0  0  0
 11 13  1  0  0  0  0
 11 14  1  0  0  0  0
 14 15  1  0  0  0  0
 14 16  1  0  0  0  0
 14 17  1  0  0  0  0
 17 18  1  0  0  0  0
 17 19  1  0  0  0  0
 19 20  1  0  0  0  0
 19 21  1  0  0  0  0
 19 22  1  0  0  0  0
 17 23  1  0  0  0  0
 23 24  1  0  0  0  0
 23 25  1  0  0  0  0
 23 26  1  0  0  0  0
M  END
> <VConfSearch Rank>
335

> <Conf_Id>
131

> <Delta U+W>
3.589

> <U+W>
-26.710

> <U>
27.573

> <W>
-54.283

> <W(PB)>
-56.537

> <W(SA)>
2.254

> <Valence>
6.363

> <Coulomb>
20.026

> <VdW>
1.184

> <VdW6>
-8.939

> <VdW12>
10.123

> <Bond>
0.298

> <Angle>
2.018

> <Pdih>
4.047

> <Idih>
0.000

> <Tether>
0.000

$$$$
VeraChem MOL file


 26 25  0  0  0  0  0  0  0  0999 V2000     
   18.5792   18.8944   25.5401 C   0  0  0  0  0  0  0  0  0  0  0  0
   18.5640   19.9917   25.5183 H   0  0  0  0  0  0  0  0  0  0  0  0
   18.1642   18.5188   24.5968 H   0  0  0  0  0  0  0  0  0  0  0  0
   17.9102   18.5650   26.3455 H   0  0  0  0  0  0  0  0  0  0  0  0
   20.0092   18.3610   25.7750 C   0  0  0  0  0  0  0  0  0  0  0  0
   20.0021   17.2635   25.7184 H   0  0  0  0  0  0  0  0  0  0  0  0
   20.3138   18.6102   26.8011 H   0  0  0  0  0  0  0  0  0  0  0  0
   21.0714   18.9251   24.7971 C   0  0  0  0  0  0  0  0  0  0  0  0
   21.1645   20.0120   24.9276 H   0  0  0  0  0  0  0  0  0  0  0  0
   22.0446   18.5081   25.0912 H   0  0  0  0  0  0  0  0  0  0  0  0
   20.8292   18.5784   23.3045 C   0  0  0  0  0  0  0  0  0  0  0  0
   20.3071   17.6156   23.2327 H   0  0  0  0  0  0  0  0  0  0  0  0
   21.8044   18.4337   22.8194 H   0  0  0  0  0  0  0  0  0  0  0  0
   20.0670   19.6865   22.5306 C   0  0  0  0  0  0  0  0  0  0  0  0
   19.0754   19.8518   22.9665 H   0  0  0  0  0  0  0  0  0  0  0  0
   20.6153   20.6303   22.6496 H   0  0  0  0  0  0  0  0  0  0  0  0
   19.9200   19.3969   21.0194 C   0  0  1  0  0  0  0  0  0  0  0  0
   20.9129   19.1819   20.6125 H   0  0  0  0  0  0  0  0  0  0  0  0
   19.0083   18.1865   20.7484 C   0  0  0  0  0  0  0  0  0  0  0  0
   18.0158   18.3296   21.1936 H   0  0  0  0  0  0  0  0  0  0  0  0
   19.4374   17.2637   21.1549 H   0  0  0  0  0  0  0  0  0  0  0  0
   18.8782   18.0350   19.6697 H   0  0  0  0  0  0  0  0  0  0  0  0
   19.4122   20.6049   20.2819 N   0  3  0  0  0  0  0  0  0  0  0  0
   18.4785   20.8746   20.6027 H   0  0  0  0  0  0  0  0  0  0  0  0
   20.0278   21.4129   20.4122 H   0  0  0  0  0  0  0  0  0  0  0  0
   19.3502   20.4295   19.2750 H   0  0  0  0  0  0  0  0  0  0  0  0
  1  2  1  0  0  0  0
  1  3  1  0  0  0  0
  1  4  1  0  0  0  0
  1  5  1  0  0  0  0
  5  6  1  0  0  0  0
  5  7  1  0  0  0  0
  5  8  1  0  0  0  0
  8  9  1  0  0  0  0
  8 10  1  0  0  0  0
  8 11  1  0  0  0  0
 11 12  1  0  0  0  0
 11 13  1  0  0  0  0
 11 14  1  0  0  0  0
 14 15  1  0  0  0  0
 14 16  1  0  0  0  0
 14 17  1  0  0  0  0
 17 18  1  0  0  0  0
 17 19  1  0  0  0  0
 19 20  1  0  0  0  0
 19 21  1  0  0  0  0
 19 22  1  0  0  0  0
 17 23  1  0  0  0  0
 23 24  1  0  0  0  0
 23 25  1  0  0  0  0
 23 26  1  0  0  0  0
M  END
> <VConfSearch Rank>
336

> <Conf_Id>
80

> <Delta U+W>
3.351

> <U+W>
-26.948

> <U>
27.261

> <W>
-54.209

> <W(PB)>
-56.471

> <W(SA)>
2.263

> <Valence>
6.230

> <Coulomb>
19.945

> <VdW>
1.087

> <VdW6>
-8.618

> <VdW12>
9.704

> <Bond>
0.277

> <Angle>
1.928

> <Pdih>
4.025

> <Idih>
0.000

> <Tether>
0.000

$$$$
VeraChem MOL file


 26 25  0  0  0  0  0  0  0  0999 V2000     
   19.6335   20.6934   20.0949 C   0  0  0  0  0  0  0  0  0  0  0  0
   19.3732   21.7140   19.7859 H   0  0  0  0  0  0  0  0  0  0  0  0
   20.1255   20.2004   19.2464 H   0  0  0  0  0  0  0  0  0  0  0  0
   18.6961   20.1639   20.3059 H   0  0  0  0  0  0  0  0  0  0  0  0
   20.5576   20.7220   21.3332 C   0  0  0  0  0  0  0  0  0  0  0  0
   20.0341   21.1948   22.1742 H   0  0  0  0  0  0  0  0  0  0  0  0
   21.4168   21.3719   21.1161 H   0  0  0  0  0  0  0  0  0  0  0  0
   21.0921   19.3250   21.7434 C   0  0  0  0  0  0  0  0  0  0  0  0
   21.7412   18.9538   20.9384 H   0  0  0  0  0  0  0  0  0  0  0  0
   21.7471   19.4444   22.6138 H   0  0  0  0  0  0  0  0  0  0  0  0
   20.0098   18.2456   22.0290 C   0  0  0  0  0  0  0  0  0  0  0  0
   20.5009   17.2839   22.2315 H   0  0  0  0  0  0  0  0  0  0  0  0
   19.4344   18.0810   21.1085 H   0  0  0  0  0  0  0  0  0  0  0  0
   19.0176   18.5686   23.1815 C   0  0  0  0  0  0  0  0  0  0  0  0
   18.8304   19.6459   23.2510 H   0  0  0  0  0  0  0  0  0  0  0  0
   18.0507   18.1215   22.9155 H   0  0  0  0  0  0  0  0  0  0  0  0
   19.4136   18.0081   24.5689 C   0  0  1  0  0  0  0  0  0  0  0  0
   19.5276   16.9234   24.4787 H   0  0  0  0  0  0  0  0  0  0  0  0
   20.7374   18.5864   25.0952 C   0  0  0  0  0  0  0  0  0  0  0  0
   21.5842   18.2307   24.4979 H   0  0  0  0  0  0  0  0  0  0  0  0
   20.9178   18.2644   26.1282 H   0  0  0  0  0  0  0  0  0  0  0  0
   20.7291   19.6833   25.0761 H   0  0  0  0  0  0  0  0  0  0  0  0
   18.3153   18.2332   25.5711 N   0  3  0  0  0  0  0  0  0  0  0  0
   17.4327   17.8142   25.2645 H   0  0  0  0  0  0  0  0  0  0  0  0
   18.5477   17.8216   26.4794 H   0  0  0  0  0  0  0  0  0  0  0  0
   18.1460   19.2311   25.7227 H   0  0  0  0  0  0  0  0  0  0  0  0
  1  2  1  0  0  0  0
  1  3  1  0  0  0  0
  1  4  1  0  0  0  0
  1  5  1  0  0  0  0
  5  6  1  0  0  0  0
  5  7  1  0  0  0  0
  5  8  1  0  0  0  0
  8  9  1  0  0  0  0
  8 10  1  0  0  0  0
  8 11  1  0  0  0  0
 11 12  1  0  0  0  0
 11 13  1  0  0  0  0
 11 14  1  0  0  0  0
 14 15  1  0  0  0  0
 14 16  1  0  0  0  0
 14 17  1  0  0  0  0
 17 18  1  0  0  0  0
 17 19  1  0  0  0  0
 19 20  1  0  0  0  0
 19 21  1  0  0  0  0
 19 22  1  0  0  0  0
 17 23  1  0  0  0  0
 23 24  1  0  0  0  0
 23 25  1  0  0  0  0
 23 26  1  0  0  0  0
M  END
> <VConfSearch Rank>
337

> <Conf_Id>
136

> <Delta U+W>
4.272

> <U+W>
-26.026

> <U>
28.262

> <W>
-54.288

> <W(PB)>
-56.488

> <W(SA)>
2.200

> <Valence>
7.096

> <Coulomb>
19.990

> <VdW>
1.175

> <VdW6>
-9.404

> <VdW12>
10.580

> <Bond>
0.360

> <Angle>
2.785

> <Pdih>
3.951

> <Idih>
0.000

> <Tether>
0.000

$$$$
VeraChem MOL file


 26 25  0  0  0  0  0  0  0  0999 V2000     
   20.4038   18.9216   20.0907 C   0  0  0  0  0  0  0  0  0  0  0  0
   19.8223   19.7469   20.5199 H   0  0  0  0  0  0  0  0  0  0  0  0
   20.5698   19.1544   19.0309 H   0  0  0  0  0  0  0  0  0  0  0  0
   19.8025   18.0048   20.1427 H   0  0  0  0  0  0  0  0  0  0  0  0
   21.7526   18.7456   20.8218 C   0  0  0  0  0  0  0  0  0  0  0  0
   22.3052   19.6953   20.8003 H   0  0  0  0  0  0  0  0  0  0  0  0
   22.3651   18.0250   20.2621 H   0  0  0  0  0  0  0  0  0  0  0  0
   21.6265   18.2514   22.2857 C   0  0  0  0  0  0  0  0  0  0  0  0
   21.1658   17.2542   22.3096 H   0  0  0  0  0  0  0  0  0  0  0  0
   22.6444   18.1161   22.6771 H   0  0  0  0  0  0  0  0  0  0  0  0
   20.8689   19.2183   23.2326 C   0  0  0  0  0  0  0  0  0  0  0  0
   20.9803   20.2531   22.8801 H   0  0  0  0  0  0  0  0  0  0  0  0
   21.3510   19.1777   24.2184 H   0  0  0  0  0  0  0  0  0  0  0  0
   19.3685   18.8629   23.3995 C   0  0  0  0  0  0  0  0  0  0  0  0
   18.8925   18.7943   22.4150 H   0  0  0  0  0  0  0  0  0  0  0  0
   19.2746   17.8687   23.8561 H   0  0  0  0  0  0  0  0  0  0  0  0
   18.5975   19.8965   24.2489 C   0  0  1  0  0  0  0  0  0  0  0  0
   18.7258   20.8814   23.7892 H   0  0  0  0  0  0  0  0  0  0  0  0
   17.0970   19.5635   24.2640 C   0  0  0  0  0  0  0  0  0  0  0  0
   16.9127   18.5818   24.7180 H   0  0  0  0  0  0  0  0  0  0  0  0
   16.6900   19.5506   23.2452 H   0  0  0  0  0  0  0  0  0  0  0  0
   16.5382   20.3148   24.8356 H   0  0  0  0  0  0  0  0  0  0  0  0
   19.1288   20.0014   25.6525 N   0  3  0  0  0  0  0  0  0  0  0  0
   19.0453   19.1115   26.1508 H   0  0  0  0  0  0  0  0  0  0  0  0
   20.1170   20.2675   25.6595 H   0  0  0  0  0  0  0  0  0  0  0  0
   18.6188   20.7050   26.1941 H   0  0  0  0  0  0  0  0  0  0  0  0
  1  2  1  0  0  0  0
  1  3  1  0  0  0  0
  1  4  1  0  0  0  0
  1  5  1  0  0  0  0
  5  6  1  0  0  0  0
  5  7  1  0  0  0  0
  5  8  1  0  0  0  0
  8  9  1  0  0  0  0
  8 10  1  0  0  0  0
  8 11  1  0  0  0  0
 11 12  1  0  0  0  0
 11 13  1  0  0  0  0
 11 14  1  0  0  0  0
 14 15  1  0  0  0  0
 14 16  1  0  0  0  0
 14 17  1  0  0  0  0
 17 18  1  0  0  0  0
 17 19  1  0  0  0  0
 19 20  1  0  0  0  0
 19 21  1  0  0  0  0
 19 22  1  0  0  0  0
 17 23  1  0  0  0  0
 23 24  1  0  0  0  0
 23 25  1  0  0  0  0
 23 26  1  0  0  0  0
M  END
> <VConfSearch Rank>
338

> <Conf_Id>
124

> <Delta U+W>
3.001

> <U+W>
-27.298

> <U>
26.787

> <W>
-54.085

> <W(PB)>
-56.347

> <W(SA)>
2.262

> <Valence>
5.742

> <Coulomb>
20.023

> <VdW>
1.022

> <VdW6>
-8.392

> <VdW12>
9.414

> <Bond>
0.261

> <Angle>
1.576

> <Pdih>
3.904

> <Idih>
0.000

> <Tether>
0.000

$$$$
VeraChem MOL file


 26 25  0  0  0  0  0  0  0  0999 V2000     
   20.8045   16.8276   24.9170 C   0  0  0  0  0  0  0  0  0  0  0  0
   20.1423   16.6558   25.7755 H   0  0  0  0  0  0  0  0  0  0  0  0
   21.6620   16.1497   25.0176 H   0  0  0  0  0  0  0  0  0  0  0  0
   21.1835   17.8531   24.9835 H   0  0  0  0  0  0  0  0  0  0  0  0
   20.0617   16.5652   23.5861 C   0  0  0  0  0  0  0  0  0  0  0  0
   19.7404   15.5142   23.5803 H   0  0  0  0  0  0  0  0  0  0  0  0
   20.7497   16.6752   22.7363 H   0  0  0  0  0  0  0  0  0  0  0  0
   18.8130   17.4632   23.3889 C   0  0  0  0  0  0  0  0  0  0  0  0
   18.0476   16.8724   22.8668 H   0  0  0  0  0  0  0  0  0  0  0  0
   18.3730   17.7220   24.3618 H   0  0  0  0  0  0  0  0  0  0  0  0
   19.0587   18.7471   22.5549 C   0  0  0  0  0  0  0  0  0  0  0  0
   18.0924   19.2489   22.4155 H   0  0  0  0  0  0  0  0  0  0  0  0
   19.4034   18.4597   21.5527 H   0  0  0  0  0  0  0  0  0  0  0  0
   20.0690   19.7361   23.1944 C   0  0  0  0  0  0  0  0  0  0  0  0
   19.7993   19.9017   24.2456 H   0  0  0  0  0  0  0  0  0  0  0  0
   21.0677   19.2823   23.1987 H   0  0  0  0  0  0  0  0  0  0  0  0
   20.1682   21.1098   22.4900 C   0  0  1  0  0  0  0  0  0  0  0  0
   20.9109   21.7012   23.0344 H   0  0  0  0  0  0  0  0  0  0  0  0
   20.6523   20.9790   21.0353 C   0  0  0  0  0  0  0  0  0  0  0  0
   19.9111   20.4723   20.4057 H   0  0  0  0  0  0  0  0  0  0  0  0
   21.5904   20.4123   20.9862 H   0  0  0  0  0  0  0  0  0  0  0  0
   20.8390   21.9694   20.6024 H   0  0  0  0  0  0  0  0  0  0  0  0
   18.8832   21.8883   22.5628 N   0  3  0  0  0  0  0  0  0  0  0  0
   18.9858   22.8192   22.1488 H   0  0  0  0  0  0  0  0  0  0  0  0
   18.1300   21.4114   22.0615 H   0  0  0  0  0  0  0  0  0  0  0  0
   18.5762   22.0167   23.5311 H   0  0  0  0  0  0  0  0  0  0  0  0
  1  2  1  0  0  0  0
  1  3  1  0  0  0  0
  1  4  1  0  0  0  0
  1  5  1  0  0  0  0
  5  6  1  0  0  0  0
  5  7  1  0  0  0  0
  5  8  1  0  0  0  0
  8  9  1  0  0  0  0
  8 10  1  0  0  0  0
  8 11  1  0  0  0  0
 11 12  1  0  0  0  0
 11 13  1  0  0  0  0
 11 14  1  0  0  0  0
 14 15  1  0  0  0  0
 14 16  1  0  0  0  0
 14 17  1  0  0  0  0
 17 18  1  0  0  0  0
 17 19  1  0  0  0  0
 19 20  1  0  0  0  0
 19 21  1  0  0  0  0
 19 22  1  0  0  0  0
 17 23  1  0  0  0  0
 23 24  1  0  0  0  0
 23 25  1  0  0  0  0
 23 26  1  0  0  0  0
M  END
> <VConfSearch Rank>
339

> <Conf_Id>
105

> <Delta U+W>
3.442

> <U+W>
-26.857

> <U>
27.313

> <W>
-54.169

> <W(PB)>
-56.414

> <W(SA)>
2.245

> <Valence>
6.229

> <Coulomb>
19.943

> <VdW>
1.140

> <VdW6>
-9.001

> <VdW12>
10.140

> <Bond>
0.294

> <Angle>
1.969

> <Pdih>
3.967

> <Idih>
0.000

> <Tether>
0.000

$$$$
VeraChem MOL file


 26 25  0  0  0  0  0  0  0  0999 V2000     
   19.1778   20.5354   25.6246 C   0  0  0  0  0  0  0  0  0  0  0  0
   20.0424   20.8346   26.2311 H   0  0  0  0  0  0  0  0  0  0  0  0
   18.2745   20.7164   26.2214 H   0  0  0  0  0  0  0  0  0  0  0  0
   19.2468   19.4566   25.4478 H   0  0  0  0  0  0  0  0  0  0  0  0
   19.1239   21.3409   24.3054 C   0  0  0  0  0  0  0  0  0  0  0  0
   19.0203   22.4042   24.5633 H   0  0  0  0  0  0  0  0  0  0  0  0
   18.2219   21.0795   23.7347 H   0  0  0  0  0  0  0  0  0  0  0  0
   20.3881   21.1690   23.4243 C   0  0  0  0  0  0  0  0  0  0  0  0
   20.5827   22.1242   22.9173 H   0  0  0  0  0  0  0  0  0  0  0  0
   21.2689   20.9848   24.0548 H   0  0  0  0  0  0  0  0  0  0  0  0
   20.2757   20.0761   22.3302 C   0  0  0  0  0  0  0  0  0  0  0  0
   21.1936   20.0992   21.7264 H   0  0  0  0  0  0  0  0  0  0  0  0
   19.4531   20.3341   21.6499 H   0  0  0  0  0  0  0  0  0  0  0  0
   20.0730   18.6429   22.8806 C   0  0  0  0  0  0  0  0  0  0  0  0
   20.8168   18.4539   23.6660 H   0  0  0  0  0  0  0  0  0  0  0  0
   19.0839   18.5595   23.3478 H   0  0  0  0  0  0  0  0  0  0  0  0
   20.2111   17.5575   21.7914 C   0  0  1  0  0  0  0  0  0  0  0  0
   21.1945   17.6648   21.3234 H   0  0  0  0  0  0  0  0  0  0  0  0
   20.1255   16.1569   22.4187 C   0  0  0  0  0  0  0  0  0  0  0  0
   19.1532   15.9965   22.9012 H   0  0  0  0  0  0  0  0  0  0  0  0
   20.9087   16.0199   23.1746 H   0  0  0  0  0  0  0  0  0  0  0  0
   20.2605   15.3807   21.6554 H   0  0  0  0  0  0  0  0  0  0  0  0
   19.1914   17.7094   20.6956 N   0  3  0  0  0  0  0  0  0  0  0  0
   19.2654   18.6231   20.2405 H   0  0  0  0  0  0  0  0  0  0  0  0
   19.3117   16.9960   19.9711 H   0  0  0  0  0  0  0  0  0  0  0  0
   18.2384   17.6211   21.0576 H   0  0  0  0  0  0  0  0  0  0  0  0
  1  2  1  0  0  0  0
  1  3  1  0  0  0  0
  1  4  1  0  0  0  0
  1  5  1  0  0  0  0
  5  6  1  0  0  0  0
  5  7  1  0  0  0  0
  5  8  1  0  0  0  0
  8  9  1  0  0  0  0
  8 10  1  0  0  0  0
  8 11  1  0  0  0  0
 11 12  1  0  0  0  0
 11 13  1  0  0  0  0
 11 14  1  0  0  0  0
 14 15  1  0  0  0  0
 14 16  1  0  0  0  0
 14 17  1  0  0  0  0
 17 18  1  0  0  0  0
 17 19  1  0  0  0  0
 19 20  1  0  0  0  0
 19 21  1  0  0  0  0
 19 22  1  0  0  0  0
 17 23  1  0  0  0  0
 23 24  1  0  0  0  0
 23 25  1  0  0  0  0
 23 26  1  0  0  0  0
M  END
> <VConfSearch Rank>
340

> <Conf_Id>
107

> <Delta U+W>
2.995

> <U+W>
-27.304

> <U>
26.796

> <W>
-54.100

> <W(PB)>
-56.404

> <W(SA)>
2.304

> <Valence>
5.706

> <Coulomb>
20.107

> <VdW>
0.982

> <VdW6>
-8.396

> <VdW12>
9.378

> <Bond>
0.254

> <Angle>
1.644

> <Pdih>
3.808

> <Idih>
0.000

> <Tether>
0.000

$$$$
VeraChem MOL file


 26 25  0  0  0  0  0  0  0  0999 V2000     
   16.2618   19.5350   25.1046 C   0  0  0  0  0  0  0  0  0  0  0  0
   15.5780   19.5768   24.2467 H   0  0  0  0  0  0  0  0  0  0  0  0
   15.7431   19.0207   25.9241 H   0  0  0  0  0  0  0  0  0  0  0  0
   16.4671   20.5636   25.4287 H   0  0  0  0  0  0  0  0  0  0  0  0
   17.5673   18.7977   24.7381 C   0  0  0  0  0  0  0  0  0  0  0  0
   17.3333   17.7629   24.4511 H   0  0  0  0  0  0  0  0  0  0  0  0
   18.2154   18.7421   25.6241 H   0  0  0  0  0  0  0  0  0  0  0  0
   18.3177   19.5017   23.5859 C   0  0  0  0  0  0  0  0  0  0  0  0
   17.6642   19.5575   22.7042 H   0  0  0  0  0  0  0  0  0  0  0  0
   18.5478   20.5360   23.8768 H   0  0  0  0  0  0  0  0  0  0  0  0
   19.6253   18.7659   23.2154 C   0  0  0  0  0  0  0  0  0  0  0  0
   19.3933   17.7327   22.9213 H   0  0  0  0  0  0  0  0  0  0  0  0
   20.2693   18.7086   24.1030 H   0  0  0  0  0  0  0  0  0  0  0  0
   20.3756   19.4745   22.0615 C   0  0  0  0  0  0  0  0  0  0  0  0
   19.6971   19.5705   21.2033 H   0  0  0  0  0  0  0  0  0  0  0  0
   20.6440   20.4954   22.3644 H   0  0  0  0  0  0  0  0  0  0  0  0
   21.6431   18.7161   21.6110 C   0  0  1  0  0  0  0  0  0  0  0  0
   21.3536   17.6968   21.3375 H   0  0  0  0  0  0  0  0  0  0  0  0
   22.2583   19.3909   20.3745 C   0  0  0  0  0  0  0  0  0  0  0  0
   22.5687   20.4196   20.5966 H   0  0  0  0  0  0  0  0  0  0  0  0
   21.5373   19.4224   19.5482 H   0  0  0  0  0  0  0  0  0  0  0  0
   23.1384   18.8359   20.0267 H   0  0  0  0  0  0  0  0  0  0  0  0
   22.6642   18.5965   22.7094 N   0  3  0  0  0  0  0  0  0  0  0  0
   22.9843   19.5164   23.0234 H   0  0  0  0  0  0  0  0  0  0  0  0
   22.2825   18.1080   23.5236 H   0  0  0  0  0  0  0  0  0  0  0  0
   23.4887   18.0749   22.3985 H   0  0  0  0  0  0  0  0  0  0  0  0
  1  2  1  0  0  0  0
  1  3  1  0  0  0  0
  1  4  1  0  0  0  0
  1  5  1  0  0  0  0
  5  6  1  0  0  0  0
  5  7  1  0  0  0  0
  5  8  1  0  0  0  0
  8  9  1  0  0  0  0
  8 10  1  0  0  0  0
  8 11  1  0  0  0  0
 11 12  1  0  0  0  0
 11 13  1  0  0  0  0
 11 14  1  0  0  0  0
 14 15  1  0  0  0  0
 14 16  1  0  0  0  0
 14 17  1  0  0  0  0
 17 18  1  0  0  0  0
 17 19  1  0  0  0  0
 19 20  1  0  0  0  0
 19 21  1  0  0  0  0
 19 22  1  0  0  0  0
 17 23  1  0  0  0  0
 23 24  1  0  0  0  0
 23 25  1  0  0  0  0
 23 26  1  0  0  0  0
M  END
> <VConfSearch Rank>
341

> <Conf_Id>
122

> <Delta U+W>
0.000

> <U+W>
-30.299

> <U>
23.517

> <W>
-53.816

> <W(PB)>
-56.162

> <W(SA)>
2.346

> <Valence>
2.737

> <Coulomb>
19.862

> <VdW>
0.919

> <VdW6>
-6.793

> <VdW12>
7.712

> <Bond>
0.171

> <Angle>
0.873

> <Pdih>
1.693

> <Idih>
0.000

> <Tether>
0.000

$$$$
VeraChem MOL file


 26 25  0  0  0  0  0  0  0  0999 V2000     
   16.5593   21.4265   24.2919 C   0  0  0  0  0  0  0  0  0  0  0  0
   16.2395   22.4764   24.2719 H   0  0  0  0  0  0  0  0  0  0  0  0
   15.7647   20.8234   23.8336 H   0  0  0  0  0  0  0  0  0  0  0  0
   16.6556   21.1236   25.3427 H   0  0  0  0  0  0  0  0  0  0  0  0
   17.8948   21.2492   23.5388 C   0  0  0  0  0  0  0  0  0  0  0  0
   18.6603   21.8898   23.9988 H   0  0  0  0  0  0  0  0  0  0  0  0
   17.7765   21.5918   22.5012 H   0  0  0  0  0  0  0  0  0  0  0  0
   18.3681   19.7788   23.5518 C   0  0  0  0  0  0  0  0  0  0  0  0
   18.4832   19.4403   24.5909 H   0  0  0  0  0  0  0  0  0  0  0  0
   17.5978   19.1429   23.0939 H   0  0  0  0  0  0  0  0  0  0  0  0
   19.7053   19.5971   22.7981 C   0  0  0  0  0  0  0  0  0  0  0  0
   20.4646   20.2429   23.2582 H   0  0  0  0  0  0  0  0  0  0  0  0
   19.5880   19.9314   21.7579 H   0  0  0  0  0  0  0  0  0  0  0  0
   20.1792   18.1230   22.8168 C   0  0  0  0  0  0  0  0  0  0  0  0
   20.3604   17.8052   23.8522 H   0  0  0  0  0  0  0  0  0  0  0  0
   19.3672   17.4901   22.4348 H   0  0  0  0  0  0  0  0  0  0  0  0
   21.4427   17.8636   21.9645 C   0  0  1  0  0  0  0  0  0  0  0  0
   21.2523   18.2263   20.9497 H   0  0  0  0  0  0  0  0  0  0  0  0
   22.6779   18.5956   22.5197 C   0  0  0  0  0  0  0  0  0  0  0  0
   22.8725   18.3119   23.5615 H   0  0  0  0  0  0  0  0  0  0  0  0
   22.5498   19.6833   22.4774 H   0  0  0  0  0  0  0  0  0  0  0  0
   23.5693   18.3517   21.9288 H   0  0  0  0  0  0  0  0  0  0  0  0
   21.7219   16.3912   21.8429 N   0  3  0  0  0  0  0  0  0  0  0  0
   21.9148   15.9699   22.7556 H   0  0  0  0  0  0  0  0  0  0  0  0
   20.9287   15.8891   21.4339 H   0  0  0  0  0  0  0  0  0  0  0  0
   22.5348   16.2125   21.2465 H   0  0  0  0  0  0  0  0  0  0  0  0
  1  2  1  0  0  0  0
  1  3  1  0  0  0  0
  1  4  1  0  0  0  0
  1  5  1  0  0  0  0
  5  6  1  0  0  0  0
  5  7  1  0  0  0  0
  5  8  1  0  0  0  0
  8  9  1  0  0  0  0
  8 10  1  0  0  0  0
  8 11  1  0  0  0  0
 11 12  1  0  0  0  0
 11 13  1  0  0  0  0
 11 14  1  0  0  0  0
 14 15  1  0  0  0  0
 14 16  1  0  0  0  0
 14 17  1  0  0  0  0
 17 18  1  0  0  0  0
 17 19  1  0  0  0  0
 19 20  1  0  0  0  0
 19 21  1  0  0  0  0
 19 22  1  0  0  0  0
 17 23  1  0  0  0  0
 23 24  1  0  0  0  0
 23 25  1  0  0  0  0
 23 26  1  0  0  0  0
M  END
> <VConfSearch Rank>
342

> <Conf_Id>
54

> <Delta U+W>
0.453

> <U+W>
-29.845

> <U>
23.817

> <W>
-53.663

> <W(PB)>
-56.021

> <W(SA)>
2.358

> <Valence>
3.277

> <Coulomb>
19.492

> <VdW>
1.049

> <VdW6>
-6.949

> <VdW12>
7.998

> <Bond>
0.183

> <Angle>
1.152

> <Pdih>
1.942

> <Idih>
0.000

> <Tether>
0.000

$$$$
VeraChem MOL file


 26 25  0  0  0  0  0  0  0  0999 V2000     
   21.7451   21.5017   20.9570 C   0  0  0  0  0  0  0  0  0  0  0  0
   20.9996   22.2826   21.1552 H   0  0  0  0  0  0  0  0  0  0  0  0
   22.4229   21.4467   21.8175 H   0  0  0  0  0  0  0  0  0  0  0  0
   22.3399   21.8188   20.0906 H   0  0  0  0  0  0  0  0  0  0  0  0
   21.0652   20.1420   20.6762 C   0  0  0  0  0  0  0  0  0  0  0  0
   21.8307   19.3701   20.5150 H   0  0  0  0  0  0  0  0  0  0  0  0
   20.5045   20.2193   19.7342 H   0  0  0  0  0  0  0  0  0  0  0  0
   20.0930   19.6927   21.7942 C   0  0  0  0  0  0  0  0  0  0  0  0
   19.3491   20.4819   21.9706 H   0  0  0  0  0  0  0  0  0  0  0  0
   19.5495   18.8155   21.4236 H   0  0  0  0  0  0  0  0  0  0  0  0
   20.8058   19.3296   23.1213 C   0  0  0  0  0  0  0  0  0  0  0  0
   21.4521   20.1623   23.4260 H   0  0  0  0  0  0  0  0  0  0  0  0
   21.4725   18.4723   22.9548 H   0  0  0  0  0  0  0  0  0  0  0  0
   19.8555   19.0209   24.3086 C   0  0  0  0  0  0  0  0  0  0  0  0
   20.4865   18.8841   25.1970 H   0  0  0  0  0  0  0  0  0  0  0  0
   19.2228   19.8922   24.5236 H   0  0  0  0  0  0  0  0  0  0  0  0
   18.9755   17.7609   24.1289 C   0  0  1  0  0  0  0  0  0  0  0  0
   19.5691   16.9943   23.6214 H   0  0  0  0  0  0  0  0  0  0  0  0
   18.5451   17.2079   25.4978 C   0  0  0  0  0  0  0  0  0  0  0  0
   17.9331   16.3054   25.3776 H   0  0  0  0  0  0  0  0  0  0  0  0
   17.9585   17.9471   26.0577 H   0  0  0  0  0  0  0  0  0  0  0  0
   19.4195   16.9360   26.1022 H   0  0  0  0  0  0  0  0  0  0  0  0
   17.7584   18.0150   23.2814 N   0  3  0  0  0  0  0  0  0  0  0  0
   18.0118   18.3761   22.3592 H   0  0  0  0  0  0  0  0  0  0  0  0
   17.2164   17.1580   23.1393 H   0  0  0  0  0  0  0  0  0  0  0  0
   17.1371   18.6999   23.7198 H   0  0  0  0  0  0  0  0  0  0  0  0
  1  2  1  0  0  0  0
  1  3  1  0  0  0  0
  1  4  1  0  0  0  0
  1  5  1  0  0  0  0
  5  6  1  0  0  0  0
  5  7  1  0  0  0  0
  5  8  1  0  0  0  0
  8  9  1  0  0  0  0
  8 10  1  0  0  0  0
  8 11  1  0  0  0  0
 11 12  1  0  0  0  0
 11 13  1  0  0  0  0
 11 14  1  0  0  0  0
 14 15  1  0  0  0  0
 14 16  1  0  0  0  0
 14 17  1  0  0  0  0
 17 18  1  0  0  0  0
 17 19  1  0  0  0  0
 19 20  1  0  0  0  0
 19 21  1  0  0  0  0
 19 22  1  0  0  0  0
 17 23  1  0  0  0  0
 23 24  1  0  0  0  0
 23 25  1  0  0  0  0
 23 26  1  0  0  0  0
M  END
> <VConfSearch Rank>
343

> <Conf_Id>
110

> <Delta U+W>
3.764

> <U+W>
-26.535

> <U>
27.400

> <W>
-53.935

> <W(PB)>
-56.238

> <W(SA)>
2.303

> <Valence>
5.205

> <Coulomb>
21.096

> <VdW>
1.098

> <VdW6>
-8.389

> <VdW12>
9.488

> <Bond>
0.270

> <Angle>
1.912

> <Pdih>
3.023

> <Idih>
0.000

> <Tether>
0.000

$$$$
VeraChem MOL file


 26 25  0  0  0  0  0  0  0  0999 V2000     
   19.3409   22.6270   21.8200 C   0  0  0  0  0  0  0  0  0  0  0  0
   19.6050   23.6894   21.9001 H   0  0  0  0  0  0  0  0  0  0  0  0
   19.9592   22.1928   21.0246 H   0  0  0  0  0  0  0  0  0  0  0  0
   18.2892   22.5649   21.5117 H   0  0  0  0  0  0  0  0  0  0  0  0
   19.5674   21.9102   23.1704 C   0  0  0  0  0  0  0  0  0  0  0  0
   19.0241   22.4543   23.9556 H   0  0  0  0  0  0  0  0  0  0  0  0
   20.6312   21.9608   23.4414 H   0  0  0  0  0  0  0  0  0  0  0  0
   19.0972   20.4356   23.1718 C   0  0  0  0  0  0  0  0  0  0  0  0
   19.1892   20.0454   24.1925 H   0  0  0  0  0  0  0  0  0  0  0  0
   18.0269   20.3943   22.9273 H   0  0  0  0  0  0  0  0  0  0  0  0
   19.8877   19.5369   22.1860 C   0  0  0  0  0  0  0  0  0  0  0  0
   20.9693   19.6701   22.3268 H   0  0  0  0  0  0  0  0  0  0  0  0
   19.6715   19.8694   21.1621 H   0  0  0  0  0  0  0  0  0  0  0  0
   19.5174   18.0338   22.2938 C   0  0  0  0  0  0  0  0  0  0  0  0
   18.4895   17.9199   22.6632 H   0  0  0  0  0  0  0  0  0  0  0  0
   19.5178   17.6151   21.2787 H   0  0  0  0  0  0  0  0  0  0  0  0
   20.4904   17.1849   23.1474 C   0  0  1  0  0  0  0  0  0  0  0  0
   21.4935   17.2880   22.7221 H   0  0  0  0  0  0  0  0  0  0  0  0
   20.5449   17.6351   24.6170 C   0  0  0  0  0  0  0  0  0  0  0  0
   19.5463   17.6316   25.0714 H   0  0  0  0  0  0  0  0  0  0  0  0
   20.9647   18.6439   24.7043 H   0  0  0  0  0  0  0  0  0  0  0  0
   21.1878   16.9667   25.2028 H   0  0  0  0  0  0  0  0  0  0  0  0
   20.1459   15.7236   23.0644 N   0  3  0  0  0  0  0  0  0  0  0  0
   20.1518   15.3887   22.0967 H   0  0  0  0  0  0  0  0  0  0  0  0
   20.8142   15.1514   23.5881 H   0  0  0  0  0  0  0  0  0  0  0  0
   19.2163   15.5359   23.4491 H   0  0  0  0  0  0  0  0  0  0  0  0
  1  2  1  0  0  0  0
  1  3  1  0  0  0  0
  1  4  1  0  0  0  0
  1  5  1  0  0  0  0
  5  6  1  0  0  0  0
  5  7  1  0  0  0  0
  5  8  1  0  0  0  0
  8  9  1  0  0  0  0
  8 10  1  0  0  0  0
  8 11  1  0  0  0  0
 11 12  1  0  0  0  0
 11 13  1  0  0  0  0
 11 14  1  0  0  0  0
 14 15  1  0  0  0  0
 14 16  1  0  0  0  0
 14 17  1  0  0  0  0
 17 18  1  0  0  0  0
 17 19  1  0  0  0  0
 19 20  1  0  0  0  0
 19 21  1  0  0  0  0
 19 22  1  0  0  0  0
 17 23  1  0  0  0  0
 23 24  1  0  0  0  0
 23 25  1  0  0  0  0
 23 26  1  0  0  0  0
M  END
> <VConfSearch Rank>
344

> <Conf_Id>
34

> <Delta U+W>
3.568

> <U+W>
-26.731

> <U>
27.221

> <W>
-53.952

> <W(PB)>
-56.213

> <W(SA)>
2.261

> <Valence>
6.368

> <Coulomb>
19.698

> <VdW>
1.155

> <VdW6>
-8.532

> <VdW12>
9.687

> <Bond>
0.272

> <Angle>
1.847

> <Pdih>
4.248

> <Idih>
0.000

> <Tether>
0.000

$$$$
VeraChem MOL file


 26 25  0  0  0  0  0  0  0  0999 V2000     
   17.5868   20.8885   25.8303 C   0  0  0  0  0  0  0  0  0  0  0  0
   17.1788   21.7145   25.2332 H   0  0  0  0  0  0  0  0  0  0  0  0
   16.8108   20.1175   25.9226 H   0  0  0  0  0  0  0  0  0  0  0  0
   17.8007   21.2733   26.8360 H   0  0  0  0  0  0  0  0  0  0  0  0
   18.8650   20.3146   25.1831 C   0  0  0  0  0  0  0  0  0  0  0  0
   19.2680   19.5144   25.8196 H   0  0  0  0  0  0  0  0  0  0  0  0
   19.6332   21.0992   25.1356 H   0  0  0  0  0  0  0  0  0  0  0  0
   18.5913   19.7658   23.7653 C   0  0  0  0  0  0  0  0  0  0  0  0
   17.8211   18.9839   23.8182 H   0  0  0  0  0  0  0  0  0  0  0  0
   18.1862   20.5687   23.1339 H   0  0  0  0  0  0  0  0  0  0  0  0
   19.8690   19.1903   23.1134 C   0  0  0  0  0  0  0  0  0  0  0  0
   20.2691   18.3903   23.7502 H   0  0  0  0  0  0  0  0  0  0  0  0
   20.6332   19.9775   23.0697 H   0  0  0  0  0  0  0  0  0  0  0  0
   19.5879   18.6438   21.6893 C   0  0  0  0  0  0  0  0  0  0  0  0
   18.7879   17.8938   21.7425 H   0  0  0  0  0  0  0  0  0  0  0  0
   19.1994   19.4551   21.0595 H   0  0  0  0  0  0  0  0  0  0  0  0
   20.8080   18.0071   20.9826 C   0  0  1  0  0  0  0  0  0  0  0  0
   20.4649   17.6401   20.0102 H   0  0  0  0  0  0  0  0  0  0  0  0
   21.9268   19.0314   20.7241 C   0  0  0  0  0  0  0  0  0  0  0  0
   22.3879   19.3734   21.6583 H   0  0  0  0  0  0  0  0  0  0  0  0
   21.5378   19.9078   20.1911 H   0  0  0  0  0  0  0  0  0  0  0  0
   22.7160   18.5887   20.1041 H   0  0  0  0  0  0  0  0  0  0  0  0
   21.3360   16.8062   21.7183 N   0  3  0  0  0  0  0  0  0  0  0  0
   22.1017   16.3601   21.2054 H   0  0  0  0  0  0  0  0  0  0  0  0
   21.6941   17.0634   22.6413 H   0  0  0  0  0  0  0  0  0  0  0  0
   20.6077   16.0996   21.8556 H   0  0  0  0  0  0  0  0  0  0  0  0
  1  2  1  0  0  0  0
  1  3  1  0  0  0  0
  1  4  1  0  0  0  0
  1  5  1  0  0  0  0
  5  6  1  0  0  0  0
  5  7  1  0  0  0  0
  5  8  1  0  0  0  0
  8  9  1  0  0  0  0
  8 10  1  0  0  0  0
  8 11  1  0  0  0  0
 11 12  1  0  0  0  0
 11 13  1  0  0  0  0
 11 14  1  0  0  0  0
 14 15  1  0  0  0  0
 14 16  1  0  0  0  0
 14 17  1  0  0  0  0
 17 18  1  0  0  0  0
 17 19  1  0  0  0  0
 19 20  1  0  0  0  0
 19 21  1  0  0  0  0
 19 22  1  0  0  0  0
 17 23  1  0  0  0  0
 23 24  1  0  0  0  0
 23 25  1  0  0  0  0
 23 26  1  0  0  0  0
M  END
> <VConfSearch Rank>
345

> <Conf_Id>
132

> <Delta U+W>
0.363

> <U+W>
-29.936

> <U>
24.060

> <W>
-53.996

> <W(PB)>
-56.327

> <W(SA)>
2.332

> <Valence>
3.249

> <Coulomb>
19.781

> <VdW>
1.030

> <VdW6>
-7.421

> <VdW12>
8.451

> <Bond>
0.207

> <Angle>
1.205

> <Pdih>
1.837

> <Idih>
0.000

> <Tether>
0.000

$$$$
VeraChem MOL file


 26 25  0  0  0  0  0  0  0  0999 V2000     
   22.5770   16.3003   22.9337 C   0  0  0  0  0  0  0  0  0  0  0  0
   22.3635   15.2290   23.0422 H   0  0  0  0  0  0  0  0  0  0  0  0
   23.1973   16.4309   22.0374 H   0  0  0  0  0  0  0  0  0  0  0  0
   23.1645   16.6168   23.8054 H   0  0  0  0  0  0  0  0  0  0  0  0
   21.2667   17.1088   22.8252 C   0  0  0  0  0  0  0  0  0  0  0  0
   20.6575   16.9194   23.7187 H   0  0  0  0  0  0  0  0  0  0  0  0
   20.6882   16.7500   21.9624 H   0  0  0  0  0  0  0  0  0  0  0  0
   21.5429   18.6238   22.6760 C   0  0  0  0  0  0  0  0  0  0  0  0
   22.0731   18.9934   23.5645 H   0  0  0  0  0  0  0  0  0  0  0  0
   22.2218   18.7792   21.8261 H   0  0  0  0  0  0  0  0  0  0  0  0
   20.2663   19.4691   22.4432 C   0  0  0  0  0  0  0  0  0  0  0  0
   19.7460   19.0982   21.5502 H   0  0  0  0  0  0  0  0  0  0  0  0
   20.5795   20.4961   22.2158 H   0  0  0  0  0  0  0  0  0  0  0  0
   19.3016   19.4771   23.6608 C   0  0  0  0  0  0  0  0  0  0  0  0
   18.9631   18.4550   23.8690 H   0  0  0  0  0  0  0  0  0  0  0  0
   19.8478   19.8039   24.5554 H   0  0  0  0  0  0  0  0  0  0  0  0
   18.0471   20.3667   23.4911 C   0  0  1  0  0  0  0  0  0  0  0  0
   17.4342   20.2368   24.3885 H   0  0  0  0  0  0  0  0  0  0  0  0
   18.4030   21.8602   23.3865 C   0  0  0  0  0  0  0  0  0  0  0  0
   18.9327   22.0882   22.4541 H   0  0  0  0  0  0  0  0  0  0  0  0
   19.0362   22.1702   24.2270 H   0  0  0  0  0  0  0  0  0  0  0  0
   17.4936   22.4730   23.4122 H   0  0  0  0  0  0  0  0  0  0  0  0
   17.1888   19.9344   22.3341 N   0  3  0  0  0  0  0  0  0  0  0  0
   16.9085   18.9534   22.4203 H   0  0  0  0  0  0  0  0  0  0  0  0
   16.3327   20.4929   22.2741 H   0  0  0  0  0  0  0  0  0  0  0  0
   17.6847   20.0366   21.4454 H   0  0  0  0  0  0  0  0  0  0  0  0
  1  2  1  0  0  0  0
  1  3  1  0  0  0  0
  1  4  1  0  0  0  0
  1  5  1  0  0  0  0
  5  6  1  0  0  0  0
  5  7  1  0  0  0  0
  5  8  1  0  0  0  0
  8  9  1  0  0  0  0
  8 10  1  0  0  0  0
  8 11  1  0  0  0  0
 11 12  1  0  0  0  0
 11 13  1  0  0  0  0
 11 14  1  0  0  0  0
 14 15  1  0  0  0  0
 14 16  1  0  0  0  0
 14 17  1  0  0  0  0
 17 18  1  0  0  0  0
 17 19  1  0  0  0  0
 19 20  1  0  0  0  0
 19 21  1  0  0  0  0
 19 22  1  0  0  0  0
 17 23  1  0  0  0  0
 23 24  1  0  0  0  0
 23 25  1  0  0  0  0
 23 26  1  0  0  0  0
M  END
> <VConfSearch Rank>
346

> <Conf_Id>
46

> <Delta U+W>
1.114

> <U+W>
-29.185

> <U>
24.990

> <W>
-54.175

> <W(PB)>
-56.455

> <W(SA)>
2.279

> <Valence>
3.862

> <Coulomb>
19.956

> <VdW>
1.172

> <VdW6>
-8.054

> <VdW12>
9.226

> <Bond>
0.258

> <Angle>
1.499

> <Pdih>
2.106

> <Idih>
0.000

> <Tether>
0.000

$$$$
VeraChem MOL file


 26 25  0  0  0  0  0  0  0  0999 V2000     
   18.1973   16.8090   25.2741 C   0  0  0  0  0  0  0  0  0  0  0  0
   17.3991   16.9603   24.5370 H   0  0  0  0  0  0  0  0  0  0  0  0
   18.7725   15.9209   24.9819 H   0  0  0  0  0  0  0  0  0  0  0  0
   17.7184   16.5959   26.2385 H   0  0  0  0  0  0  0  0  0  0  0  0
   19.1107   18.0507   25.3871 C   0  0  0  0  0  0  0  0  0  0  0  0
   19.8089   17.8999   26.2223 H   0  0  0  0  0  0  0  0  0  0  0  0
   18.5070   18.9315   25.6469 H   0  0  0  0  0  0  0  0  0  0  0  0
   19.9279   18.3352   24.1037 C   0  0  0  0  0  0  0  0  0  0  0  0
   20.6341   19.1465   24.3235 H   0  0  0  0  0  0  0  0  0  0  0  0
   20.5363   17.4548   23.8546 H   0  0  0  0  0  0  0  0  0  0  0  0
   19.0495   18.7241   22.8873 C   0  0  0  0  0  0  0  0  0  0  0  0
   18.4195   19.5861   23.1435 H   0  0  0  0  0  0  0  0  0  0  0  0
   18.3599   17.9020   22.6563 H   0  0  0  0  0  0  0  0  0  0  0  0
   19.8744   19.0292   21.6103 C   0  0  0  0  0  0  0  0  0  0  0  0
   20.4268   18.1247   21.3227 H   0  0  0  0  0  0  0  0  0  0  0  0
   19.1849   19.2428   20.7828 H   0  0  0  0  0  0  0  0  0  0  0  0
   20.8705   20.2015   21.7586 C   0  0  1  0  0  0  0  0  0  0  0  0
   21.5662   19.9634   22.5684 H   0  0  0  0  0  0  0  0  0  0  0  0
   21.6840   20.3783   20.4666 C   0  0  0  0  0  0  0  0  0  0  0  0
   22.4209   21.1831   20.5789 H   0  0  0  0  0  0  0  0  0  0  0  0
   21.0338   20.6260   19.6183 H   0  0  0  0  0  0  0  0  0  0  0  0
   22.2302   19.4589   20.2214 H   0  0  0  0  0  0  0  0  0  0  0  0
   20.1901   21.4886   22.1367 N   0  3  0  0  0  0  0  0  0  0  0  0
   19.6766   21.3926   23.0169 H   0  0  0  0  0  0  0  0  0  0  0  0
   20.8654   22.2489   22.2558 H   0  0  0  0  0  0  0  0  0  0  0  0
   19.5215   21.7817   21.4196 H   0  0  0  0  0  0  0  0  0  0  0  0
  1  2  1  0  0  0  0
  1  3  1  0  0  0  0
  1  4  1  0  0  0  0
  1  5  1  0  0  0  0
  5  6  1  0  0  0  0
  5  7  1  0  0  0  0
  5  8  1  0  0  0  0
  8  9  1  0  0  0  0
  8 10  1  0  0  0  0
  8 11  1  0  0  0  0
 11 12  1  0  0  0  0
 11 13  1  0  0  0  0
 11 14  1  0  0  0  0
 14 15  1  0  0  0  0
 14 16  1  0  0  0  0
 14 17  1  0  0  0  0
 17 18  1  0  0  0  0
 17 19  1  0  0  0  0
 19 20  1  0  0  0  0
 19 21  1  0  0  0  0
 19 22  1  0  0  0  0
 17 23  1  0  0  0  0
 23 24  1  0  0  0  0
 23 25  1  0  0  0  0
 23 26  1  0  0  0  0
M  END
> <VConfSearch Rank>
347

> <Conf_Id>
113

> <Delta U+W>
1.137

> <U+W>
-29.162

> <U>
24.833

> <W>
-53.995

> <W(PB)>
-56.288

> <W(SA)>
2.294

> <Valence>
3.589

> <Coulomb>
20.270

> <VdW>
0.974

> <VdW6>
-8.255

> <VdW12>
9.229

> <Bond>
0.244

> <Angle>
1.377

> <Pdih>
1.967

> <Idih>
0.000

> <Tether>
0.000

$$$$
VeraChem MOL file


 26 25  0  0  0  0  0  0  0  0999 V2000     
   17.1560   16.3075   22.3323 C   0  0  0  0  0  0  0  0  0  0  0  0
   16.6611   15.7355   23.1278 H   0  0  0  0  0  0  0  0  0  0  0  0
   16.3893   16.8994   21.8157 H   0  0  0  0  0  0  0  0  0  0  0  0
   17.5764   15.5912   21.6144 H   0  0  0  0  0  0  0  0  0  0  0  0
   18.2566   17.2169   22.9189 C   0  0  0  0  0  0  0  0  0  0  0  0
   18.9920   16.5997   23.4537 H   0  0  0  0  0  0  0  0  0  0  0  0
   17.8048   17.8889   23.6603 H   0  0  0  0  0  0  0  0  0  0  0  0
   18.9661   18.0371   21.8156 C   0  0  0  0  0  0  0  0  0  0  0  0
   19.3393   17.3491   21.0444 H   0  0  0  0  0  0  0  0  0  0  0  0
   18.2396   18.6933   21.3168 H   0  0  0  0  0  0  0  0  0  0  0  0
   20.1556   18.8802   22.3376 C   0  0  0  0  0  0  0  0  0  0  0  0
   20.6638   19.3254   21.4723 H   0  0  0  0  0  0  0  0  0  0  0  0
   20.8846   18.2131   22.8164 H   0  0  0  0  0  0  0  0  0  0  0  0
   19.7290   20.0023   23.3232 C   0  0  0  0  0  0  0  0  0  0  0  0
   18.9228   20.5941   22.8704 H   0  0  0  0  0  0  0  0  0  0  0  0
   19.3047   19.5554   24.2309 H   0  0  0  0  0  0  0  0  0  0  0  0
   20.8657   20.9639   23.7435 C   0  0  1  0  0  0  0  0  0  0  0  0
   20.4310   21.7030   24.4236 H   0  0  0  0  0  0  0  0  0  0  0  0
   21.9873   20.2347   24.5038 C   0  0  0  0  0  0  0  0  0  0  0  0
   22.5321   19.5397   23.8539 H   0  0  0  0  0  0  0  0  0  0  0  0
   21.5798   19.6672   25.3497 H   0  0  0  0  0  0  0  0  0  0  0  0
   22.7105   20.9554   24.9046 H   0  0  0  0  0  0  0  0  0  0  0  0
   21.4197   21.7431   22.5823 N   0  3  0  0  0  0  0  0  0  0  0  0
   20.6856   22.2658   22.0962 H   0  0  0  0  0  0  0  0  0  0  0  0
   22.1249   22.4196   22.8882 H   0  0  0  0  0  0  0  0  0  0  0  0
   21.8636   21.1261   21.8979 H   0  0  0  0  0  0  0  0  0  0  0  0
  1  2  1  0  0  0  0
  1  3  1  0  0  0  0
  1  4  1  0  0  0  0
  1  5  1  0  0  0  0
  5  6  1  0  0  0  0
  5  7  1  0  0  0  0
  5  8  1  0  0  0  0
  8  9  1  0  0  0  0
  8 10  1  0  0  0  0
  8 11  1  0  0  0  0
 11 12  1  0  0  0  0
 11 13  1  0  0  0  0
 11 14  1  0  0  0  0
 14 15  1  0  0  0  0
 14 16  1  0  0  0  0
 14 17  1  0  0  0  0
 17 18  1  0  0  0  0
 17 19  1  0  0  0  0
 19 20  1  0  0  0  0
 19 21  1  0  0  0  0
 19 22  1  0  0  0  0
 17 23  1  0  0  0  0
 23 24  1  0  0  0  0
 23 25  1  0  0  0  0
 23 26  1  0  0  0  0
M  END
> <VConfSearch Rank>
348

> <Conf_Id>
45

> <Delta U+W>
1.035

> <U+W>
-29.264

> <U>
24.725

> <W>
-53.989

> <W(PB)>
-56.298

> <W(SA)>
2.309

> <Valence>
3.780

> <Coulomb>
19.804

> <VdW>
1.141

> <VdW6>
-8.104

> <VdW12>
9.246

> <Bond>
0.254

> <Angle>
1.437

> <Pdih>
2.089

> <Idih>
0.000

> <Tether>
0.000

$$$$
VeraChem MOL file


 26 25  0  0  0  0  0  0  0  0999 V2000     
   15.8805   18.4852   23.0226 C   0  0  0  0  0  0  0  0  0  0  0  0
   15.3347   17.9556   22.2309 H   0  0  0  0  0  0  0  0  0  0  0  0
   15.5534   18.0771   23.9878 H   0  0  0  0  0  0  0  0  0  0  0  0
   15.5901   19.5432   22.9825 H   0  0  0  0  0  0  0  0  0  0  0  0
   17.4040   18.3211   22.8376 C   0  0  0  0  0  0  0  0  0  0  0  0
   17.6842   18.7017   21.8466 H   0  0  0  0  0  0  0  0  0  0  0  0
   17.6594   17.2524   22.8531 H   0  0  0  0  0  0  0  0  0  0  0  0
   18.1950   19.0638   23.9405 C   0  0  0  0  0  0  0  0  0  0  0  0
   17.9826   20.1405   23.8880 H   0  0  0  0  0  0  0  0  0  0  0  0
   17.8359   18.7272   24.9229 H   0  0  0  0  0  0  0  0  0  0  0  0
   19.7249   18.8320   23.8737 C   0  0  0  0  0  0  0  0  0  0  0  0
   19.9357   17.7549   23.9282 H   0  0  0  0  0  0  0  0  0  0  0  0
   20.1748   19.2805   24.7690 H   0  0  0  0  0  0  0  0  0  0  0  0
   20.3871   19.4307   22.6058 C   0  0  0  0  0  0  0  0  0  0  0  0
   19.9521   18.9629   21.7140 H   0  0  0  0  0  0  0  0  0  0  0  0
   20.1620   20.5034   22.5402 H   0  0  0  0  0  0  0  0  0  0  0  0
   21.9164   19.2183   22.5678 C   0  0  1  0  0  0  0  0  0  0  0  0
   22.1164   18.1472   22.6708 H   0  0  0  0  0  0  0  0  0  0  0  0
   22.4876   19.6879   21.2202 C   0  0  0  0  0  0  0  0  0  0  0  0
   22.3129   20.7603   21.0669 H   0  0  0  0  0  0  0  0  0  0  0  0
   22.0229   19.1438   20.3885 H   0  0  0  0  0  0  0  0  0  0  0  0
   23.5685   19.5074   21.1724 H   0  0  0  0  0  0  0  0  0  0  0  0
   22.6238   19.9029   23.7056 N   0  3  0  0  0  0  0  0  0  0  0  0
   22.2885   19.5664   24.6121 H   0  0  0  0  0  0  0  0  0  0  0  0
   23.6336   19.7364   23.6725 H   0  0  0  0  0  0  0  0  0  0  0  0
   22.4795   20.9157   23.6798 H   0  0  0  0  0  0  0  0  0  0  0  0
  1  2  1  0  0  0  0
  1  3  1  0  0  0  0
  1  4  1  0  0  0  0
  1  5  1  0  0  0  0
  5  6  1  0  0  0  0
  5  7  1  0  0  0  0
  5  8  1  0  0  0  0
  8  9  1  0  0  0  0
  8 10  1  0  0  0  0
  8 11  1  0  0  0  0
 11 12  1  0  0  0  0
 11 13  1  0  0  0  0
 11 14  1  0  0  0  0
 14 15  1  0  0  0  0
 14 16  1  0  0  0  0
 14 17  1  0  0  0  0
 17 18  1  0  0  0  0
 17 19  1  0  0  0  0
 19 20  1  0  0  0  0
 19 21  1  0  0  0  0
 19 22  1  0  0  0  0
 17 23  1  0  0  0  0
 23 24  1  0  0  0  0
 23 25  1  0  0  0  0
 23 26  1  0  0  0  0
M  END
> <VConfSearch Rank>
349

> <Conf_Id>
121

> <Delta U+W>
0.736

> <U+W>
-29.562

> <U>
24.282

> <W>
-53.844

> <W(PB)>
-56.205

> <W(SA)>
2.361

> <Valence>
3.311

> <Coulomb>
19.887

> <VdW>
1.083

> <VdW6>
-7.444

> <VdW12>
8.527

> <Bond>
0.219

> <Angle>
1.167

> <Pdih>
1.926

> <Idih>
0.000

> <Tether>
0.000

$$$$
VeraChem MOL file


 26 25  0  0  0  0  0  0  0  0999 V2000     
   16.7333   18.2311   21.1977 C   0  0  0  0  0  0  0  0  0  0  0  0
   15.6673   17.9692   21.2026 H   0  0  0  0  0  0  0  0  0  0  0  0
   16.9242   18.8428   20.3064 H   0  0  0  0  0  0  0  0  0  0  0  0
   17.3007   17.2972   21.1026 H   0  0  0  0  0  0  0  0  0  0  0  0
   17.1076   18.9959   22.4876 C   0  0  0  0  0  0  0  0  0  0  0  0
   16.9401   18.3514   23.3619 H   0  0  0  0  0  0  0  0  0  0  0  0
   16.4260   19.8505   22.6012 H   0  0  0  0  0  0  0  0  0  0  0  0
   18.5641   19.5199   22.4945 C   0  0  0  0  0  0  0  0  0  0  0  0
   18.7237   20.1701   21.6233 H   0  0  0  0  0  0  0  0  0  0  0  0
   18.6926   20.1535   23.3818 H   0  0  0  0  0  0  0  0  0  0  0  0
   19.6253   18.3904   22.5057 C   0  0  0  0  0  0  0  0  0  0  0  0
   19.5058   17.7666   21.6105 H   0  0  0  0  0  0  0  0  0  0  0  0
   19.4529   17.7255   23.3622 H   0  0  0  0  0  0  0  0  0  0  0  0
   21.0827   18.9206   22.5269 C   0  0  0  0  0  0  0  0  0  0  0  0
   21.7724   18.0664   22.5051 H   0  0  0  0  0  0  0  0  0  0  0  0
   21.2613   19.4790   21.5985 H   0  0  0  0  0  0  0  0  0  0  0  0
   21.4371   19.8296   23.7277 C   0  0  1  0  0  0  0  0  0  0  0  0
   20.7516   20.6821   23.7304 H   0  0  0  0  0  0  0  0  0  0  0  0
   21.3023   19.0922   25.0718 C   0  0  0  0  0  0  0  0  0  0  0  0
   21.9306   18.1932   25.0960 H   0  0  0  0  0  0  0  0  0  0  0  0
   20.2646   18.7918   25.2582 H   0  0  0  0  0  0  0  0  0  0  0  0
   21.6059   19.7421   25.9016 H   0  0  0  0  0  0  0  0  0  0  0  0
   22.8196   20.4028   23.5836 N   0  3  0  0  0  0  0  0  0  0  0  0
   22.9190   20.9347   22.7142 H   0  0  0  0  0  0  0  0  0  0  0  0
   23.0443   21.0370   24.3555 H   0  0  0  0  0  0  0  0  0  0  0  0
   23.5311   19.6670   23.5766 H   0  0  0  0  0  0  0  0  0  0  0  0
  1  2  1  0  0  0  0
  1  3  1  0  0  0  0
  1  4  1  0  0  0  0
  1  5  1  0  0  0  0
  5  6  1  0  0  0  0
  5  7  1  0  0  0  0
  5  8  1  0  0  0  0
  8  9  1  0  0  0  0
  8 10  1  0  0  0  0
  8 11  1  0  0  0  0
 11 12  1  0  0  0  0
 11 13  1  0  0  0  0
 11 14  1  0  0  0  0
 14 15  1  0  0  0  0
 14 16  1  0  0  0  0
 14 17  1  0  0  0  0
 17 18  1  0  0  0  0
 17 19  1  0  0  0  0
 19 20  1  0  0  0  0
 19 21  1  0  0  0  0
 19 22  1  0  0  0  0
 17 23  1  0  0  0  0
 23 24  1  0  0  0  0
 23 25  1  0  0  0  0
 23 26  1  0  0  0  0
M  END
> <VConfSearch Rank>
350

> <Conf_Id>
5

> <Delta U+W>
1.233

> <U+W>
-29.065

> <U>
25.023

> <W>
-54.088

> <W(PB)>
-56.383

> <W(SA)>
2.296

> <Valence>
4.083

> <Coulomb>
19.893

> <VdW>
1.047

> <VdW6>
-8.479

> <VdW12>
9.527

> <Bond>
0.256

> <Angle>
1.716

> <Pdih>
2.112

> <Idih>
0.000

> <Tether>
0.000

$$$$
VeraChem MOL file


 26 25  0  0  0  0  0  0  0  0999 V2000     
   19.8047   17.5522   19.6501 C   0  0  0  0  0  0  0  0  0  0  0  0
   19.7006   16.6892   18.9798 H   0  0  0  0  0  0  0  0  0  0  0  0
   18.9075   18.1716   19.5297 H   0  0  0  0  0  0  0  0  0  0  0  0
   20.6729   18.1343   19.3148 H   0  0  0  0  0  0  0  0  0  0  0  0
   19.9813   17.0823   21.1120 C   0  0  0  0  0  0  0  0  0  0  0  0
   20.8130   16.3651   21.1528 H   0  0  0  0  0  0  0  0  0  0  0  0
   19.0861   16.5327   21.4353 H   0  0  0  0  0  0  0  0  0  0  0  0
   20.2743   18.2361   22.1014 C   0  0  0  0  0  0  0  0  0  0  0  0
   20.5212   17.7909   23.0739 H   0  0  0  0  0  0  0  0  0  0  0  0
   21.1668   18.7848   21.7705 H   0  0  0  0  0  0  0  0  0  0  0  0
   19.0880   19.2174   22.2736 C   0  0  0  0  0  0  0  0  0  0  0  0
   18.2075   18.6669   22.6325 H   0  0  0  0  0  0  0  0  0  0  0  0
   18.8126   19.6357   21.2970 H   0  0  0  0  0  0  0  0  0  0  0  0
   19.3802   20.3993   23.2328 C   0  0  0  0  0  0  0  0  0  0  0  0
   20.2046   21.0084   22.8385 H   0  0  0  0  0  0  0  0  0  0  0  0
   18.4994   21.0549   23.2241 H   0  0  0  0  0  0  0  0  0  0  0  0
   19.6764   19.9646   24.6889 C   0  0  1  0  0  0  0  0  0  0  0  0
   19.3148   18.9400   24.8194 H   0  0  0  0  0  0  0  0  0  0  0  0
   21.1850   19.9986   24.9945 C   0  0  0  0  0  0  0  0  0  0  0  0
   21.5784   21.0207   24.9279 H   0  0  0  0  0  0  0  0  0  0  0  0
   21.7512   19.3741   24.2946 H   0  0  0  0  0  0  0  0  0  0  0  0
   21.3826   19.6249   26.0067 H   0  0  0  0  0  0  0  0  0  0  0  0
   18.9285   20.8027   25.6894 N   0  3  0  0  0  0  0  0  0  0  0  0
   17.9168   20.7585   25.5364 H   0  0  0  0  0  0  0  0  0  0  0  0
   19.1050   20.4878   26.6476 H   0  0  0  0  0  0  0  0  0  0  0  0
   19.2056   21.7865   25.6356 H   0  0  0  0  0  0  0  0  0  0  0  0
  1  2  1  0  0  0  0
  1  3  1  0  0  0  0
  1  4  1  0  0  0  0
  1  5  1  0  0  0  0
  5  6  1  0  0  0  0
  5  7  1  0  0  0  0
  5  8  1  0  0  0  0
  8  9  1  0  0  0  0
  8 10  1  0  0  0  0
  8 11  1  0  0  0  0
 11 12  1  0  0  0  0
 11 13  1  0  0  0  0
 11 14  1  0  0  0  0
 14 15  1  0  0  0  0
 14 16  1  0  0  0  0
 14 17  1  0  0  0  0
 17 18  1  0  0  0  0
 17 19  1  0  0  0  0
 19 20  1  0  0  0  0
 19 21  1  0  0  0  0
 19 22  1  0  0  0  0
 17 23  1  0  0  0  0
 23 24  1  0  0  0  0
 23 25  1  0  0  0  0
 23 26  1  0  0  0  0
M  END
> <VConfSearch Rank>
351

> <Conf_Id>
100

> <Delta U+W>
3.818

> <U+W>
-26.481

> <U>
27.496

> <W>
-53.977

> <W(PB)>
-56.267

> <W(SA)>
2.290

> <Valence>
6.472

> <Coulomb>
19.839

> <VdW>
1.185

> <VdW6>
-8.405

> <VdW12>
9.590

> <Bond>
0.248

> <Angle>
1.619

> <Pdih>
4.604

> <Idih>
0.000

> <Tether>
0.000

$$$$
VeraChem MOL file


 26 25  0  0  0  0  0  0  0  0999 V2000     
   18.0945   19.6325   26.1959 C   0  0  0  0  0  0  0  0  0  0  0  0
   17.4347   19.1141   26.9037 H   0  0  0  0  0  0  0  0  0  0  0  0
   19.1130   19.6085   26.6051 H   0  0  0  0  0  0  0  0  0  0  0  0
   17.7727   20.6807   26.1410 H   0  0  0  0  0  0  0  0  0  0  0  0
   18.0384   18.9615   24.8071 C   0  0  0  0  0  0  0  0  0  0  0  0
   17.0026   18.9698   24.4399 H   0  0  0  0  0  0  0  0  0  0  0  0
   18.3333   17.9068   24.9000 H   0  0  0  0  0  0  0  0  0  0  0  0
   18.9587   19.6726   23.7904 C   0  0  0  0  0  0  0  0  0  0  0  0
   18.6583   20.7259   23.7037 H   0  0  0  0  0  0  0  0  0  0  0  0
   19.9860   19.6710   24.1732 H   0  0  0  0  0  0  0  0  0  0  0  0
   18.8976   19.0039   22.3951 C   0  0  0  0  0  0  0  0  0  0  0  0
   17.8579   19.0496   22.0423 H   0  0  0  0  0  0  0  0  0  0  0  0
   19.1409   17.9365   22.4749 H   0  0  0  0  0  0  0  0  0  0  0  0
   19.8014   19.6946   21.3357 C   0  0  0  0  0  0  0  0  0  0  0  0
   19.2878   19.6543   20.3661 H   0  0  0  0  0  0  0  0  0  0  0  0
   19.8977   20.7637   21.5664 H   0  0  0  0  0  0  0  0  0  0  0  0
   21.2107   19.0823   21.1390 C   0  0  1  0  0  0  0  0  0  0  0  0
   21.7175   19.6827   20.3772 H   0  0  0  0  0  0  0  0  0  0  0  0
   22.0695   19.1335   22.4128 C   0  0  0  0  0  0  0  0  0  0  0  0
   21.6874   18.4529   23.1828 H   0  0  0  0  0  0  0  0  0  0  0  0
   22.0957   20.1495   22.8257 H   0  0  0  0  0  0  0  0  0  0  0  0
   23.1023   18.8387   22.1901 H   0  0  0  0  0  0  0  0  0  0  0  0
   21.1527   17.6832   20.5890 N   0  3  0  0  0  0  0  0  0  0  0  0
   20.6293   17.6466   19.7096 H   0  0  0  0  0  0  0  0  0  0  0  0
   22.0900   17.3160   20.4018 H   0  0  0  0  0  0  0  0  0  0  0  0
   20.6979   17.0434   21.2446 H   0  0  0  0  0  0  0  0  0  0  0  0
  1  2  1  0  0  0  0
  1  3  1  0  0  0  0
  1  4  1  0  0  0  0
  1  5  1  0  0  0  0
  5  6  1  0  0  0  0
  5  7  1  0  0  0  0
  5  8  1  0  0  0  0
  8  9  1  0  0  0  0
  8 10  1  0  0  0  0
  8 11  1  0  0  0  0
 11 12  1  0  0  0  0
 11 13  1  0  0  0  0
 11 14  1  0  0  0  0
 14 15  1  0  0  0  0
 14 16  1  0  0  0  0
 14 17  1  0  0  0  0
 17 18  1  0  0  0  0
 17 19  1  0  0  0  0
 19 20  1  0  0  0  0
 19 21  1  0  0  0  0
 19 22  1  0  0  0  0
 17 23  1  0  0  0  0
 23 24  1  0  0  0  0
 23 25  1  0  0  0  0
 23 26  1  0  0  0  0
M  END
> <VConfSearch Rank>
352

> <Conf_Id>
142

> <Delta U+W>
2.978

> <U+W>
-27.320

> <U>
26.848

> <W>
-54.168

> <W(PB)>
-56.427

> <W(SA)>
2.259

> <Valence>
5.823

> <Coulomb>
20.057

> <VdW>
0.968

> <VdW6>
-8.367

> <VdW12>
9.335

> <Bond>
0.267

> <Angle>
1.799

> <Pdih>
3.758

> <Idih>
0.000

> <Tether>
0.000

$$$$
VeraChem MOL file


 26 25  0  0  0  0  0  0  0  0999 V2000     
   22.2623   16.7015   23.6838 C   0  0  0  0  0  0  0  0  0  0  0  0
   23.0729   17.4334   23.7946 H   0  0  0  0  0  0  0  0  0  0  0  0
   22.5636   15.7859   24.2090 H   0  0  0  0  0  0  0  0  0  0  0  0
   22.1662   16.4528   22.6199 H   0  0  0  0  0  0  0  0  0  0  0  0
   20.9378   17.2464   24.2654 C   0  0  0  0  0  0  0  0  0  0  0  0
   21.0507   17.3530   25.3534 H   0  0  0  0  0  0  0  0  0  0  0  0
   20.1347   16.5122   24.1109 H   0  0  0  0  0  0  0  0  0  0  0  0
   20.5186   18.6150   23.6759 C   0  0  0  0  0  0  0  0  0  0  0  0
   19.6662   18.9788   24.2611 H   0  0  0  0  0  0  0  0  0  0  0  0
   21.3340   19.3384   23.8142 H   0  0  0  0  0  0  0  0  0  0  0  0
   20.1217   18.5461   22.1796 C   0  0  0  0  0  0  0  0  0  0  0  0
   19.2646   17.8708   22.0558 H   0  0  0  0  0  0  0  0  0  0  0  0
   20.9419   18.0909   21.6105 H   0  0  0  0  0  0  0  0  0  0  0  0
   19.8155   19.9228   21.5242 C   0  0  0  0  0  0  0  0  0  0  0  0
   20.7201   20.5445   21.5479 H   0  0  0  0  0  0  0  0  0  0  0  0
   19.6133   19.7458   20.4596 H   0  0  0  0  0  0  0  0  0  0  0  0
   18.6277   20.7409   22.0926 C   0  0  1  0  0  0  0  0  0  0  0  0
   18.4229   21.5390   21.3722 H   0  0  0  0  0  0  0  0  0  0  0  0
   17.3439   19.9029   22.2236 C   0  0  0  0  0  0  0  0  0  0  0  0
   17.4392   19.1340   22.9995 H   0  0  0  0  0  0  0  0  0  0  0  0
   17.1053   19.4069   21.2746 H   0  0  0  0  0  0  0  0  0  0  0  0
   16.4929   20.5425   22.4879 H   0  0  0  0  0  0  0  0  0  0  0  0
   18.9562   21.4473   23.3792 N   0  3  0  0  0  0  0  0  0  0  0  0
   19.7685   22.0615   23.2722 H   0  0  0  0  0  0  0  0  0  0  0  0
   18.1748   22.0283   23.6961 H   0  0  0  0  0  0  0  0  0  0  0  0
   19.1687   20.7830   24.1259 H   0  0  0  0  0  0  0  0  0  0  0  0
  1  2  1  0  0  0  0
  1  3  1  0  0  0  0
  1  4  1  0  0  0  0
  1  5  1  0  0  0  0
  5  6  1  0  0  0  0
  5  7  1  0  0  0  0
  5  8  1  0  0  0  0
  8  9  1  0  0  0  0
  8 10  1  0  0  0  0
  8 11  1  0  0  0  0
 11 12  1  0  0  0  0
 11 13  1  0  0  0  0
 11 14  1  0  0  0  0
 14 15  1  0  0  0  0
 14 16  1  0  0  0  0
 14 17  1  0  0  0  0
 17 18  1  0  0  0  0
 17 19  1  0  0  0  0
 19 20  1  0  0  0  0
 19 21  1  0  0  0  0
 19 22  1  0  0  0  0
 17 23  1  0  0  0  0
 23 24  1  0  0  0  0
 23 25  1  0  0  0  0
 23 26  1  0  0  0  0
M  END
> <VConfSearch Rank>
353

> <Conf_Id>
119

> <Delta U+W>
3.538

> <U+W>
-26.761

> <U>
27.482

> <W>
-54.243

> <W(PB)>
-56.494

> <W(SA)>
2.251

> <Valence>
5.284

> <Coulomb>
21.247

> <VdW>
0.951

> <VdW6>
-9.416

> <VdW12>
10.367

> <Bond>
0.323

> <Angle>
2.522

> <Pdih>
2.439

> <Idih>
0.000

> <Tether>
0.000

$$$$
VeraChem MOL file


 26 25  0  0  0  0  0  0  0  0999 V2000     
   17.9303   18.1242   20.1454 C   0  0  0  0  0  0  0  0  0  0  0  0
   18.6504   18.1894   19.3194 H   0  0  0  0  0  0  0  0  0  0  0  0
   18.1206   17.1944   20.6957 H   0  0  0  0  0  0  0  0  0  0  0  0
   16.9256   18.0495   19.7097 H   0  0  0  0  0  0  0  0  0  0  0  0
   18.0291   19.3604   21.0678 C   0  0  0  0  0  0  0  0  0  0  0  0
   17.3215   19.2561   21.9021 H   0  0  0  0  0  0  0  0  0  0  0  0
   17.7107   20.2486   20.5043 H   0  0  0  0  0  0  0  0  0  0  0  0
   19.4545   19.6067   21.6185 C   0  0  0  0  0  0  0  0  0  0  0  0
   20.1517   19.7367   20.7794 H   0  0  0  0  0  0  0  0  0  0  0  0
   19.4526   20.5592   22.1614 H   0  0  0  0  0  0  0  0  0  0  0  0
   19.9622   18.4697   22.5424 C   0  0  0  0  0  0  0  0  0  0  0  0
   20.0663   17.5562   21.9424 H   0  0  0  0  0  0  0  0  0  0  0  0
   19.2122   18.2428   23.3109 H   0  0  0  0  0  0  0  0  0  0  0  0
   21.3405   18.7736   23.1937 C   0  0  0  0  0  0  0  0  0  0  0  0
   21.9134   17.8382   23.2409 H   0  0  0  0  0  0  0  0  0  0  0  0
   21.9242   19.4364   22.5413 H   0  0  0  0  0  0  0  0  0  0  0  0
   21.3000   19.3653   24.6248 C   0  0  1  0  0  0  0  0  0  0  0  0
   22.3369   19.5294   24.9340 H   0  0  0  0  0  0  0  0  0  0  0  0
   20.5785   20.7211   24.6914 C   0  0  0  0  0  0  0  0  0  0  0  0
   19.5044   20.6149   24.4984 H   0  0  0  0  0  0  0  0  0  0  0  0
   20.9975   21.4223   23.9593 H   0  0  0  0  0  0  0  0  0  0  0  0
   20.6965   21.1693   25.6856 H   0  0  0  0  0  0  0  0  0  0  0  0
   20.7202   18.4011   25.6236 N   0  3  0  0  0  0  0  0  0  0  0  0
   21.2289   17.5125   25.6268 H   0  0  0  0  0  0  0  0  0  0  0  0
   20.7599   18.7790   26.5744 H   0  0  0  0  0  0  0  0  0  0  0  0
   19.7403   18.1941   25.4164 H   0  0  0  0  0  0  0  0  0  0  0  0
  1  2  1  0  0  0  0
  1  3  1  0  0  0  0
  1  4  1  0  0  0  0
  1  5  1  0  0  0  0
  5  6  1  0  0  0  0
  5  7  1  0  0  0  0
  5  8  1  0  0  0  0
  8  9  1  0  0  0  0
  8 10  1  0  0  0  0
  8 11  1  0  0  0  0
 11 12  1  0  0  0  0
 11 13  1  0  0  0  0
 11 14  1  0  0  0  0
 14 15  1  0  0  0  0
 14 16  1  0  0  0  0
 14 17  1  0  0  0  0
 17 18  1  0  0  0  0
 17 19  1  0  0  0  0
 19 20  1  0  0  0  0
 19 21  1  0  0  0  0
 19 22  1  0  0  0  0
 17 23  1  0  0  0  0
 23 24  1  0  0  0  0
 23 25  1  0  0  0  0
 23 26  1  0  0  0  0
M  END
> <VConfSearch Rank>
354

> <Conf_Id>
127

> <Delta U+W>
3.544

> <U+W>
-26.754

> <U>
27.509

> <W>
-54.263

> <W(PB)>
-56.496

> <W(SA)>
2.232

> <Valence>
6.375

> <Coulomb>
20.014

> <VdW>
1.120

> <VdW6>
-8.976

> <VdW12>
10.096

> <Bond>
0.304

> <Angle>
1.986

> <Pdih>
4.086

> <Idih>
0.000

> <Tether>
0.000

$$$$
VeraChem MOL file


 26 25  0  0  0  0  0  0  0  0999 V2000     
   20.3448   19.4218   19.8167 C   0  0  0  0  0  0  0  0  0  0  0  0
   19.7420   19.6257   18.9222 H   0  0  0  0  0  0  0  0  0  0  0  0
   21.3704   19.2128   19.4859 H   0  0  0  0  0  0  0  0  0  0  0  0
   19.9496   18.5128   20.2831 H   0  0  0  0  0  0  0  0  0  0  0  0
   20.3118   20.6325   20.7785 C   0  0  0  0  0  0  0  0  0  0  0  0
   19.2751   20.8812   21.0448 H   0  0  0  0  0  0  0  0  0  0  0  0
   20.7017   21.5055   20.2365 H   0  0  0  0  0  0  0  0  0  0  0  0
   21.1629   20.4250   22.0578 C   0  0  0  0  0  0  0  0  0  0  0  0
   22.0000   19.7438   21.8515 H   0  0  0  0  0  0  0  0  0  0  0  0
   21.6238   21.3872   22.3208 H   0  0  0  0  0  0  0  0  0  0  0  0
   20.3695   19.9348   23.2967 C   0  0  0  0  0  0  0  0  0  0  0  0
   19.6061   20.6820   23.5510 H   0  0  0  0  0  0  0  0  0  0  0  0
   21.0641   19.9032   24.1457 H   0  0  0  0  0  0  0  0  0  0  0  0
   19.7039   18.5446   23.1148 C   0  0  0  0  0  0  0  0  0  0  0  0
   18.9412   18.6107   22.3297 H   0  0  0  0  0  0  0  0  0  0  0  0
   20.4523   17.8243   22.7591 H   0  0  0  0  0  0  0  0  0  0  0  0
   19.0256   17.9753   24.3835 C   0  0  1  0  0  0  0  0  0  0  0  0
   18.5352   17.0400   24.0962 H   0  0  0  0  0  0  0  0  0  0  0  0
   20.0444   17.6416   25.4877 C   0  0  0  0  0  0  0  0  0  0  0  0
   20.8407   16.9936   25.1010 H   0  0  0  0  0  0  0  0  0  0  0  0
   19.5544   17.1091   26.3120 H   0  0  0  0  0  0  0  0  0  0  0  0
   20.5068   18.5448   25.9024 H   0  0  0  0  0  0  0  0  0  0  0  0
   17.9379   18.8730   24.9060 N   0  3  0  0  0  0  0  0  0  0  0  0
   17.2298   19.0607   24.1906 H   0  0  0  0  0  0  0  0  0  0  0  0
   17.4589   18.4531   25.7077 H   0  0  0  0  0  0  0  0  0  0  0  0
   18.3147   19.7737   25.2110 H   0  0  0  0  0  0  0  0  0  0  0  0
  1  2  1  0  0  0  0
  1  3  1  0  0  0  0
  1  4  1  0  0  0  0
  1  5  1  0  0  0  0
  5  6  1  0  0  0  0
  5  7  1  0  0  0  0
  5  8  1  0  0  0  0
  8  9  1  0  0  0  0
  8 10  1  0  0  0  0
  8 11  1  0  0  0  0
 11 12  1  0  0  0  0
 11 13  1  0  0  0  0
 11 14  1  0  0  0  0
 14 15  1  0  0  0  0
 14 16  1  0  0  0  0
 14 17  1  0  0  0  0
 17 18  1  0  0  0  0
 17 19  1  0  0  0  0
 19 20  1  0  0  0  0
 19 21  1  0  0  0  0
 19 22  1  0  0  0  0
 17 23  1  0  0  0  0
 23 24  1  0  0  0  0
 23 25  1  0  0  0  0
 23 26  1  0  0  0  0
M  END
> <VConfSearch Rank>
355

> <Conf_Id>
131

> <Delta U+W>
3.589

> <U+W>
-26.710

> <U>
27.573

> <W>
-54.283

> <W(PB)>
-56.537

> <W(SA)>
2.254

> <Valence>
6.363

> <Coulomb>
20.026

> <VdW>
1.184

> <VdW6>
-8.939

> <VdW12>
10.123

> <Bond>
0.298

> <Angle>
2.018

> <Pdih>
4.047

> <Idih>
0.000

> <Tether>
0.000

$$$$
VeraChem MOL file


 26 25  0  0  0  0  0  0  0  0999 V2000     
   21.7273   20.8690   23.9601 C   0  0  0  0  0  0  0  0  0  0  0  0
   21.1294   21.6523   23.4767 H   0  0  0  0  0  0  0  0  0  0  0  0
   21.0602   20.2385   24.5606 H   0  0  0  0  0  0  0  0  0  0  0  0
   22.4253   21.3579   24.6520 H   0  0  0  0  0  0  0  0  0  0  0  0
   22.4996   20.0329   22.9166 C   0  0  0  0  0  0  0  0  0  0  0  0
   23.0283   19.2145   23.4250 H   0  0  0  0  0  0  0  0  0  0  0  0
   23.2784   20.6641   22.4662 H   0  0  0  0  0  0  0  0  0  0  0  0
   21.6180   19.4552   21.7800 C   0  0  0  0  0  0  0  0  0  0  0  0
   21.1738   20.2723   21.1952 H   0  0  0  0  0  0  0  0  0  0  0  0
   22.2826   18.9228   21.0856 H   0  0  0  0  0  0  0  0  0  0  0  0
   20.5188   18.4663   22.2494 C   0  0  0  0  0  0  0  0  0  0  0  0
   20.8568   17.9468   23.1552 H   0  0  0  0  0  0  0  0  0  0  0  0
   20.3981   17.6912   21.4800 H   0  0  0  0  0  0  0  0  0  0  0  0
   19.1391   19.1402   22.4736 C   0  0  0  0  0  0  0  0  0  0  0  0
   19.2049   19.9091   23.2513 H   0  0  0  0  0  0  0  0  0  0  0  0
   18.8555   19.6618   21.5500 H   0  0  0  0  0  0  0  0  0  0  0  0
   18.0143   18.1430   22.8337 C   0  0  1  0  0  0  0  0  0  0  0  0
   17.9987   17.3540   22.0754 H   0  0  0  0  0  0  0  0  0  0  0  0
   18.2369   17.4927   24.2111 C   0  0  0  0  0  0  0  0  0  0  0  0
   18.3220   18.2513   24.9991 H   0  0  0  0  0  0  0  0  0  0  0  0
   19.1467   16.8819   24.2226 H   0  0  0  0  0  0  0  0  0  0  0  0
   17.3998   16.8309   24.4655 H   0  0  0  0  0  0  0  0  0  0  0  0
   16.6652   18.8052   22.7840 N   0  3  0  0  0  0  0  0  0  0  0  0
   16.5933   19.5609   23.4703 H   0  0  0  0  0  0  0  0  0  0  0  0
   16.4762   19.2079   21.8617 H   0  0  0  0  0  0  0  0  0  0  0  0
   15.9140   18.1387   22.9840 H   0  0  0  0  0  0  0  0  0  0  0  0
  1  2  1  0  0  0  0
  1  3  1  0  0  0  0
  1  4  1  0  0  0  0
  1  5  1  0  0  0  0
  5  6  1  0  0  0  0
  5  7  1  0  0  0  0
  5  8  1  0  0  0  0
  8  9  1  0  0  0  0
  8 10  1  0  0  0  0
  8 11  1  0  0  0  0
 11 12  1  0  0  0  0
 11 13  1  0  0  0  0
 11 14  1  0  0  0  0
 14 15  1  0  0  0  0
 14 16  1  0  0  0  0
 14 17  1  0  0  0  0
 17 18  1  0  0  0  0
 17 19  1  0  0  0  0
 19 20  1  0  0  0  0
 19 21  1  0  0  0  0
 19 22  1  0  0  0  0
 17 23  1  0  0  0  0
 23 24  1  0  0  0  0
 23 25  1  0  0  0  0
 23 26  1  0  0  0  0
M  END
> <VConfSearch Rank>
356

> <Conf_Id>
80

> <Delta U+W>
3.351

> <U+W>
-26.948

> <U>
27.261

> <W>
-54.209

> <W(PB)>
-56.471

> <W(SA)>
2.263

> <Valence>
6.230

> <Coulomb>
19.945

> <VdW>
1.087

> <VdW6>
-8.618

> <VdW12>
9.704

> <Bond>
0.277

> <Angle>
1.928

> <Pdih>
4.025

> <Idih>
0.000

> <Tether>
0.000

$$$$
VeraChem MOL file


 26 25  0  0  0  0  0  0  0  0999 V2000     
   19.6307   22.1188   24.2339 C   0  0  0  0  0  0  0  0  0  0  0  0
   20.2564   22.7297   24.8974 H   0  0  0  0  0  0  0  0  0  0  0  0
   18.8975   22.7827   23.7578 H   0  0  0  0  0  0  0  0  0  0  0  0
   19.0893   21.3998   24.8614 H   0  0  0  0  0  0  0  0  0  0  0  0
   20.5013   21.4030   23.1767 C   0  0  0  0  0  0  0  0  0  0  0  0
   21.2068   20.7262   23.6756 H   0  0  0  0  0  0  0  0  0  0  0  0
   21.1214   22.1527   22.6655 H   0  0  0  0  0  0  0  0  0  0  0  0
   19.6787   20.6374   22.1078 C   0  0  0  0  0  0  0  0  0  0  0  0
   19.1041   21.3699   21.5244 H   0  0  0  0  0  0  0  0  0  0  0  0
   20.3739   20.1788   21.3956 H   0  0  0  0  0  0  0  0  0  0  0  0
   18.6883   19.5706   22.6550 C   0  0  0  0  0  0  0  0  0  0  0  0
   18.1087   19.1517   21.8210 H   0  0  0  0  0  0  0  0  0  0  0  0
   17.9479   20.0784   23.2871 H   0  0  0  0  0  0  0  0  0  0  0  0
   19.3242   18.4111   23.4723 C   0  0  0  0  0  0  0  0  0  0  0  0
   20.2083   18.7536   24.0215 H   0  0  0  0  0  0  0  0  0  0  0  0
   18.5987   18.1175   24.2423 H   0  0  0  0  0  0  0  0  0  0  0  0
   19.6650   17.1398   22.6577 C   0  0  1  0  0  0  0  0  0  0  0  0
   18.7477   16.7870   22.1765 H   0  0  0  0  0  0  0  0  0  0  0  0
   20.7140   17.3914   21.5620 C   0  0  0  0  0  0  0  0  0  0  0  0
   20.3040   18.0228   20.7661 H   0  0  0  0  0  0  0  0  0  0  0  0
   21.0206   16.4475   21.0947 H   0  0  0  0  0  0  0  0  0  0  0  0
   21.6091   17.8766   21.9706 H   0  0  0  0  0  0  0  0  0  0  0  0
   20.1187   16.0285   23.5636 N   0  3  0  0  0  0  0  0  0  0  0  0
   19.4145   15.8093   24.2740 H   0  0  0  0  0  0  0  0  0  0  0  0
   20.2988   15.1681   23.0386 H   0  0  0  0  0  0  0  0  0  0  0  0
   20.9834   16.2741   24.0528 H   0  0  0  0  0  0  0  0  0  0  0  0
  1  2  1  0  0  0  0
  1  3  1  0  0  0  0
  1  4  1  0  0  0  0
  1  5  1  0  0  0  0
  5  6  1  0  0  0  0
  5  7  1  0  0  0  0
  5  8  1  0  0  0  0
  8  9  1  0  0  0  0
  8 10  1  0  0  0  0
  8 11  1  0  0  0  0
 11 12  1  0  0  0  0
 11 13  1  0  0  0  0
 11 14  1  0  0  0  0
 14 15  1  0  0  0  0
 14 16  1  0  0  0  0
 14 17  1  0  0  0  0
 17 18  1  0  0  0  0
 17 19  1  0  0  0  0
 19 20  1  0  0  0  0
 19 21  1  0  0  0  0
 19 22  1  0  0  0  0
 17 23  1  0  0  0  0
 23 24  1  0  0  0  0
 23 25  1  0  0  0  0
 23 26  1  0  0  0  0
M  END
> <VConfSearch Rank>
357

> <Conf_Id>
136

> <Delta U+W>
4.272

> <U+W>
-26.026

> <U>
28.262

> <W>
-54.288

> <W(PB)>
-56.488

> <W(SA)>
2.200

> <Valence>
7.096

> <Coulomb>
19.990

> <VdW>
1.175

> <VdW6>
-9.404

> <VdW12>
10.580

> <Bond>
0.360

> <Angle>
2.785

> <Pdih>
3.951

> <Idih>
0.000

> <Tether>
0.000

$$$$
VeraChem MOL file


 26 25  0  0  0  0  0  0  0  0999 V2000     
   20.2454   17.4214   25.3349 C   0  0  0  0  0  0  0  0  0  0  0  0
   20.9016   17.4520   24.4564 H   0  0  0  0  0  0  0  0  0  0  0  0
   20.7271   16.7764   26.0812 H   0  0  0  0  0  0  0  0  0  0  0  0
   19.2962   16.9510   25.0475 H   0  0  0  0  0  0  0  0  0  0  0  0
   20.0144   18.8348   25.9126 C   0  0  0  0  0  0  0  0  0  0  0  0
   20.9846   19.2993   26.1376 H   0  0  0  0  0  0  0  0  0  0  0  0
   19.4921   18.7409   26.8749 H   0  0  0  0  0  0  0  0  0  0  0  0
   19.1897   19.7734   24.9951 C   0  0  0  0  0  0  0  0  0  0  0  0
   18.1802   19.3659   24.8469 H   0  0  0  0  0  0  0  0  0  0  0  0
   19.0497   20.7213   25.5331 H   0  0  0  0  0  0  0  0  0  0  0  0
   19.8508   20.0868   23.6275 C   0  0  0  0  0  0  0  0  0  0  0  0
   20.9443   20.0245   23.7159 H   0  0  0  0  0  0  0  0  0  0  0  0
   19.6240   21.1300   23.3701 H   0  0  0  0  0  0  0  0  0  0  0  0
   19.3486   19.1726   22.4797 C   0  0  0  0  0  0  0  0  0  0  0  0
   19.4697   18.1213   22.7638 H   0  0  0  0  0  0  0  0  0  0  0  0
   18.2720   19.3283   22.3298 H   0  0  0  0  0  0  0  0  0  0  0  0
   20.0956   19.4130   21.1499 C   0  0  1  0  0  0  0  0  0  0  0  0
   21.1666   19.2767   21.3295 H   0  0  0  0  0  0  0  0  0  0  0  0
   19.6499   18.3892   20.0936 C   0  0  0  0  0  0  0  0  0  0  0  0
   18.5788   18.4846   19.8753 H   0  0  0  0  0  0  0  0  0  0  0  0
   19.8383   17.3651   20.4391 H   0  0  0  0  0  0  0  0  0  0  0  0
   20.2035   18.5312   19.1573 H   0  0  0  0  0  0  0  0  0  0  0  0
   19.9182   20.8150   20.6337 N   0  3  0  0  0  0  0  0  0  0  0  0
   18.9341   21.0209   20.4431 H   0  0  0  0  0  0  0  0  0  0  0  0
   20.2533   21.5073   21.3088 H   0  0  0  0  0  0  0  0  0  0  0  0
   20.4363   20.9614   19.7628 H   0  0  0  0  0  0  0  0  0  0  0  0
  1  2  1  0  0  0  0
  1  3  1  0  0  0  0
  1  4  1  0  0  0  0
  1  5  1  0  0  0  0
  5  6  1  0  0  0  0
  5  7  1  0  0  0  0
  5  8  1  0  0  0  0
  8  9  1  0  0  0  0
  8 10  1  0  0  0  0
  8 11  1  0  0  0  0
 11 12  1  0  0  0  0
 11 13  1  0  0  0  0
 11 14  1  0  0  0  0
 14 15  1  0  0  0  0
 14 16  1  0  0  0  0
 14 17  1  0  0  0  0
 17 18  1  0  0  0  0
 17 19  1  0  0  0  0
 19 20  1  0  0  0  0
 19 21  1  0  0  0  0
 19 22  1  0  0  0  0
 17 23  1  0  0  0  0
 23 24  1  0  0  0  0
 23 25  1  0  0  0  0
 23 26  1  0  0  0  0
M  END
> <VConfSearch Rank>
358

> <Conf_Id>
124

> <Delta U+W>
3.001

> <U+W>
-27.298

> <U>
26.787

> <W>
-54.085

> <W(PB)>
-56.347

> <W(SA)>
2.262

> <Valence>
5.742

> <Coulomb>
20.023

> <VdW>
1.022

> <VdW6>
-8.392

> <VdW12>
9.414

> <Bond>
0.261

> <Angle>
1.576

> <Pdih>
3.904

> <Idih>
0.000

> <Tether>
0.000

$$$$
VeraChem MOL file


 26 25  0  0  0  0  0  0  0  0999 V2000     
   22.1291   18.2588   20.9391 C   0  0  0  0  0  0  0  0  0  0  0  0
   21.8118   18.2311   19.8885 H   0  0  0  0  0  0  0  0  0  0  0  0
   23.1658   17.9008   20.9829 H   0  0  0  0  0  0  0  0  0  0  0  0
   21.5095   17.5485   21.4972 H   0  0  0  0  0  0  0  0  0  0  0  0
   22.0284   19.6934   21.5080 C   0  0  0  0  0  0  0  0  0  0  0  0
   22.6968   20.3376   20.9196 H   0  0  0  0  0  0  0  0  0  0  0  0
   22.4100   19.7237   22.5381 H   0  0  0  0  0  0  0  0  0  0  0  0
   20.5956   20.2828   21.4460 C   0  0  0  0  0  0  0  0  0  0  0  0
   20.6784   21.3590   21.2401 H   0  0  0  0  0  0  0  0  0  0  0  0
   20.0471   19.8606   20.5927 H   0  0  0  0  0  0  0  0  0  0  0  0
   19.7673   20.1205   22.7468 C   0  0  0  0  0  0  0  0  0  0  0  0
   18.8140   20.6467   22.6076 H   0  0  0  0  0  0  0  0  0  0  0  0
   20.2864   20.6360   23.5657 H   0  0  0  0  0  0  0  0  0  0  0  0
   19.4923   18.6461   23.1447 C   0  0  0  0  0  0  0  0  0  0  0  0
   19.1111   18.0995   22.2723 H   0  0  0  0  0  0  0  0  0  0  0  0
   20.4369   18.1636   23.4240 H   0  0  0  0  0  0  0  0  0  0  0  0
   18.4953   18.4636   24.3134 C   0  0  1  0  0  0  0  0  0  0  0  0
   18.3968   17.3883   24.4915 H   0  0  0  0  0  0  0  0  0  0  0  0
   19.0070   19.1063   25.6145 C   0  0  0  0  0  0  0  0  0  0  0  0
   19.0449   20.1996   25.5385 H   0  0  0  0  0  0  0  0  0  0  0  0
   20.0130   18.7433   25.8591 H   0  0  0  0  0  0  0  0  0  0  0  0
   18.3482   18.8511   26.4535 H   0  0  0  0  0  0  0  0  0  0  0  0
   17.1150   18.9564   23.9750 N   0  3  0  0  0  0  0  0  0  0  0  0
   16.4544   18.7695   24.7347 H   0  0  0  0  0  0  0  0  0  0  0  0
   17.1108   19.9653   23.8066 H   0  0  0  0  0  0  0  0  0  0  0  0
   16.7496   18.5017   23.1335 H   0  0  0  0  0  0  0  0  0  0  0  0
  1  2  1  0  0  0  0
  1  3  1  0  0  0  0
  1  4  1  0  0  0  0
  1  5  1  0  0  0  0
  5  6  1  0  0  0  0
  5  7  1  0  0  0  0
  5  8  1  0  0  0  0
  8  9  1  0  0  0  0
  8 10  1  0  0  0  0
  8 11  1  0  0  0  0
 11 12  1  0  0  0  0
 11 13  1  0  0  0  0
 11 14  1  0  0  0  0
 14 15  1  0  0  0  0
 14 16  1  0  0  0  0
 14 17  1  0  0  0  0
 17 18  1  0  0  0  0
 17 19  1  0  0  0  0
 19 20  1  0  0  0  0
 19 21  1  0  0  0  0
 19 22  1  0  0  0  0
 17 23  1  0  0  0  0
 23 24  1  0  0  0  0
 23 25  1  0  0  0  0
 23 26  1  0  0  0  0
M  END
> <VConfSearch Rank>
359

> <Conf_Id>
105

> <Delta U+W>
3.442

> <U+W>
-26.857

> <U>
27.313

> <W>
-54.169

> <W(PB)>
-56.414

> <W(SA)>
2.245

> <Valence>
6.229

> <Coulomb>
19.943

> <VdW>
1.140

> <VdW6>
-9.001

> <VdW12>
10.140

> <Bond>
0.294

> <Angle>
1.969

> <Pdih>
3.967

> <Idih>
0.000

> <Tether>
0.000

$$$$
VeraChem MOL file


 26 25  0  0  0  0  0  0  0  0999 V2000     
   20.3862   21.3770   21.0081 C   0  0  0  0  0  0  0  0  0  0  0  0
   20.7930   21.0909   20.0294 H   0  0  0  0  0  0  0  0  0  0  0  0
   20.4362   22.4710   21.0819 H   0  0  0  0  0  0  0  0  0  0  0  0
   21.0432   20.9630   21.7805 H   0  0  0  0  0  0  0  0  0  0  0  0
   18.9259   20.8915   21.1620 C   0  0  0  0  0  0  0  0  0  0  0  0
   18.3256   21.3739   20.3780 H   0  0  0  0  0  0  0  0  0  0  0  0
   18.5074   21.2363   22.1177 H   0  0  0  0  0  0  0  0  0  0  0  0
   18.7682   19.3549   21.0273 C   0  0  0  0  0  0  0  0  0  0  0  0
   17.8060   19.1526   20.5367 H   0  0  0  0  0  0  0  0  0  0  0  0
   19.5346   18.9517   20.3511 H   0  0  0  0  0  0  0  0  0  0  0  0
   18.7780   18.5790   22.3698 C   0  0  0  0  0  0  0  0  0  0  0  0
   18.5835   17.5190   22.1550 H   0  0  0  0  0  0  0  0  0  0  0  0
   17.9407   18.9263   22.9898 H   0  0  0  0  0  0  0  0  0  0  0  0
   20.1031   18.6955   23.1626 C   0  0  0  0  0  0  0  0  0  0  0  0
   20.9427   18.4858   22.4868 H   0  0  0  0  0  0  0  0  0  0  0  0
   20.2312   19.7230   23.5254 H   0  0  0  0  0  0  0  0  0  0  0  0
   20.1722   17.7239   24.3604 C   0  0  1  0  0  0  0  0  0  0  0  0
   20.0254   16.7063   23.9852 H   0  0  0  0  0  0  0  0  0  0  0  0
   21.5545   17.7968   25.0286 C   0  0  0  0  0  0  0  0  0  0  0  0
   21.7511   18.8005   25.4260 H   0  0  0  0  0  0  0  0  0  0  0  0
   22.3477   17.5520   24.3113 H   0  0  0  0  0  0  0  0  0  0  0  0
   21.6233   17.0815   25.8574 H   0  0  0  0  0  0  0  0  0  0  0  0
   19.0837   17.9749   25.3681 N   0  3  0  0  0  0  0  0  0  0  0  0
   18.1558   17.8876   24.9453 H   0  0  0  0  0  0  0  0  0  0  0  0
   19.1307   17.3079   26.1436 H   0  0  0  0  0  0  0  0  0  0  0  0
   19.1539   18.9145   25.7673 H   0  0  0  0  0  0  0  0  0  0  0  0
  1  2  1  0  0  0  0
  1  3  1  0  0  0  0
  1  4  1  0  0  0  0
  1  5  1  0  0  0  0
  5  6  1  0  0  0  0
  5  7  1  0  0  0  0
  5  8  1  0  0  0  0
  8  9  1  0  0  0  0
  8 10  1  0  0  0  0
  8 11  1  0  0  0  0
 11 12  1  0  0  0  0
 11 13  1  0  0  0  0
 11 14  1  0  0  0  0
 14 15  1  0  0  0  0
 14 16  1  0  0  0  0
 14 17  1  0  0  0  0
 17 18  1  0  0  0  0
 17 19  1  0  0  0  0
 19 20  1  0  0  0  0
 19 21  1  0  0  0  0
 19 22  1  0  0  0  0
 17 23  1  0  0  0  0
 23 24  1  0  0  0  0
 23 25  1  0  0  0  0
 23 26  1  0  0  0  0
M  END
> <VConfSearch Rank>
360

> <Conf_Id>
107

> <Delta U+W>
2.995

> <U+W>
-27.304

> <U>
26.796

> <W>
-54.100

> <W(PB)>
-56.404

> <W(SA)>
2.304

> <Valence>
5.706

> <Coulomb>
20.107

> <VdW>
0.982

> <VdW6>
-8.396

> <VdW12>
9.378

> <Bond>
0.254

> <Angle>
1.644

> <Pdih>
3.808

> <Idih>
0.000

> <Tether>
0.000

$$$$
VeraChem MOL file


 26 25  0  0  0  0  0  0  0  0999 V2000     
   22.6761   20.5361   20.2188 C   0  0  0  0  0  0  0  0  0  0  0  0
   21.9774   20.9837   19.4999 H   0  0  0  0  0  0  0  0  0  0  0  0
   23.5826   21.1548   20.2376 H   0  0  0  0  0  0  0  0  0  0  0  0
   22.9552   19.5405   19.8497 H   0  0  0  0  0  0  0  0  0  0  0  0
   22.0458   20.4499   21.6250 C   0  0  0  0  0  0  0  0  0  0  0  0
   21.8089   21.4623   21.9809 H   0  0  0  0  0  0  0  0  0  0  0  0
   22.7792   20.0303   22.3279 H   0  0  0  0  0  0  0  0  0  0  0  0
   20.7667   19.5837   21.6265 C   0  0  0  0  0  0  0  0  0  0  0  0
   20.0386   20.0056   20.9198 H   0  0  0  0  0  0  0  0  0  0  0  0
   21.0083   18.5733   21.2684 H   0  0  0  0  0  0  0  0  0  0  0  0
   20.1321   19.4956   23.0330 C   0  0  0  0  0  0  0  0  0  0  0  0
   19.8878   20.5064   23.3883 H   0  0  0  0  0  0  0  0  0  0  0  0
   20.8680   19.0795   23.7338 H   0  0  0  0  0  0  0  0  0  0  0  0
   18.8514   18.6258   23.0314 C   0  0  0  0  0  0  0  0  0  0  0  0
   18.1516   19.0262   22.2857 H   0  0  0  0  0  0  0  0  0  0  0  0
   19.0968   17.6036   22.7137 H   0  0  0  0  0  0  0  0  0  0  0  0
   18.1467   18.5878   24.4048 C   0  0  1  0  0  0  0  0  0  0  0  0
   17.9344   19.6173   24.7098 H   0  0  0  0  0  0  0  0  0  0  0  0
   16.8128   17.8311   24.3003 C   0  0  0  0  0  0  0  0  0  0  0  0
   16.9706   16.7882   23.9979 H   0  0  0  0  0  0  0  0  0  0  0  0
   16.1527   18.3045   23.5629 H   0  0  0  0  0  0  0  0  0  0  0  0
   16.2892   17.8321   25.2642 H   0  0  0  0  0  0  0  0  0  0  0  0
   19.0110   17.9871   25.4798 N   0  3  0  0  0  0  0  0  0  0  0  0
   19.2562   17.0174   25.2634 H   0  0  0  0  0  0  0  0  0  0  0  0
   19.8843   18.5085   25.5928 H   0  0  0  0  0  0  0  0  0  0  0  0
   18.5350   17.9877   26.3864 H   0  0  0  0  0  0  0  0  0  0  0  0
  1  2  1  0  0  0  0
  1  3  1  0  0  0  0
  1  4  1  0  0  0  0
  1  5  1  0  0  0  0
  5  6  1  0  0  0  0
  5  7  1  0  0  0  0
  5  8  1  0  0  0  0
  8  9  1  0  0  0  0
  8 10  1  0  0  0  0
  8 11  1  0  0  0  0
 11 12  1  0  0  0  0
 11 13  1  0  0  0  0
 11 14  1  0  0  0  0
 14 15  1  0  0  0  0
 14 16  1  0  0  0  0
 14 17  1  0  0  0  0
 17 18  1  0  0  0  0
 17 19  1  0  0  0  0
 19 20  1  0  0  0  0
 19 21  1  0  0  0  0
 19 22  1  0  0  0  0
 17 23  1  0  0  0  0
 23 24  1  0  0  0  0
 23 25  1  0  0  0  0
 23 26  1  0  0  0  0
M  END
> <VConfSearch Rank>
361

> <Conf_Id>
122

> <Delta U+W>
0.000

> <U+W>
-30.299

> <U>
23.517

> <W>
-53.816

> <W(PB)>
-56.162

> <W(SA)>
2.346

> <Valence>
2.737

> <Coulomb>
19.862

> <VdW>
0.919

> <VdW6>
-6.793

> <VdW12>
7.712

> <Bond>
0.171

> <Angle>
0.873

> <Pdih>
1.693

> <Idih>
0.000

> <Tether>
0.000

$$$$
VeraChem MOL file


 26 25  0  0  0  0  0  0  0  0999 V2000     
   22.3049   18.4893   26.2618 C   0  0  0  0  0  0  0  0  0  0  0  0
   23.2779   18.8405   26.6293 H   0  0  0  0  0  0  0  0  0  0  0  0
   21.5579   18.6907   27.0407 H   0  0  0  0  0  0  0  0  0  0  0  0
   22.3695   17.4022   26.1229 H   0  0  0  0  0  0  0  0  0  0  0  0
   21.9338   19.1963   24.9410 C   0  0  0  0  0  0  0  0  0  0  0  0
   22.7157   19.0044   24.1928 H   0  0  0  0  0  0  0  0  0  0  0  0
   21.9102   20.2830   25.1034 H   0  0  0  0  0  0  0  0  0  0  0  0
   20.5670   18.7197   24.4014 C   0  0  0  0  0  0  0  0  0  0  0  0
   20.5949   17.6327   24.2424 H   0  0  0  0  0  0  0  0  0  0  0  0
   19.7900   18.9108   25.1545 H   0  0  0  0  0  0  0  0  0  0  0  0
   20.1916   19.4258   23.0788 C   0  0  0  0  0  0  0  0  0  0  0  0
   20.9783   19.2353   22.3370 H   0  0  0  0  0  0  0  0  0  0  0  0
   20.1593   20.5123   23.2398 H   0  0  0  0  0  0  0  0  0  0  0  0
   18.8232   18.9427   22.5382 C   0  0  0  0  0  0  0  0  0  0  0  0
   18.8716   17.8687   22.3143 H   0  0  0  0  0  0  0  0  0  0  0  0
   18.0728   19.0616   23.3310 H   0  0  0  0  0  0  0  0  0  0  0  0
   18.3395   19.7133   21.2883 C   0  0  1  0  0  0  0  0  0  0  0  0
   18.3399   20.7822   21.5229 H   0  0  0  0  0  0  0  0  0  0  0  0
   19.2549   19.4810   20.0727 C   0  0  0  0  0  0  0  0  0  0  0  0
   19.3380   18.4128   19.8367 H   0  0  0  0  0  0  0  0  0  0  0  0
   20.2626   19.8734   20.2510 H   0  0  0  0  0  0  0  0  0  0  0  0
   18.8595   19.9948   19.1878 H   0  0  0  0  0  0  0  0  0  0  0  0
   16.9198   19.3550   20.9462 N   0  3  0  0  0  0  0  0  0  0  0  0
   16.8305   18.3633   20.7093 H   0  0  0  0  0  0  0  0  0  0  0  0
   16.2844   19.5433   21.7269 H   0  0  0  0  0  0  0  0  0  0  0  0
   16.5816   19.8923   20.1429 H   0  0  0  0  0  0  0  0  0  0  0  0
  1  2  1  0  0  0  0
  1  3  1  0  0  0  0
  1  4  1  0  0  0  0
  1  5  1  0  0  0  0
  5  6  1  0  0  0  0
  5  7  1  0  0  0  0
  5  8  1  0  0  0  0
  8  9  1  0  0  0  0
  8 10  1  0  0  0  0
  8 11  1  0  0  0  0
 11 12  1  0  0  0  0
 11 13  1  0  0  0  0
 11 14  1  0  0  0  0
 14 15  1  0  0  0  0
 14 16  1  0  0  0  0
 14 17  1  0  0  0  0
 17 18  1  0  0  0  0
 17 19  1  0  0  0  0
 19 20  1  0  0  0  0
 19 21  1  0  0  0  0
 19 22  1  0  0  0  0
 17 23  1  0  0  0  0
 23 24  1  0  0  0  0
 23 25  1  0  0  0  0
 23 26  1  0  0  0  0
M  END
> <VConfSearch Rank>
362

> <Conf_Id>
54

> <Delta U+W>
0.453

> <U+W>
-29.845

> <U>
23.817

> <W>
-53.663

> <W(PB)>
-56.021

> <W(SA)>
2.358

> <Valence>
3.277

> <Coulomb>
19.492

> <VdW>
1.049

> <VdW6>
-6.949

> <VdW12>
7.998

> <Bond>
0.183

> <Angle>
1.152

> <Pdih>
1.942

> <Idih>
0.000

> <Tether>
0.000

$$$$
VeraChem MOL file


 26 25  0  0  0  0  0  0  0  0999 V2000     
   23.3252   18.9572   24.0371 C   0  0  0  0  0  0  0  0  0  0  0  0
   23.6436   18.7213   23.0133 H   0  0  0  0  0  0  0  0  0  0  0  0
   23.1895   20.0427   24.1137 H   0  0  0  0  0  0  0  0  0  0  0  0
   24.1435   18.6801   24.7143 H   0  0  0  0  0  0  0  0  0  0  0  0
   22.0347   18.1914   24.4085 C   0  0  0  0  0  0  0  0  0  0  0  0
   21.7169   18.4692   25.4232 H   0  0  0  0  0  0  0  0  0  0  0  0
   22.2631   17.1168   24.4422 H   0  0  0  0  0  0  0  0  0  0  0  0
   20.8712   18.4181   23.4128 C   0  0  0  0  0  0  0  0  0  0  0  0
   21.2056   18.1671   22.3966 H   0  0  0  0  0  0  0  0  0  0  0  0
   20.0742   17.7114   23.6727 H   0  0  0  0  0  0  0  0  0  0  0  0
   20.3059   19.8606   23.4438 C   0  0  0  0  0  0  0  0  0  0  0  0
   21.1276   20.5754   23.3111 H   0  0  0  0  0  0  0  0  0  0  0  0
   19.8820   20.0651   24.4366 H   0  0  0  0  0  0  0  0  0  0  0  0
   19.2428   20.1678   22.3560 C   0  0  0  0  0  0  0  0  0  0  0  0
   19.0100   21.2386   22.4287 H   0  0  0  0  0  0  0  0  0  0  0  0
   19.6720   20.0234   21.3557 H   0  0  0  0  0  0  0  0  0  0  0  0
   17.9259   19.3659   22.4862 C   0  0  1  0  0  0  0  0  0  0  0  0
   17.6846   19.2679   23.5491 H   0  0  0  0  0  0  0  0  0  0  0  0
   16.7721   20.1145   21.7983 C   0  0  0  0  0  0  0  0  0  0  0  0
   15.8321   19.5581   21.9002 H   0  0  0  0  0  0  0  0  0  0  0  0
   16.9723   20.2552   20.7287 H   0  0  0  0  0  0  0  0  0  0  0  0
   16.6219   21.1025   22.2512 H   0  0  0  0  0  0  0  0  0  0  0  0
   18.0318   17.9744   21.9236 N   0  3  0  0  0  0  0  0  0  0  0  0
   18.7862   17.4463   22.3675 H   0  0  0  0  0  0  0  0  0  0  0  0
   17.1640   17.4485   22.0614 H   0  0  0  0  0  0  0  0  0  0  0  0
   18.2204   17.9938   20.9179 H   0  0  0  0  0  0  0  0  0  0  0  0
  1  2  1  0  0  0  0
  1  3  1  0  0  0  0
  1  4  1  0  0  0  0
  1  5  1  0  0  0  0
  5  6  1  0  0  0  0
  5  7  1  0  0  0  0
  5  8  1  0  0  0  0
  8  9  1  0  0  0  0
  8 10  1  0  0  0  0
  8 11  1  0  0  0  0
 11 12  1  0  0  0  0
 11 13  1  0  0  0  0
 11 14  1  0  0  0  0
 14 15  1  0  0  0  0
 14 16  1  0  0  0  0
 14 17  1  0  0  0  0
 17 18  1  0  0  0  0
 17 19  1  0  0  0  0
 19 20  1  0  0  0  0
 19 21  1  0  0  0  0
 19 22  1  0  0  0  0
 17 23  1  0  0  0  0
 23 24  1  0  0  0  0
 23 25  1  0  0  0  0
 23 26  1  0  0  0  0
M  END
> <VConfSearch Rank>
363

> <Conf_Id>
110

> <Delta U+W>
3.764

> <U+W>
-26.535

> <U>
27.400

> <W>
-53.935

> <W(PB)>
-56.238

> <W(SA)>
2.303

> <Valence>
5.205

> <Coulomb>
21.096

> <VdW>
1.098

> <VdW6>
-8.389

> <VdW12>
9.488

> <Bond>
0.270

> <Angle>
1.912

> <Pdih>
3.023

> <Idih>
0.000

> <Tether>
0.000

$$$$
VeraChem MOL file


 26 25  0  0  0  0  0  0  0  0999 V2000     
   17.3860   18.4260   25.6121 C   0  0  0  0  0  0  0  0  0  0  0  0
   16.4813   18.7089   26.1657 H   0  0  0  0  0  0  0  0  0  0  0  0
   17.0805   17.7470   24.8065 H   0  0  0  0  0  0  0  0  0  0  0  0
   18.0407   17.8738   26.2987 H   0  0  0  0  0  0  0  0  0  0  0  0
   18.0954   19.6821   25.0573 C   0  0  0  0  0  0  0  0  0  0  0  0
   18.2711   20.3839   25.8846 H   0  0  0  0  0  0  0  0  0  0  0  0
   17.4312   20.1997   24.3512 H   0  0  0  0  0  0  0  0  0  0  0  0
   19.4483   19.3735   24.3720 C   0  0  0  0  0  0  0  0  0  0  0  0
   19.9293   20.3248   24.1146 H   0  0  0  0  0  0  0  0  0  0  0  0
   20.1171   18.8811   25.0913 H   0  0  0  0  0  0  0  0  0  0  0  0
   19.3091   18.4888   23.1062 C   0  0  0  0  0  0  0  0  0  0  0  0
   18.5410   18.8964   22.4345 H   0  0  0  0  0  0  0  0  0  0  0  0
   18.9498   17.4973   23.4124 H   0  0  0  0  0  0  0  0  0  0  0  0
   20.6444   18.3022   22.3378 C   0  0  0  0  0  0  0  0  0  0  0  0
   21.4961   18.4009   23.0238 H   0  0  0  0  0  0  0  0  0  0  0  0
   20.6767   17.2686   21.9686 H   0  0  0  0  0  0  0  0  0  0  0  0
   20.8278   19.2375   21.1181 C   0  0  1  0  0  0  0  0  0  0  0  0
   19.9854   19.0777   20.4380 H   0  0  0  0  0  0  0  0  0  0  0  0
   20.8552   20.7258   21.5051 C   0  0  0  0  0  0  0  0  0  0  0  0
   21.6316   20.9281   22.2532 H   0  0  0  0  0  0  0  0  0  0  0  0
   19.8880   21.0450   21.9104 H   0  0  0  0  0  0  0  0  0  0  0  0
   21.0582   21.3502   20.6263 H   0  0  0  0  0  0  0  0  0  0  0  0
   22.0669   18.8790   20.3454 N   0  3  0  0  0  0  0  0  0  0  0  0
   22.0487   17.9036   20.0341 H   0  0  0  0  0  0  0  0  0  0  0  0
   22.1690   19.4627   19.5104 H   0  0  0  0  0  0  0  0  0  0  0  0
   22.9104   19.0055   20.9111 H   0  0  0  0  0  0  0  0  0  0  0  0
  1  2  1  0  0  0  0
  1  3  1  0  0  0  0
  1  4  1  0  0  0  0
  1  5  1  0  0  0  0
  5  6  1  0  0  0  0
  5  7  1  0  0  0  0
  5  8  1  0  0  0  0
  8  9  1  0  0  0  0
  8 10  1  0  0  0  0
  8 11  1  0  0  0  0
 11 12  1  0  0  0  0
 11 13  1  0  0  0  0
 11 14  1  0  0  0  0
 14 15  1  0  0  0  0
 14 16  1  0  0  0  0
 14 17  1  0  0  0  0
 17 18  1  0  0  0  0
 17 19  1  0  0  0  0
 19 20  1  0  0  0  0
 19 21  1  0  0  0  0
 19 22  1  0  0  0  0
 17 23  1  0  0  0  0
 23 24  1  0  0  0  0
 23 25  1  0  0  0  0
 23 26  1  0  0  0  0
M  END
> <VConfSearch Rank>
364

> <Conf_Id>
34

> <Delta U+W>
3.568

> <U+W>
-26.731

> <U>
27.221

> <W>
-53.952

> <W(PB)>
-56.213

> <W(SA)>
2.261

> <Valence>
6.368

> <Coulomb>
19.698

> <VdW>
1.155

> <VdW6>
-8.532

> <VdW12>
9.687

> <Bond>
0.272

> <Angle>
1.847

> <Pdih>
4.248

> <Idih>
0.000

> <Tether>
0.000

$$$$
VeraChem MOL file


 26 25  0  0  0  0  0  0  0  0999 V2000     
   16.3291   19.2119   20.8440 C   0  0  0  0  0  0  0  0  0  0  0  0
   15.8840   20.0946   21.3214 H   0  0  0  0  0  0  0  0  0  0  0  0
   16.7367   19.5180   19.8717 H   0  0  0  0  0  0  0  0  0  0  0  0
   15.5254   18.4873   20.6594 H   0  0  0  0  0  0  0  0  0  0  0  0
   17.4265   18.5931   21.7356 C   0  0  0  0  0  0  0  0  0  0  0  0
   17.8285   17.6940   21.2477 H   0  0  0  0  0  0  0  0  0  0  0  0
   16.9822   18.2661   22.6862 H   0  0  0  0  0  0  0  0  0  0  0  0
   18.5711   19.5932   22.0112 C   0  0  0  0  0  0  0  0  0  0  0  0
   19.0098   19.9187   21.0577 H   0  0  0  0  0  0  0  0  0  0  0  0
   18.1637   20.4910   22.4964 H   0  0  0  0  0  0  0  0  0  0  0  0
   19.6721   18.9775   22.9041 C   0  0  0  0  0  0  0  0  0  0  0  0
   20.0731   18.0804   22.4141 H   0  0  0  0  0  0  0  0  0  0  0  0
   19.2228   18.6515   23.8513 H   0  0  0  0  0  0  0  0  0  0  0  0
   20.8165   19.9877   23.1792 C   0  0  0  0  0  0  0  0  0  0  0  0
   21.2225   20.3418   22.2225 H   0  0  0  0  0  0  0  0  0  0  0  0
   20.4051   20.8746   23.6791 H   0  0  0  0  0  0  0  0  0  0  0  0
   21.9840   19.4345   24.0303 C   0  0  1  0  0  0  0  0  0  0  0  0
   22.7269   20.2331   24.1205 H   0  0  0  0  0  0  0  0  0  0  0  0
   21.5347   19.0550   25.4522 C   0  0  0  0  0  0  0  0  0  0  0  0
   20.8588   18.1917   25.4476 H   0  0  0  0  0  0  0  0  0  0  0  0
   21.0184   19.8940   25.9350 H   0  0  0  0  0  0  0  0  0  0  0  0
   22.4021   18.7975   26.0723 H   0  0  0  0  0  0  0  0  0  0  0  0
   22.6875   18.2849   23.3625 N   0  3  0  0  0  0  0  0  0  0  0  0
   23.4953   17.9725   23.9087 H   0  0  0  0  0  0  0  0  0  0  0  0
   22.0639   17.4819   23.2505 H   0  0  0  0  0  0  0  0  0  0  0  0
   23.0290   18.5428   22.4322 H   0  0  0  0  0  0  0  0  0  0  0  0
  1  2  1  0  0  0  0
  1  3  1  0  0  0  0
  1  4  1  0  0  0  0
  1  5  1  0  0  0  0
  5  6  1  0  0  0  0
  5  7  1  0  0  0  0
  5  8  1  0  0  0  0
  8  9  1  0  0  0  0
  8 10  1  0  0  0  0
  8 11  1  0  0  0  0
 11 12  1  0  0  0  0
 11 13  1  0  0  0  0
 11 14  1  0  0  0  0
 14 15  1  0  0  0  0
 14 16  1  0  0  0  0
 14 17  1  0  0  0  0
 17 18  1  0  0  0  0
 17 19  1  0  0  0  0
 19 20  1  0  0  0  0
 19 21  1  0  0  0  0
 19 22  1  0  0  0  0
 17 23  1  0  0  0  0
 23 24  1  0  0  0  0
 23 25  1  0  0  0  0
 23 26  1  0  0  0  0
M  END
> <VConfSearch Rank>
365

> <Conf_Id>
132

> <Delta U+W>
0.363

> <U+W>
-29.936

> <U>
24.060

> <W>
-53.996

> <W(PB)>
-56.327

> <W(SA)>
2.332

> <Valence>
3.249

> <Coulomb>
19.781

> <VdW>
1.030

> <VdW6>
-7.421

> <VdW12>
8.451

> <Bond>
0.207

> <Angle>
1.205

> <Pdih>
1.837

> <Idih>
0.000

> <Tether>
0.000

$$$$
VeraChem MOL file


 26 25  0  0  0  0  0  0  0  0999 V2000     
   22.0949   21.1578   25.4366 C   0  0  0  0  0  0  0  0  0  0  0  0
   21.9504   21.1826   26.5246 H   0  0  0  0  0  0  0  0  0  0  0  0
   23.1425   20.8935   25.2421 H   0  0  0  0  0  0  0  0  0  0  0  0
   21.9202   22.1705   25.0503 H   0  0  0  0  0  0  0  0  0  0  0  0
   21.1348   20.1416   24.7824 C   0  0  0  0  0  0  0  0  0  0  0  0
   20.1020   20.4160   25.0342 H   0  0  0  0  0  0  0  0  0  0  0  0
   21.3136   19.1450   25.2096 H   0  0  0  0  0  0  0  0  0  0  0  0
   21.3173   20.0927   23.2468 C   0  0  0  0  0  0  0  0  0  0  0  0
   21.0848   21.0755   22.8142 H   0  0  0  0  0  0  0  0  0  0  0  0
   22.3752   19.8998   23.0207 H   0  0  0  0  0  0  0  0  0  0  0  0
   20.4624   19.0036   22.5530 C   0  0  0  0  0  0  0  0  0  0  0  0
   20.7054   18.0242   22.9858 H   0  0  0  0  0  0  0  0  0  0  0  0
   20.7637   18.9604   21.4985 H   0  0  0  0  0  0  0  0  0  0  0  0
   18.9343   19.2667   22.6468 C   0  0  0  0  0  0  0  0  0  0  0  0
   18.6267   19.2785   23.6995 H   0  0  0  0  0  0  0  0  0  0  0  0
   18.7128   20.2681   22.2549 H   0  0  0  0  0  0  0  0  0  0  0  0
   18.0498   18.2356   21.9061 C   0  0  1  0  0  0  0  0  0  0  0  0
   17.0069   18.5056   22.0992 H   0  0  0  0  0  0  0  0  0  0  0  0
   18.2631   18.2745   20.3826 C   0  0  0  0  0  0  0  0  0  0  0  0
   19.2601   17.9153   20.1017 H   0  0  0  0  0  0  0  0  0  0  0  0
   18.1435   19.2948   19.9977 H   0  0  0  0  0  0  0  0  0  0  0  0
   17.5250   17.6402   19.8765 H   0  0  0  0  0  0  0  0  0  0  0  0
   18.2247   16.8404   22.4399 N   0  3  0  0  0  0  0  0  0  0  0  0
   18.0386   16.7970   23.4458 H   0  0  0  0  0  0  0  0  0  0  0  0
   17.5877   16.1822   21.9823 H   0  0  0  0  0  0  0  0  0  0  0  0
   19.1777   16.5013   22.2876 H   0  0  0  0  0  0  0  0  0  0  0  0
  1  2  1  0  0  0  0
  1  3  1  0  0  0  0
  1  4  1  0  0  0  0
  1  5  1  0  0  0  0
  5  6  1  0  0  0  0
  5  7  1  0  0  0  0
  5  8  1  0  0  0  0
  8  9  1  0  0  0  0
  8 10  1  0  0  0  0
  8 11  1  0  0  0  0
 11 12  1  0  0  0  0
 11 13  1  0  0  0  0
 11 14  1  0  0  0  0
 14 15  1  0  0  0  0
 14 16  1  0  0  0  0
 14 17  1  0  0  0  0
 17 18  1  0  0  0  0
 17 19  1  0  0  0  0
 19 20  1  0  0  0  0
 19 21  1  0  0  0  0
 19 22  1  0  0  0  0
 17 23  1  0  0  0  0
 23 24  1  0  0  0  0
 23 25  1  0  0  0  0
 23 26  1  0  0  0  0
M  END
> <VConfSearch Rank>
366

> <Conf_Id>
46

> <Delta U+W>
1.114

> <U+W>
-29.185

> <U>
24.990

> <W>
-54.175

> <W(PB)>
-56.455

> <W(SA)>
2.279

> <Valence>
3.862

> <Coulomb>
19.956

> <VdW>
1.172

> <VdW6>
-8.054

> <VdW12>
9.226

> <Bond>
0.258

> <Angle>
1.499

> <Pdih>
2.106

> <Idih>
0.000

> <Tether>
0.000

$$$$
VeraChem MOL file


 26 25  0  0  0  0  0  0  0  0999 V2000     
   20.5732   15.5379   23.0691 C   0  0  0  0  0  0  0  0  0  0  0  0
   21.1283   15.8824   23.9503 H   0  0  0  0  0  0  0  0  0  0  0  0
   19.5729   15.2228   23.3934 H   0  0  0  0  0  0  0  0  0  0  0  0
   21.0929   14.6537   22.6779 H   0  0  0  0  0  0  0  0  0  0  0  0
   20.4861   16.6368   21.9857 C   0  0  0  0  0  0  0  0  0  0  0  0
   20.0373   16.2045   21.0804 H   0  0  0  0  0  0  0  0  0  0  0  0
   21.4981   16.9586   21.7030 H   0  0  0  0  0  0  0  0  0  0  0  0
   19.6469   17.8640   22.4167 C   0  0  0  0  0  0  0  0  0  0  0  0
   19.5355   18.5222   21.5453 H   0  0  0  0  0  0  0  0  0  0  0  0
   18.6338   17.5371   22.6889 H   0  0  0  0  0  0  0  0  0  0  0  0
   20.2733   18.6568   23.5921 C   0  0  0  0  0  0  0  0  0  0  0  0
   21.2966   18.9596   23.3334 H   0  0  0  0  0  0  0  0  0  0  0  0
   20.3628   18.0020   24.4685 H   0  0  0  0  0  0  0  0  0  0  0  0
   19.4400   19.8973   24.0054 C   0  0  0  0  0  0  0  0  0  0  0  0
   18.4513   19.5610   24.3449 H   0  0  0  0  0  0  0  0  0  0  0  0
   19.9157   20.3735   24.8731 H   0  0  0  0  0  0  0  0  0  0  0  0
   19.2578   20.9462   22.8852 C   0  0  1  0  0  0  0  0  0  0  0  0
   18.7601   20.4645   22.0386 H   0  0  0  0  0  0  0  0  0  0  0  0
   18.3643   22.0982   23.3718 C   0  0  0  0  0  0  0  0  0  0  0  0
   18.1981   22.8266   22.5686 H   0  0  0  0  0  0  0  0  0  0  0  0
   18.8201   22.6234   24.2205 H   0  0  0  0  0  0  0  0  0  0  0  0
   17.3833   21.7231   23.6891 H   0  0  0  0  0  0  0  0  0  0  0  0
   20.5703   21.4733   22.3732 N   0  3  0  0  0  0  0  0  0  0  0  0
   21.1579   20.7177   22.0107 H   0  0  0  0  0  0  0  0  0  0  0  0
   20.4335   22.1475   21.6149 H   0  0  0  0  0  0  0  0  0  0  0  0
   21.0964   21.9460   23.1128 H   0  0  0  0  0  0  0  0  0  0  0  0
  1  2  1  0  0  0  0
  1  3  1  0  0  0  0
  1  4  1  0  0  0  0
  1  5  1  0  0  0  0
  5  6  1  0  0  0  0
  5  7  1  0  0  0  0
  5  8  1  0  0  0  0
  8  9  1  0  0  0  0
  8 10  1  0  0  0  0
  8 11  1  0  0  0  0
 11 12  1  0  0  0  0
 11 13  1  0  0  0  0
 11 14  1  0  0  0  0
 14 15  1  0  0  0  0
 14 16  1  0  0  0  0
 14 17  1  0  0  0  0
 17 18  1  0  0  0  0
 17 19  1  0  0  0  0
 19 20  1  0  0  0  0
 19 21  1  0  0  0  0
 19 22  1  0  0  0  0
 17 23  1  0  0  0  0
 23 24  1  0  0  0  0
 23 25  1  0  0  0  0
 23 26  1  0  0  0  0
M  END
> <VConfSearch Rank>
367

> <Conf_Id>
113

> <Delta U+W>
1.137

> <U+W>
-29.162

> <U>
24.833

> <W>
-53.995

> <W(PB)>
-56.288

> <W(SA)>
2.294

> <Valence>
3.589

> <Coulomb>
20.270

> <VdW>
0.974

> <VdW6>
-8.255

> <VdW12>
9.229

> <Bond>
0.244

> <Angle>
1.377

> <Pdih>
1.967

> <Idih>
0.000

> <Tether>
0.000

$$$$
VeraChem MOL file


 26 25  0  0  0  0  0  0  0  0999 V2000     
   16.9217   21.6966   23.6431 C   0  0  0  0  0  0  0  0  0  0  0  0
   16.8885   22.7231   23.2554 H   0  0  0  0  0  0  0  0  0  0  0  0
   16.0866   21.1408   23.1972 H   0  0  0  0  0  0  0  0  0  0  0  0
   16.7620   21.7414   24.7283 H   0  0  0  0  0  0  0  0  0  0  0  0
   18.2730   21.0306   23.3074 C   0  0  0  0  0  0  0  0  0  0  0  0
   19.0893   21.6247   23.7414 H   0  0  0  0  0  0  0  0  0  0  0  0
   18.4142   21.0420   22.2185 H   0  0  0  0  0  0  0  0  0  0  0  0
   18.3414   19.5800   23.8405 C   0  0  0  0  0  0  0  0  0  0  0  0
   18.1172   19.5847   24.9162 H   0  0  0  0  0  0  0  0  0  0  0  0
   17.5579   18.9734   23.3657 H   0  0  0  0  0  0  0  0  0  0  0  0
   19.7197   18.9061   23.6300 C   0  0  0  0  0  0  0  0  0  0  0  0
   19.7071   17.9360   24.1436 H   0  0  0  0  0  0  0  0  0  0  0  0
   20.4925   19.5093   24.1248 H   0  0  0  0  0  0  0  0  0  0  0  0
   20.0805   18.6971   22.1338 C   0  0  0  0  0  0  0  0  0  0  0  0
   19.2492   18.1877   21.6291 H   0  0  0  0  0  0  0  0  0  0  0  0
   20.1852   19.6707   21.6392 H   0  0  0  0  0  0  0  0  0  0  0  0
   21.3747   17.8867   21.8852 C   0  0  1  0  0  0  0  0  0  0  0  0
   21.5045   17.8065   20.8014 H   0  0  0  0  0  0  0  0  0  0  0  0
   22.6175   18.5955   22.4515 C   0  0  0  0  0  0  0  0  0  0  0  0
   22.6005   18.6296   23.5474 H   0  0  0  0  0  0  0  0  0  0  0  0
   22.6846   19.6241   22.0761 H   0  0  0  0  0  0  0  0  0  0  0  0
   23.5309   18.0701   22.1468 H   0  0  0  0  0  0  0  0  0  0  0  0
   21.2782   16.4758   22.3976 N   0  3  0  0  0  0  0  0  0  0  0  0
   20.4774   15.9829   21.9923 H   0  0  0  0  0  0  0  0  0  0  0  0
   22.1174   15.9361   22.1676 H   0  0  0  0  0  0  0  0  0  0  0  0
   21.1701   16.4557   23.4145 H   0  0  0  0  0  0  0  0  0  0  0  0
  1  2  1  0  0  0  0
  1  3  1  0  0  0  0
  1  4  1  0  0  0  0
  1  5  1  0  0  0  0
  5  6  1  0  0  0  0
  5  7  1  0  0  0  0
  5  8  1  0  0  0  0
  8  9  1  0  0  0  0
  8 10  1  0  0  0  0
  8 11  1  0  0  0  0
 11 12  1  0  0  0  0
 11 13  1  0  0  0  0
 11 14  1  0  0  0  0
 14 15  1  0  0  0  0
 14 16  1  0  0  0  0
 14 17  1  0  0  0  0
 17 18  1  0  0  0  0
 17 19  1  0  0  0  0
 19 20  1  0  0  0  0
 19 21  1  0  0  0  0
 19 22  1  0  0  0  0
 17 23  1  0  0  0  0
 23 24  1  0  0  0  0
 23 25  1  0  0  0  0
 23 26  1  0  0  0  0
M  END
> <VConfSearch Rank>
368

> <Conf_Id>
45

> <Delta U+W>
1.035

> <U+W>
-29.264

> <U>
24.725

> <W>
-53.989

> <W(PB)>
-56.298

> <W(SA)>
2.309

> <Valence>
3.780

> <Coulomb>
19.804

> <VdW>
1.141

> <VdW6>
-8.104

> <VdW12>
9.246

> <Bond>
0.254

> <Angle>
1.437

> <Pdih>
2.089

> <Idih>
0.000

> <Tether>
0.000

$$$$
VeraChem MOL file


 26 25  0  0  0  0  0  0  0  0999 V2000     
   17.2731   17.4783   25.5313 C   0  0  0  0  0  0  0  0  0  0  0  0
   16.6118   16.6378   25.2837 H   0  0  0  0  0  0  0  0  0  0  0  0
   17.7583   17.2537   26.4902 H   0  0  0  0  0  0  0  0  0  0  0  0
   16.6481   18.3709   25.6651 H   0  0  0  0  0  0  0  0  0  0  0  0
   18.3188   17.6956   24.4171 C   0  0  0  0  0  0  0  0  0  0  0  0
   17.7950   17.8754   23.4690 H   0  0  0  0  0  0  0  0  0  0  0  0
   18.9082   16.7773   24.2871 H   0  0  0  0  0  0  0  0  0  0  0  0
   19.2603   18.8795   24.7424 C   0  0  0  0  0  0  0  0  0  0  0  0
   18.6770   19.8077   24.8163 H   0  0  0  0  0  0  0  0  0  0  0  0
   19.7060   18.7168   25.7335 H   0  0  0  0  0  0  0  0  0  0  0  0
   20.4052   19.0654   23.7162 C   0  0  0  0  0  0  0  0  0  0  0  0
   20.9887   18.1370   23.6449 H   0  0  0  0  0  0  0  0  0  0  0  0
   21.0888   19.8307   24.1065 H   0  0  0  0  0  0  0  0  0  0  0  0
   19.9116   19.4822   22.3065 C   0  0  0  0  0  0  0  0  0  0  0  0
   19.2480   18.7041   21.9098 H   0  0  0  0  0  0  0  0  0  0  0  0
   19.3130   20.4000   22.3785 H   0  0  0  0  0  0  0  0  0  0  0  0
   21.0660   19.6933   21.3024 C   0  0  1  0  0  0  0  0  0  0  0  0
   21.6680   18.7798   21.2751 H   0  0  0  0  0  0  0  0  0  0  0  0
   20.5080   19.9453   19.8924 C   0  0  0  0  0  0  0  0  0  0  0  0
   19.8941   20.8543   19.8648 H   0  0  0  0  0  0  0  0  0  0  0  0
   19.8868   19.1034   19.5623 H   0  0  0  0  0  0  0  0  0  0  0  0
   21.3229   20.0611   19.1672 H   0  0  0  0  0  0  0  0  0  0  0  0
   21.9896   20.8093   21.7092 N   0  3  0  0  0  0  0  0  0  0  0  0
   22.4075   20.6341   22.6267 H   0  0  0  0  0  0  0  0  0  0  0  0
   22.7568   20.9223   21.0406 H   0  0  0  0  0  0  0  0  0  0  0  0
   21.4946   21.7034   21.7613 H   0  0  0  0  0  0  0  0  0  0  0  0
  1  2  1  0  0  0  0
  1  3  1  0  0  0  0
  1  4  1  0  0  0  0
  1  5  1  0  0  0  0
  5  6  1  0  0  0  0
  5  7  1  0  0  0  0
  5  8  1  0  0  0  0
  8  9  1  0  0  0  0
  8 10  1  0  0  0  0
  8 11  1  0  0  0  0
 11 12  1  0  0  0  0
 11 13  1  0  0  0  0
 11 14  1  0  0  0  0
 14 15  1  0  0  0  0
 14 16  1  0  0  0  0
 14 17  1  0  0  0  0
 17 18  1  0  0  0  0
 17 19  1  0  0  0  0
 19 20  1  0  0  0  0
 19 21  1  0  0  0  0
 19 22  1  0  0  0  0
 17 23  1  0  0  0  0
 23 24  1  0  0  0  0
 23 25  1  0  0  0  0
 23 26  1  0  0  0  0
M  END
> <VConfSearch Rank>
369

> <Conf_Id>
121

> <Delta U+W>
0.736

> <U+W>
-29.562

> <U>
24.282

> <W>
-53.844

> <W(PB)>
-56.205

> <W(SA)>
2.361

> <Valence>
3.311

> <Coulomb>
19.887

> <VdW>
1.083

> <VdW6>
-7.444

> <VdW12>
8.527

> <Bond>
0.219

> <Angle>
1.167

> <Pdih>
1.926

> <Idih>
0.000

> <Tether>
0.000

$$$$
VeraChem MOL file


 26 25  0  0  0  0  0  0  0  0999 V2000     
   21.1909   21.2462   25.6523 C   0  0  0  0  0  0  0  0  0  0  0  0
   21.2926   22.2147   26.1589 H   0  0  0  0  0  0  0  0  0  0  0  0
   21.1639   20.4655   26.4235 H   0  0  0  0  0  0  0  0  0  0  0  0
   22.0909   21.0977   25.0431 H   0  0  0  0  0  0  0  0  0  0  0  0
   19.9087   21.2199   24.7895 C   0  0  0  0  0  0  0  0  0  0  0  0
   19.9749   21.9865   24.0048 H   0  0  0  0  0  0  0  0  0  0  0  0
   19.0534   21.4994   25.4204 H   0  0  0  0  0  0  0  0  0  0  0  0
   19.6224   19.8395   24.1504 C   0  0  0  0  0  0  0  0  0  0  0  0
   19.5489   19.0785   24.9395 H   0  0  0  0  0  0  0  0  0  0  0  0
   18.6356   19.8854   23.6714 H   0  0  0  0  0  0  0  0  0  0  0  0
   20.6856   19.4108   23.1075 C   0  0  0  0  0  0  0  0  0  0  0  0
   21.6692   19.3503   23.5908 H   0  0  0  0  0  0  0  0  0  0  0  0
   20.7778   20.1813   22.3308 H   0  0  0  0  0  0  0  0  0  0  0  0
   20.3866   18.0336   22.4598 C   0  0  0  0  0  0  0  0  0  0  0  0
   21.1942   17.7878   21.7576 H   0  0  0  0  0  0  0  0  0  0  0  0
   20.4228   17.2668   23.2449 H   0  0  0  0  0  0  0  0  0  0  0  0
   19.0274   17.9294   21.7279 C   0  0  1  0  0  0  0  0  0  0  0  0
   18.2317   18.1640   22.4409 H   0  0  0  0  0  0  0  0  0  0  0  0
   18.9287   18.9120   20.5474 C   0  0  0  0  0  0  0  0  0  0  0  0
   19.7433   18.7533   19.8299 H   0  0  0  0  0  0  0  0  0  0  0  0
   18.9707   19.9520   20.8912 H   0  0  0  0  0  0  0  0  0  0  0  0
   17.9774   18.7839   20.0163 H   0  0  0  0  0  0  0  0  0  0  0  0
   18.7708   16.5239   21.2596 N   0  3  0  0  0  0  0  0  0  0  0  0
   18.7897   15.8576   22.0370 H   0  0  0  0  0  0  0  0  0  0  0  0
   17.8548   16.4405   20.8098 H   0  0  0  0  0  0  0  0  0  0  0  0
   19.4732   16.2219   20.5791 H   0  0  0  0  0  0  0  0  0  0  0  0
  1  2  1  0  0  0  0
  1  3  1  0  0  0  0
  1  4  1  0  0  0  0
  1  5  1  0  0  0  0
  5  6  1  0  0  0  0
  5  7  1  0  0  0  0
  5  8  1  0  0  0  0
  8  9  1  0  0  0  0
  8 10  1  0  0  0  0
  8 11  1  0  0  0  0
 11 12  1  0  0  0  0
 11 13  1  0  0  0  0
 11 14  1  0  0  0  0
 14 15  1  0  0  0  0
 14 16  1  0  0  0  0
 14 17  1  0  0  0  0
 17 18  1  0  0  0  0
 17 19  1  0  0  0  0
 19 20  1  0  0  0  0
 19 21  1  0  0  0  0
 19 22  1  0  0  0  0
 17 23  1  0  0  0  0
 23 24  1  0  0  0  0
 23 25  1  0  0  0  0
 23 26  1  0  0  0  0
M  END
> <VConfSearch Rank>
370

> <Conf_Id>
5

> <Delta U+W>
1.233

> <U+W>
-29.065

> <U>
25.023

> <W>
-54.088

> <W(PB)>
-56.383

> <W(SA)>
2.296

> <Valence>
4.083

> <Coulomb>
19.893

> <VdW>
1.047

> <VdW6>
-8.479

> <VdW12>
9.527

> <Bond>
0.256

> <Angle>
1.716

> <Pdih>
2.112

> <Idih>
0.000

> <Tether>
0.000

$$$$
VeraChem MOL file


 26 25  0  0  0  0  0  0  0  0999 V2000     
   18.3765   20.3645   19.7970 C   0  0  0  0  0  0  0  0  0  0  0  0
   17.7106   20.2819   18.9282 H   0  0  0  0  0  0  0  0  0  0  0  0
   17.9506   21.1220   20.4662 H   0  0  0  0  0  0  0  0  0  0  0  0
   19.3492   20.7274   19.4404 H   0  0  0  0  0  0  0  0  0  0  0  0
   18.5177   18.9958   20.5012 C   0  0  0  0  0  0  0  0  0  0  0  0
   18.8232   18.2473   19.7569 H   0  0  0  0  0  0  0  0  0  0  0  0
   17.5383   18.6708   20.8792 H   0  0  0  0  0  0  0  0  0  0  0  0
   19.5507   18.9972   21.6541 C   0  0  0  0  0  0  0  0  0  0  0  0
   19.6799   17.9606   21.9914 H   0  0  0  0  0  0  0  0  0  0  0  0
   20.5262   19.3277   21.2716 H   0  0  0  0  0  0  0  0  0  0  0  0
   19.1318   19.8790   22.8569 C   0  0  0  0  0  0  0  0  0  0  0  0
   18.1699   19.5245   23.2524 H   0  0  0  0  0  0  0  0  0  0  0  0
   18.9640   20.9088   22.5165 H   0  0  0  0  0  0  0  0  0  0  0  0
   20.1741   19.9199   24.0033 C   0  0  0  0  0  0  0  0  0  0  0  0
   21.1153   20.3542   23.6401 H   0  0  0  0  0  0  0  0  0  0  0  0
   19.8003   20.6199   24.7622 H   0  0  0  0  0  0  0  0  0  0  0  0
   20.4320   18.5436   24.6637 C   0  0  1  0  0  0  0  0  0  0  0  0
   19.6031   17.8788   24.4017 H   0  0  0  0  0  0  0  0  0  0  0  0
   21.7461   17.9140   24.1666 C   0  0  0  0  0  0  0  0  0  0  0  0
   22.6107   18.5240   24.4569 H   0  0  0  0  0  0  0  0  0  0  0  0
   21.7565   17.8138   23.0755 H   0  0  0  0  0  0  0  0  0  0  0  0
   21.8799   16.9121   24.5928 H   0  0  0  0  0  0  0  0  0  0  0  0
   20.4383   18.6325   26.1653 N   0  3  0  0  0  0  0  0  0  0  0  0
   19.5544   19.0048   26.5243 H   0  0  0  0  0  0  0  0  0  0  0  0
   20.5773   17.7130   26.5939 H   0  0  0  0  0  0  0  0  0  0  0  0
   21.1886   19.2423   26.5013 H   0  0  0  0  0  0  0  0  0  0  0  0
  1  2  1  0  0  0  0
  1  3  1  0  0  0  0
  1  4  1  0  0  0  0
  1  5  1  0  0  0  0
  5  6  1  0  0  0  0
  5  7  1  0  0  0  0
  5  8  1  0  0  0  0
  8  9  1  0  0  0  0
  8 10  1  0  0  0  0
  8 11  1  0  0  0  0
 11 12  1  0  0  0  0
 11 13  1  0  0  0  0
 11 14  1  0  0  0  0
 14 15  1  0  0  0  0
 14 16  1  0  0  0  0
 14 17  1  0  0  0  0
 17 18  1  0  0  0  0
 17 19  1  0  0  0  0
 19 20  1  0  0  0  0
 19 21  1  0  0  0  0
 19 22  1  0  0  0  0
 17 23  1  0  0  0  0
 23 24  1  0  0  0  0
 23 25  1  0  0  0  0
 23 26  1  0  0  0  0
M  END
> <VConfSearch Rank>
371

> <Conf_Id>
100

> <Delta U+W>
3.818

> <U+W>
-26.481

> <U>
27.496

> <W>
-53.977

> <W(PB)>
-56.267

> <W(SA)>
2.290

> <Valence>
6.472

> <Coulomb>
19.839

> <VdW>
1.185

> <VdW6>
-8.405

> <VdW12>
9.590

> <Bond>
0.248

> <Angle>
1.619

> <Pdih>
4.604

> <Idih>
0.000

> <Tether>
0.000

$$$$
VeraChem MOL file


 26 25  0  0  0  0  0  0  0  0999 V2000     
   19.8031   16.8593   25.9210 C   0  0  0  0  0  0  0  0  0  0  0  0
   19.6039   15.8170   26.2017 H   0  0  0  0  0  0  0  0  0  0  0  0
   20.8917   16.9963   25.8846 H   0  0  0  0  0  0  0  0  0  0  0  0
   19.4036   17.5042   26.7145 H   0  0  0  0  0  0  0  0  0  0  0  0
   19.1564   17.1900   24.5591 C   0  0  0  0  0  0  0  0  0  0  0  0
   18.0737   17.0103   24.6167 H   0  0  0  0  0  0  0  0  0  0  0  0
   19.5508   16.5075   23.7933 H   0  0  0  0  0  0  0  0  0  0  0  0
   19.4214   18.6530   24.1401 C   0  0  0  0  0  0  0  0  0  0  0  0
   19.0251   19.3288   24.9106 H   0  0  0  0  0  0  0  0  0  0  0  0
   20.5034   18.8250   24.0999 H   0  0  0  0  0  0  0  0  0  0  0  0
   18.7670   18.9873   22.7770 C   0  0  0  0  0  0  0  0  0  0  0  0
   17.6844   18.8238   22.8713 H   0  0  0  0  0  0  0  0  0  0  0  0
   19.1111   18.2836   22.0082 H   0  0  0  0  0  0  0  0  0  0  0  0
   18.9991   20.4549   22.3204 C   0  0  0  0  0  0  0  0  0  0  0  0
   18.0942   20.8022   21.8047 H   0  0  0  0  0  0  0  0  0  0  0  0
   19.0994   21.1079   23.1974 H   0  0  0  0  0  0  0  0  0  0  0  0
   20.1956   20.6901   21.3650 C   0  0  1  0  0  0  0  0  0  0  0  0
   20.2280   21.7627   21.1500 H   0  0  0  0  0  0  0  0  0  0  0  0
   21.5462   20.3044   21.9897 C   0  0  0  0  0  0  0  0  0  0  0  0
   21.6340   19.2191   22.1185 H   0  0  0  0  0  0  0  0  0  0  0  0
   21.6756   20.7844   22.9676 H   0  0  0  0  0  0  0  0  0  0  0  0
   22.3725   20.6316   21.3469 H   0  0  0  0  0  0  0  0  0  0  0  0
   20.0069   20.0095   20.0367 N   0  3  0  0  0  0  0  0  0  0  0  0
   19.1357   20.3020   19.5851 H   0  0  0  0  0  0  0  0  0  0  0  0
   20.7725   20.2275   19.3928 H   0  0  0  0  0  0  0  0  0  0  0  0
   19.9735   18.9926   20.1403 H   0  0  0  0  0  0  0  0  0  0  0  0
  1  2  1  0  0  0  0
  1  3  1  0  0  0  0
  1  4  1  0  0  0  0
  1  5  1  0  0  0  0
  5  6  1  0  0  0  0
  5  7  1  0  0  0  0
  5  8  1  0  0  0  0
  8  9  1  0  0  0  0
  8 10  1  0  0  0  0
  8 11  1  0  0  0  0
 11 12  1  0  0  0  0
 11 13  1  0  0  0  0
 11 14  1  0  0  0  0
 14 15  1  0  0  0  0
 14 16  1  0  0  0  0
 14 17  1  0  0  0  0
 17 18  1  0  0  0  0
 17 19  1  0  0  0  0
 19 20  1  0  0  0  0
 19 21  1  0  0  0  0
 19 22  1  0  0  0  0
 17 23  1  0  0  0  0
 23 24  1  0  0  0  0
 23 25  1  0  0  0  0
 23 26  1  0  0  0  0
M  END
> <VConfSearch Rank>
372

> <Conf_Id>
142

> <Delta U+W>
2.978

> <U+W>
-27.320

> <U>
26.848

> <W>
-54.168

> <W(PB)>
-56.427

> <W(SA)>
2.259

> <Valence>
5.823

> <Coulomb>
20.057

> <VdW>
0.968

> <VdW6>
-8.367

> <VdW12>
9.335

> <Bond>
0.267

> <Angle>
1.799

> <Pdih>
3.758

> <Idih>
0.000

> <Tether>
0.000

$$$$
VeraChem MOL file


 26 25  0  0  0  0  0  0  0  0999 V2000     
   21.8159   21.1058   20.8495 C   0  0  0  0  0  0  0  0  0  0  0  0
   22.6975   20.4559   20.9233 H   0  0  0  0  0  0  0  0  0  0  0  0
   21.9290   21.7227   19.9487 H   0  0  0  0  0  0  0  0  0  0  0  0
   21.8141   21.7827   21.7125 H   0  0  0  0  0  0  0  0  0  0  0  0
   20.5158   20.2730   20.7736 C   0  0  0  0  0  0  0  0  0  0  0  0
   20.5125   19.7145   19.8270 H   0  0  0  0  0  0  0  0  0  0  0  0
   19.6466   20.9444   20.7367 H   0  0  0  0  0  0  0  0  0  0  0  0
   20.3543   19.2684   21.9403 C   0  0  0  0  0  0  0  0  0  0  0  0
   19.4944   18.6295   21.7083 H   0  0  0  0  0  0  0  0  0  0  0  0
   21.2361   18.6146   21.9851 H   0  0  0  0  0  0  0  0  0  0  0  0
   20.1314   19.9499   23.3141 C   0  0  0  0  0  0  0  0  0  0  0  0
   19.2132   20.5513   23.2830 H   0  0  0  0  0  0  0  0  0  0  0  0
   20.9456   20.6618   23.4987 H   0  0  0  0  0  0  0  0  0  0  0  0
   20.0900   18.9744   24.5245 C   0  0  0  0  0  0  0  0  0  0  0  0
   21.0597   18.4677   24.6148 H   0  0  0  0  0  0  0  0  0  0  0  0
   19.9933   19.5798   25.4353 H   0  0  0  0  0  0  0  0  0  0  0  0
   18.9621   17.9111   24.5521 C   0  0  1  0  0  0  0  0  0  0  0  0
   18.9515   17.4909   25.5626 H   0  0  0  0  0  0  0  0  0  0  0  0
   17.5722   18.5192   24.2952 C   0  0  0  0  0  0  0  0  0  0  0  0
   17.4725   18.8816   23.2651 H   0  0  0  0  0  0  0  0  0  0  0  0
   17.3840   19.3589   24.9756 H   0  0  0  0  0  0  0  0  0  0  0  0
   16.7883   17.7710   24.4650 H   0  0  0  0  0  0  0  0  0  0  0  0
   19.2269   16.7424   23.6429 N   0  3  0  0  0  0  0  0  0  0  0  0
   20.1203   16.2926   23.8621 H   0  0  0  0  0  0  0  0  0  0  0  0
   18.4974   16.0291   23.7299 H   0  0  0  0  0  0  0  0  0  0  0  0
   19.2598   17.0315   22.6635 H   0  0  0  0  0  0  0  0  0  0  0  0
  1  2  1  0  0  0  0
  1  3  1  0  0  0  0
  1  4  1  0  0  0  0
  1  5  1  0  0  0  0
  5  6  1  0  0  0  0
  5  7  1  0  0  0  0
  5  8  1  0  0  0  0
  8  9  1  0  0  0  0
  8 10  1  0  0  0  0
  8 11  1  0  0  0  0
 11 12  1  0  0  0  0
 11 13  1  0  0  0  0
 11 14  1  0  0  0  0
 14 15  1  0  0  0  0
 14 16  1  0  0  0  0
 14 17  1  0  0  0  0
 17 18  1  0  0  0  0
 17 19  1  0  0  0  0
 19 20  1  0  0  0  0
 19 21  1  0  0  0  0
 19 22  1  0  0  0  0
 17 23  1  0  0  0  0
 23 24  1  0  0  0  0
 23 25  1  0  0  0  0
 23 26  1  0  0  0  0
M  END
> <VConfSearch Rank>
373

> <Conf_Id>
119

> <Delta U+W>
3.538

> <U+W>
-26.761

> <U>
27.482

> <W>
-54.243

> <W(PB)>
-56.494

> <W(SA)>
2.251

> <Valence>
5.284

> <Coulomb>
21.247

> <VdW>
0.951

> <VdW6>
-9.416

> <VdW12>
10.367

> <Bond>
0.323

> <Angle>
2.522

> <Pdih>
2.439

> <Idih>
0.000

> <Tether>
0.000

$$$$
VeraChem MOL file


 26 25  0  0  0  0  0  0  0  0999 V2000     
   21.2809   16.1023   21.7491 C   0  0  0  0  0  0  0  0  0  0  0  0
   21.0793   15.3944   22.5635 H   0  0  0  0  0  0  0  0  0  0  0  0
   20.3603   16.2274   21.1657 H   0  0  0  0  0  0  0  0  0  0  0  0
   22.0309   15.6490   21.0882 H   0  0  0  0  0  0  0  0  0  0  0  0
   21.7917   17.4529   22.3004 C   0  0  0  0  0  0  0  0  0  0  0  0
   21.9558   18.1528   21.4692 H   0  0  0  0  0  0  0  0  0  0  0  0
   22.7739   17.2955   22.7678 H   0  0  0  0  0  0  0  0  0  0  0  0
   20.8428   18.0921   23.3428 C   0  0  0  0  0  0  0  0  0  0  0  0
   20.7046   17.3982   24.1833 H   0  0  0  0  0  0  0  0  0  0  0  0
   21.3371   18.9777   23.7591 H   0  0  0  0  0  0  0  0  0  0  0  0
   19.4599   18.4808   22.7593 C   0  0  0  0  0  0  0  0  0  0  0  0
   18.9398   17.5617   22.4590 H   0  0  0  0  0  0  0  0  0  0  0  0
   19.5877   19.0693   21.8417 H   0  0  0  0  0  0  0  0  0  0  0  0
   18.5529   19.2342   23.7722 C   0  0  0  0  0  0  0  0  0  0  0  0
   17.5162   18.9080   23.6158 H   0  0  0  0  0  0  0  0  0  0  0  0
   18.8005   18.9261   24.7966 H   0  0  0  0  0  0  0  0  0  0  0  0
   18.5712   20.7804   23.6810 C   0  0  1  0  0  0  0  0  0  0  0  0
   17.8969   21.1560   24.4570 H   0  0  0  0  0  0  0  0  0  0  0  0
   19.9615   21.3792   23.9487 C   0  0  0  0  0  0  0  0  0  0  0  0
   20.6668   21.1324   23.1462 H   0  0  0  0  0  0  0  0  0  0  0  0
   20.3691   21.0100   24.8979 H   0  0  0  0  0  0  0  0  0  0  0  0
   19.9014   22.4723   24.0160 H   0  0  0  0  0  0  0  0  0  0  0  0
   18.0155   21.2808   22.3756 N   0  3  0  0  0  0  0  0  0  0  0  0
   17.0667   20.9320   22.2129 H   0  0  0  0  0  0  0  0  0  0  0  0
   17.9725   22.3036   22.3550 H   0  0  0  0  0  0  0  0  0  0  0  0
   18.5928   20.9821   21.5859 H   0  0  0  0  0  0  0  0  0  0  0  0
  1  2  1  0  0  0  0
  1  3  1  0  0  0  0
  1  4  1  0  0  0  0
  1  5  1  0  0  0  0
  5  6  1  0  0  0  0
  5  7  1  0  0  0  0
  5  8  1  0  0  0  0
  8  9  1  0  0  0  0
  8 10  1  0  0  0  0
  8 11  1  0  0  0  0
 11 12  1  0  0  0  0
 11 13  1  0  0  0  0
 11 14  1  0  0  0  0
 14 15  1  0  0  0  0
 14 16  1  0  0  0  0
 14 17  1  0  0  0  0
 17 18  1  0  0  0  0
 17 19  1  0  0  0  0
 19 20  1  0  0  0  0
 19 21  1  0  0  0  0
 19 22  1  0  0  0  0
 17 23  1  0  0  0  0
 23 24  1  0  0  0  0
 23 25  1  0  0  0  0
 23 26  1  0  0  0  0
M  END
> <VConfSearch Rank>
374

> <Conf_Id>
127

> <Delta U+W>
3.544

> <U+W>
-26.754

> <U>
27.509

> <W>
-54.263

> <W(PB)>
-56.496

> <W(SA)>
2.232

> <Valence>
6.375

> <Coulomb>
20.014

> <VdW>
1.120

> <VdW6>
-8.976

> <VdW12>
10.096

> <Bond>
0.304

> <Angle>
1.986

> <Pdih>
4.086

> <Idih>
0.000

> <Tether>
0.000

$$$$
VeraChem MOL file


 26 25  0  0  0  0  0  0  0  0999 V2000     
   19.6698   16.1100   22.0228 C   0  0  0  0  0  0  0  0  0  0  0  0
   20.0647   15.4995   21.2005 H   0  0  0  0  0  0  0  0  0  0  0  0
   19.0102   15.4711   22.6243 H   0  0  0  0  0  0  0  0  0  0  0  0
   19.0582   16.9049   21.5821 H   0  0  0  0  0  0  0  0  0  0  0  0
   20.8260   16.6725   22.8823 C   0  0  0  0  0  0  0  0  0  0  0  0
   21.5221   17.2486   22.2569 H   0  0  0  0  0  0  0  0  0  0  0  0
   21.4032   15.8217   23.2709 H   0  0  0  0  0  0  0  0  0  0  0  0
   20.3414   17.5289   24.0805 C   0  0  0  0  0  0  0  0  0  0  0  0
   19.3498   17.1918   24.4126 H   0  0  0  0  0  0  0  0  0  0  0  0
   21.0154   17.3421   24.9281 H   0  0  0  0  0  0  0  0  0  0  0  0
   20.3268   19.0584   23.8256 C   0  0  0  0  0  0  0  0  0  0  0  0
   21.3480   19.3928   23.5993 H   0  0  0  0  0  0  0  0  0  0  0  0
   20.0431   19.5498   24.7648 H   0  0  0  0  0  0  0  0  0  0  0  0
   19.3649   19.5037   22.6919 C   0  0  0  0  0  0  0  0  0  0  0  0
   19.7136   19.0868   21.7395 H   0  0  0  0  0  0  0  0  0  0  0  0
   18.3684   19.0784   22.8695 H   0  0  0  0  0  0  0  0  0  0  0  0
   19.2305   21.0349   22.5147 C   0  0  1  0  0  0  0  0  0  0  0  0
   18.5923   21.2047   21.6419 H   0  0  0  0  0  0  0  0  0  0  0  0
   18.5484   21.7025   23.7219 C   0  0  0  0  0  0  0  0  0  0  0  0
   17.5937   21.2129   23.9506 H   0  0  0  0  0  0  0  0  0  0  0  0
   18.3373   22.7572   23.5069 H   0  0  0  0  0  0  0  0  0  0  0  0
   19.1780   21.6645   24.6185 H   0  0  0  0  0  0  0  0  0  0  0  0
   20.5456   21.6954   22.2042 N   0  3  0  0  0  0  0  0  0  0  0  0
   20.9832   21.2885   21.3727 H   0  0  0  0  0  0  0  0  0  0  0  0
   20.4290   22.6975   22.0293 H   0  0  0  0  0  0  0  0  0  0  0  0
   21.2041   21.5939   22.9804 H   0  0  0  0  0  0  0  0  0  0  0  0
  1  2  1  0  0  0  0
  1  3  1  0  0  0  0
  1  4  1  0  0  0  0
  1  5  1  0  0  0  0
  5  6  1  0  0  0  0
  5  7  1  0  0  0  0
  5  8  1  0  0  0  0
  8  9  1  0  0  0  0
  8 10  1  0  0  0  0
  8 11  1  0  0  0  0
 11 12  1  0  0  0  0
 11 13  1  0  0  0  0
 11 14  1  0  0  0  0
 14 15  1  0  0  0  0
 14 16  1  0  0  0  0
 14 17  1  0  0  0  0
 17 18  1  0  0  0  0
 17 19  1  0  0  0  0
 19 20  1  0  0  0  0
 19 21  1  0  0  0  0
 19 22  1  0  0  0  0
 17 23  1  0  0  0  0
 23 24  1  0  0  0  0
 23 25  1  0  0  0  0
 23 26  1  0  0  0  0
M  END
> <VConfSearch Rank>
375

> <Conf_Id>
131

> <Delta U+W>
3.589

> <U+W>
-26.710

> <U>
27.573

> <W>
-54.283

> <W(PB)>
-56.537

> <W(SA)>
2.254

> <Valence>
6.363

> <Coulomb>
20.026

> <VdW>
1.184

> <VdW6>
-8.939

> <VdW12>
10.123

> <Bond>
0.298

> <Angle>
2.018

> <Pdih>
4.047

> <Idih>
0.000

> <Tether>
0.000

$$$$
VeraChem MOL file


 26 25  0  0  0  0  0  0  0  0999 V2000     
   17.4513   18.3535   24.4273 C   0  0  0  0  0  0  0  0  0  0  0  0
   18.0029   18.6915   25.3140 H   0  0  0  0  0  0  0  0  0  0  0  0
   17.5226   19.1274   23.6533 H   0  0  0  0  0  0  0  0  0  0  0  0
   16.3928   18.2644   24.7038 H   0  0  0  0  0  0  0  0  0  0  0  0
   17.9910   16.9995   23.9173 C   0  0  0  0  0  0  0  0  0  0  0  0
   17.4689   16.7257   22.9899 H   0  0  0  0  0  0  0  0  0  0  0  0
   17.7372   16.2208   24.6500 H   0  0  0  0  0  0  0  0  0  0  0  0
   19.5225   16.9696   23.6799 C   0  0  0  0  0  0  0  0  0  0  0  0
   20.0541   17.1317   24.6275 H   0  0  0  0  0  0  0  0  0  0  0  0
   19.7872   15.9511   23.3636 H   0  0  0  0  0  0  0  0  0  0  0  0
   20.0315   17.9582   22.5981 C   0  0  0  0  0  0  0  0  0  0  0  0
   19.2472   18.1133   21.8462 H   0  0  0  0  0  0  0  0  0  0  0  0
   20.8732   17.4901   22.0691 H   0  0  0  0  0  0  0  0  0  0  0  0
   20.5220   19.3100   23.1810 C   0  0  0  0  0  0  0  0  0  0  0  0
   19.7077   19.8260   23.7017 H   0  0  0  0  0  0  0  0  0  0  0  0
   21.2875   19.1014   23.9400 H   0  0  0  0  0  0  0  0  0  0  0  0
   21.1327   20.2558   22.1219 C   0  0  1  0  0  0  0  0  0  0  0  0
   21.9067   19.7070   21.5765 H   0  0  0  0  0  0  0  0  0  0  0  0
   20.0808   20.7498   21.1123 C   0  0  0  0  0  0  0  0  0  0  0  0
   19.2494   21.2544   21.6203 H   0  0  0  0  0  0  0  0  0  0  0  0
   19.6714   19.9211   20.5236 H   0  0  0  0  0  0  0  0  0  0  0  0
   20.5277   21.4593   20.4051 H   0  0  0  0  0  0  0  0  0  0  0  0
   21.8198   21.4256   22.7702 N   0  3  0  0  0  0  0  0  0  0  0  0
   21.1606   21.9986   23.3037 H   0  0  0  0  0  0  0  0  0  0  0  0
   22.5551   21.1216   23.4148 H   0  0  0  0  0  0  0  0  0  0  0  0
   22.2591   22.0342   22.0737 H   0  0  0  0  0  0  0  0  0  0  0  0
  1  2  1  0  0  0  0
  1  3  1  0  0  0  0
  1  4  1  0  0  0  0
  1  5  1  0  0  0  0
  5  6  1  0  0  0  0
  5  7  1  0  0  0  0
  5  8  1  0  0  0  0
  8  9  1  0  0  0  0
  8 10  1  0  0  0  0
  8 11  1  0  0  0  0
 11 12  1  0  0  0  0
 11 13  1  0  0  0  0
 11 14  1  0  0  0  0
 14 15  1  0  0  0  0
 14 16  1  0  0  0  0
 14 17  1  0  0  0  0
 17 18  1  0  0  0  0
 17 19  1  0  0  0  0
 19 20  1  0  0  0  0
 19 21  1  0  0  0  0
 19 22  1  0  0  0  0
 17 23  1  0  0  0  0
 23 24  1  0  0  0  0
 23 25  1  0  0  0  0
 23 26  1  0  0  0  0
M  END
> <VConfSearch Rank>
376

> <Conf_Id>
80

> <Delta U+W>
3.351

> <U+W>
-26.948

> <U>
27.261

> <W>
-54.209

> <W(PB)>
-56.471

> <W(SA)>
2.263

> <Valence>
6.230

> <Coulomb>
19.945

> <VdW>
1.087

> <VdW6>
-8.618

> <VdW12>
9.704

> <Bond>
0.277

> <Angle>
1.928

> <Pdih>
4.025

> <Idih>
0.000

> <Tether>
0.000

$$$$
VeraChem MOL file


 26 25  0  0  0  0  0  0  0  0999 V2000     
   21.1434   17.6336   20.3271 C   0  0  0  0  0  0  0  0  0  0  0  0
   22.1194   17.6580   19.8254 H   0  0  0  0  0  0  0  0  0  0  0  0
   20.5933   16.7616   19.9503 H   0  0  0  0  0  0  0  0  0  0  0  0
   20.5987   18.5393   20.0325 H   0  0  0  0  0  0  0  0  0  0  0  0
   21.3247   17.5567   21.8599 C   0  0  0  0  0  0  0  0  0  0  0  0
   21.8527   18.4511   22.2150 H   0  0  0  0  0  0  0  0  0  0  0  0
   21.9854   16.7103   22.0940 H   0  0  0  0  0  0  0  0  0  0  0  0
   19.9948   17.3683   22.6353 C   0  0  0  0  0  0  0  0  0  0  0  0
   19.5762   16.3878   22.3696 H   0  0  0  0  0  0  0  0  0  0  0  0
   20.2211   17.3078   23.7058 H   0  0  0  0  0  0  0  0  0  0  0  0
   18.9042   18.4462   22.3765 C   0  0  0  0  0  0  0  0  0  0  0  0
   17.9861   18.1698   22.9130 H   0  0  0  0  0  0  0  0  0  0  0  0
   18.6313   18.4136   21.3135 H   0  0  0  0  0  0  0  0  0  0  0  0
   19.2935   19.9061   22.7427 C   0  0  0  0  0  0  0  0  0  0  0  0
   20.3642   20.0798   22.5881 H   0  0  0  0  0  0  0  0  0  0  0  0
   18.7851   20.5687   22.0300 H   0  0  0  0  0  0  0  0  0  0  0  0
   18.8815   20.3617   24.1635 C   0  0  1  0  0  0  0  0  0  0  0  0
   17.7986   20.2373   24.2609 H   0  0  0  0  0  0  0  0  0  0  0  0
   19.5592   19.5456   25.2765 C   0  0  0  0  0  0  0  0  0  0  0  0
   19.1834   18.5166   25.2906 H   0  0  0  0  0  0  0  0  0  0  0  0
   19.3427   19.9780   26.2611 H   0  0  0  0  0  0  0  0  0  0  0  0
   20.6482   19.5210   25.1464 H   0  0  0  0  0  0  0  0  0  0  0  0
   19.1552   21.8278   24.3564 N   0  3  0  0  0  0  0  0  0  0  0  0
   18.6743   22.3972   23.6542 H   0  0  0  0  0  0  0  0  0  0  0  0
   18.8400   22.1492   25.2761 H   0  0  0  0  0  0  0  0  0  0  0  0
   20.1553   22.0339   24.2875 H   0  0  0  0  0  0  0  0  0  0  0  0
  1  2  1  0  0  0  0
  1  3  1  0  0  0  0
  1  4  1  0  0  0  0
  1  5  1  0  0  0  0
  5  6  1  0  0  0  0
  5  7  1  0  0  0  0
  5  8  1  0  0  0  0
  8  9  1  0  0  0  0
  8 10  1  0  0  0  0
  8 11  1  0  0  0  0
 11 12  1  0  0  0  0
 11 13  1  0  0  0  0
 11 14  1  0  0  0  0
 14 15  1  0  0  0  0
 14 16  1  0  0  0  0
 14 17  1  0  0  0  0
 17 18  1  0  0  0  0
 17 19  1  0  0  0  0
 19 20  1  0  0  0  0
 19 21  1  0  0  0  0
 19 22  1  0  0  0  0
 17 23  1  0  0  0  0
 23 24  1  0  0  0  0
 23 25  1  0  0  0  0
 23 26  1  0  0  0  0
M  END
> <VConfSearch Rank>
377

> <Conf_Id>
136

> <Delta U+W>
4.272

> <U+W>
-26.026

> <U>
28.262

> <W>
-54.288

> <W(PB)>
-56.488

> <W(SA)>
2.200

> <Valence>
7.096

> <Coulomb>
19.990

> <VdW>
1.175

> <VdW6>
-9.404

> <VdW12>
10.580

> <Bond>
0.360

> <Angle>
2.785

> <Pdih>
3.951

> <Idih>
0.000

> <Tether>
0.000

$$$$
VeraChem MOL file


 26 25  0  0  0  0  0  0  0  0999 V2000     
   21.9038   19.0720   20.8960 C   0  0  0  0  0  0  0  0  0  0  0  0
   20.8322   19.1645   20.6805 H   0  0  0  0  0  0  0  0  0  0  0  0
   22.4398   19.1793   19.9441 H   0  0  0  0  0  0  0  0  0  0  0  0
   22.0986   18.0618   21.2787 H   0  0  0  0  0  0  0  0  0  0  0  0
   22.3692   20.1480   21.9012 C   0  0  0  0  0  0  0  0  0  0  0  0
   22.1099   21.1437   21.5149 H   0  0  0  0  0  0  0  0  0  0  0  0
   23.4662   20.1220   21.9622 H   0  0  0  0  0  0  0  0  0  0  0  0
   21.7931   19.9795   23.3304 C   0  0  0  0  0  0  0  0  0  0  0  0
   22.1319   19.0289   23.7649 H   0  0  0  0  0  0  0  0  0  0  0  0
   22.2343   20.7656   23.9588 H   0  0  0  0  0  0  0  0  0  0  0  0
   20.2492   20.0952   23.4241 C   0  0  0  0  0  0  0  0  0  0  0  0
   19.8716   20.7411   22.6194 H   0  0  0  0  0  0  0  0  0  0  0  0
   20.0019   20.6036   24.3655 H   0  0  0  0  0  0  0  0  0  0  0  0
   19.5286   18.7221   23.3980 C   0  0  0  0  0  0  0  0  0  0  0  0
   19.8458   18.1543   22.5161 H   0  0  0  0  0  0  0  0  0  0  0  0
   19.8338   18.1299   24.2709 H   0  0  0  0  0  0  0  0  0  0  0  0
   17.9902   18.8518   23.3736 C   0  0  1  0  0  0  0  0  0  0  0  0
   17.7120   19.4653   22.5111 H   0  0  0  0  0  0  0  0  0  0  0  0
   17.3396   17.4687   23.2113 C   0  0  0  0  0  0  0  0  0  0  0  0
   17.5874   16.8118   24.0545 H   0  0  0  0  0  0  0  0  0  0  0  0
   17.6804   16.9832   22.2883 H   0  0  0  0  0  0  0  0  0  0  0  0
   16.2475   17.5572   23.1564 H   0  0  0  0  0  0  0  0  0  0  0  0
   17.4505   19.5488   24.5928 N   0  3  0  0  0  0  0  0  0  0  0  0
   17.6745   19.0328   25.4477 H   0  0  0  0  0  0  0  0  0  0  0  0
   17.8409   20.4899   24.6891 H   0  0  0  0  0  0  0  0  0  0  0  0
   16.4319   19.6432   24.5497 H   0  0  0  0  0  0  0  0  0  0  0  0
  1  2  1  0  0  0  0
  1  3  1  0  0  0  0
  1  4  1  0  0  0  0
  1  5  1  0  0  0  0
  5  6  1  0  0  0  0
  5  7  1  0  0  0  0
  5  8  1  0  0  0  0
  8  9  1  0  0  0  0
  8 10  1  0  0  0  0
  8 11  1  0  0  0  0
 11 12  1  0  0  0  0
 11 13  1  0  0  0  0
 11 14  1  0  0  0  0
 14 15  1  0  0  0  0
 14 16  1  0  0  0  0
 14 17  1  0  0  0  0
 17 18  1  0  0  0  0
 17 19  1  0  0  0  0
 19 20  1  0  0  0  0
 19 21  1  0  0  0  0
 19 22  1  0  0  0  0
 17 23  1  0  0  0  0
 23 24  1  0  0  0  0
 23 25  1  0  0  0  0
 23 26  1  0  0  0  0
M  END
> <VConfSearch Rank>
378

> <Conf_Id>
124

> <Delta U+W>
3.001

> <U+W>
-27.298

> <U>
26.787

> <W>
-54.085

> <W(PB)>
-56.347

> <W(SA)>
2.262

> <Valence>
5.742

> <Coulomb>
20.023

> <VdW>
1.022

> <VdW6>
-8.392

> <VdW12>
9.414

> <Bond>
0.261

> <Angle>
1.576

> <Pdih>
3.904

> <Idih>
0.000

> <Tether>
0.000

$$$$
VeraChem MOL file


 26 25  0  0  0  0  0  0  0  0999 V2000     
   19.9368   18.7234   26.1344 C   0  0  0  0  0  0  0  0  0  0  0  0
   20.2060   19.6215   26.7054 H   0  0  0  0  0  0  0  0  0  0  0  0
   19.8296   17.8958   26.8475 H   0  0  0  0  0  0  0  0  0  0  0  0
   20.7743   18.4823   25.4707 H   0  0  0  0  0  0  0  0  0  0  0  0
   18.6184   18.9396   25.3554 C   0  0  0  0  0  0  0  0  0  0  0  0
   17.8241   19.1452   26.0866 H   0  0  0  0  0  0  0  0  0  0  0  0
   18.3227   18.0149   24.8405 H   0  0  0  0  0  0  0  0  0  0  0  0
   18.6813   20.1196   24.3514 C   0  0  0  0  0  0  0  0  0  0  0  0
   17.6955   20.6047   24.3336 H   0  0  0  0  0  0  0  0  0  0  0  0
   19.3812   20.8871   24.7095 H   0  0  0  0  0  0  0  0  0  0  0  0
   19.0283   19.7179   22.8945 C   0  0  0  0  0  0  0  0  0  0  0  0
   18.9593   20.6185   22.2707 H   0  0  0  0  0  0  0  0  0  0  0  0
   18.2596   19.0271   22.5233 H   0  0  0  0  0  0  0  0  0  0  0  0
   20.4327   19.0792   22.7293 C   0  0  0  0  0  0  0  0  0  0  0  0
   21.1786   19.7058   23.2354 H   0  0  0  0  0  0  0  0  0  0  0  0
   20.4506   18.1063   23.2357 H   0  0  0  0  0  0  0  0  0  0  0  0
   20.8818   18.8668   21.2642 C   0  0  1  0  0  0  0  0  0  0  0  0
   21.8763   18.4107   21.2921 H   0  0  0  0  0  0  0  0  0  0  0  0
   19.9489   17.9045   20.5082 C   0  0  0  0  0  0  0  0  0  0  0  0
   18.9522   18.3376   20.3625 H   0  0  0  0  0  0  0  0  0  0  0  0
   19.8371   16.9601   21.0551 H   0  0  0  0  0  0  0  0  0  0  0  0
   20.3602   17.6693   19.5189 H   0  0  0  0  0  0  0  0  0  0  0  0
   21.0402   20.1626   20.5169 N   0  3  0  0  0  0  0  0  0  0  0  0
   21.3991   20.0073   19.5706 H   0  0  0  0  0  0  0  0  0  0  0  0
   20.1472   20.6534   20.4293 H   0  0  0  0  0  0  0  0  0  0  0  0
   21.6931   20.7925   20.9917 H   0  0  0  0  0  0  0  0  0  0  0  0
  1  2  1  0  0  0  0
  1  3  1  0  0  0  0
  1  4  1  0  0  0  0
  1  5  1  0  0  0  0
  5  6  1  0  0  0  0
  5  7  1  0  0  0  0
  5  8  1  0  0  0  0
  8  9  1  0  0  0  0
  8 10  1  0  0  0  0
  8 11  1  0  0  0  0
 11 12  1  0  0  0  0
 11 13  1  0  0  0  0
 11 14  1  0  0  0  0
 14 15  1  0  0  0  0
 14 16  1  0  0  0  0
 14 17  1  0  0  0  0
 17 18  1  0  0  0  0
 17 19  1  0  0  0  0
 19 20  1  0  0  0  0
 19 21  1  0  0  0  0
 19 22  1  0  0  0  0
 17 23  1  0  0  0  0
 23 24  1  0  0  0  0
 23 25  1  0  0  0  0
 23 26  1  0  0  0  0
M  END
> <VConfSearch Rank>
379

> <Conf_Id>
105

> <Delta U+W>
3.442

> <U+W>
-26.857

> <U>
27.313

> <W>
-54.169

> <W(PB)>
-56.414

> <W(SA)>
2.245

> <Valence>
6.229

> <Coulomb>
19.943

> <VdW>
1.140

> <VdW6>
-9.001

> <VdW12>
10.140

> <Bond>
0.294

> <Angle>
1.969

> <Pdih>
3.967

> <Idih>
0.000

> <Tether>
0.000

$$$$
VeraChem MOL file


 26 25  0  0  0  0  0  0  0  0999 V2000     
   21.5563   17.5428   21.0145 C   0  0  0  0  0  0  0  0  0  0  0  0
   21.0825   17.1846   20.0913 H   0  0  0  0  0  0  0  0  0  0  0  0
   22.5638   17.1097   21.0607 H   0  0  0  0  0  0  0  0  0  0  0  0
   20.9865   17.1462   21.8618 H   0  0  0  0  0  0  0  0  0  0  0  0
   21.6310   19.0874   21.0330 C   0  0  0  0  0  0  0  0  0  0  0  0
   22.2438   19.4059   20.1780 H   0  0  0  0  0  0  0  0  0  0  0  0
   22.1623   19.4335   21.9306 H   0  0  0  0  0  0  0  0  0  0  0  0
   20.2450   19.7745   20.9283 C   0  0  0  0  0  0  0  0  0  0  0  0
   20.3661   20.7000   20.3484 H   0  0  0  0  0  0  0  0  0  0  0  0
   19.5539   19.1497   20.3459 H   0  0  0  0  0  0  0  0  0  0  0  0
   19.6036   20.1576   22.2870 C   0  0  0  0  0  0  0  0  0  0  0  0
   18.6700   20.7009   22.0849 H   0  0  0  0  0  0  0  0  0  0  0  0
   20.2642   20.8636   22.8080 H   0  0  0  0  0  0  0  0  0  0  0  0
   19.2932   18.9513   23.2070 C   0  0  0  0  0  0  0  0  0  0  0  0
   18.7566   18.1890   22.6267 H   0  0  0  0  0  0  0  0  0  0  0  0
   20.2294   18.4939   23.5505 H   0  0  0  0  0  0  0  0  0  0  0  0
   18.4389   19.3373   24.4337 C   0  0  1  0  0  0  0  0  0  0  0  0
   17.5178   19.8075   24.0756 H   0  0  0  0  0  0  0  0  0  0  0  0
   18.0596   18.0829   25.2369 C   0  0  0  0  0  0  0  0  0  0  0  0
   18.9515   17.5733   25.6225 H   0  0  0  0  0  0  0  0  0  0  0  0
   17.5040   17.3729   24.6116 H   0  0  0  0  0  0  0  0  0  0  0  0
   17.4209   18.3459   26.0891 H   0  0  0  0  0  0  0  0  0  0  0  0
   19.1235   20.3441   25.3174 N   0  3  0  0  0  0  0  0  0  0  0  0
   19.3441   21.2021   24.8050 H   0  0  0  0  0  0  0  0  0  0  0  0
   18.5343   20.6056   26.1130 H   0  0  0  0  0  0  0  0  0  0  0  0
   20.0007   19.9752   25.6939 H   0  0  0  0  0  0  0  0  0  0  0  0
  1  2  1  0  0  0  0
  1  3  1  0  0  0  0
  1  4  1  0  0  0  0
  1  5  1  0  0  0  0
  5  6  1  0  0  0  0
  5  7  1  0  0  0  0
  5  8  1  0  0  0  0
  8  9  1  0  0  0  0
  8 10  1  0  0  0  0
  8 11  1  0  0  0  0
 11 12  1  0  0  0  0
 11 13  1  0  0  0  0
 11 14  1  0  0  0  0
 14 15  1  0  0  0  0
 14 16  1  0  0  0  0
 14 17  1  0  0  0  0
 17 18  1  0  0  0  0
 17 19  1  0  0  0  0
 19 20  1  0  0  0  0
 19 21  1  0  0  0  0
 19 22  1  0  0  0  0
 17 23  1  0  0  0  0
 23 24  1  0  0  0  0
 23 25  1  0  0  0  0
 23 26  1  0  0  0  0
M  END
> <VConfSearch Rank>
380

> <Conf_Id>
107

> <Delta U+W>
2.995

> <U+W>
-27.304

> <U>
26.796

> <W>
-54.100

> <W(PB)>
-56.404

> <W(SA)>
2.304

> <Valence>
5.706

> <Coulomb>
20.107

> <VdW>
0.982

> <VdW6>
-8.396

> <VdW12>
9.378

> <Bond>
0.254

> <Angle>
1.644

> <Pdih>
3.808

> <Idih>
0.000

> <Tether>
0.000

$$$$
VeraChem MOL file


 26 25  0  0  0  0  0  0  0  0999 V2000     
   18.7261   15.2246   24.0277 C   0  0  0  0  0  0  0  0  0  0  0  0
   19.0002   14.7300   23.0868 H   0  0  0  0  0  0  0  0  0  0  0  0
   18.9230   14.5218   24.8477 H   0  0  0  0  0  0  0  0  0  0  0  0
   17.6468   15.4245   24.0071 H   0  0  0  0  0  0  0  0  0  0  0  0
   19.5282   16.5286   24.2232 C   0  0  0  0  0  0  0  0  0  0  0  0
   20.6005   16.2929   24.2738 H   0  0  0  0  0  0  0  0  0  0  0  0
   19.2575   16.9820   25.1871 H   0  0  0  0  0  0  0  0  0  0  0  0
   19.2690   17.5363   23.0814 C   0  0  0  0  0  0  0  0  0  0  0  0
   19.5380   17.0769   22.1201 H   0  0  0  0  0  0  0  0  0  0  0  0
   18.1958   17.7675   23.0337 H   0  0  0  0  0  0  0  0  0  0  0  0
   20.0712   18.8434   23.2731 C   0  0  0  0  0  0  0  0  0  0  0  0
   21.1444   18.6110   23.3171 H   0  0  0  0  0  0  0  0  0  0  0  0
   19.8015   19.2922   24.2384 H   0  0  0  0  0  0  0  0  0  0  0  0
   19.8081   19.8516   22.1281 C   0  0  0  0  0  0  0  0  0  0  0  0
   20.0317   19.3654   21.1691 H   0  0  0  0  0  0  0  0  0  0  0  0
   18.7428   20.1169   22.1041 H   0  0  0  0  0  0  0  0  0  0  0  0
   20.6603   21.1339   22.2463 C   0  0  1  0  0  0  0  0  0  0  0  0
   21.7141   20.8421   22.2923 H   0  0  0  0  0  0  0  0  0  0  0  0
   20.4600   22.0244   21.0095 C   0  0  0  0  0  0  0  0  0  0  0  0
   19.4154   22.3474   20.9177 H   0  0  0  0  0  0  0  0  0  0  0  0
   20.7331   21.4863   20.0932 H   0  0  0  0  0  0  0  0  0  0  0  0
   21.0907   22.9199   21.0696 H   0  0  0  0  0  0  0  0  0  0  0  0
   20.3692   21.9056   23.5045 N   0  3  0  0  0  0  0  0  0  0  0  0
   19.3936   22.2130   23.5368 H   0  0  0  0  0  0  0  0  0  0  0  0
   20.5422   21.3393   24.3393 H   0  0  0  0  0  0  0  0  0  0  0  0
   20.9563   22.7415   23.5750 H   0  0  0  0  0  0  0  0  0  0  0  0
  1  2  1  0  0  0  0
  1  3  1  0  0  0  0
  1  4  1  0  0  0  0
  1  5  1  0  0  0  0
  5  6  1  0  0  0  0
  5  7  1  0  0  0  0
  5  8  1  0  0  0  0
  8  9  1  0  0  0  0
  8 10  1  0  0  0  0
  8 11  1  0  0  0  0
 11 12  1  0  0  0  0
 11 13  1  0  0  0  0
 11 14  1  0  0  0  0
 14 15  1  0  0  0  0
 14 16  1  0  0  0  0
 14 17  1  0  0  0  0
 17 18  1  0  0  0  0
 17 19  1  0  0  0  0
 19 20  1  0  0  0  0
 19 21  1  0  0  0  0
 19 22  1  0  0  0  0
 17 23  1  0  0  0  0
 23 24  1  0  0  0  0
 23 25  1  0  0  0  0
 23 26  1  0  0  0  0
M  END
> <VConfSearch Rank>
381

> <Conf_Id>
122

> <Delta U+W>
0.000

> <U+W>
-30.299

> <U>
23.517

> <W>
-53.816

> <W(PB)>
-56.162

> <W(SA)>
2.346

> <Valence>
2.737

> <Coulomb>
19.862

> <VdW>
0.919

> <VdW6>
-6.793

> <VdW12>
7.712

> <Bond>
0.171

> <Angle>
0.873

> <Pdih>
1.693

> <Idih>
0.000

> <Tether>
0.000

$$$$
VeraChem MOL file


 26 25  0  0  0  0  0  0  0  0999 V2000     
   23.6997   20.1038   21.6876 C   0  0  0  0  0  0  0  0  0  0  0  0
   24.2427   20.9878   21.3288 H   0  0  0  0  0  0  0  0  0  0  0  0
   24.2321   19.7145   22.5652 H   0  0  0  0  0  0  0  0  0  0  0  0
   23.7380   19.3415   20.8985 H   0  0  0  0  0  0  0  0  0  0  0  0
   22.2411   20.4657   22.0390 C   0  0  0  0  0  0  0  0  0  0  0  0
   21.7453   20.8834   21.1515 H   0  0  0  0  0  0  0  0  0  0  0  0
   22.2355   21.2534   22.8055 H   0  0  0  0  0  0  0  0  0  0  0  0
   21.4535   19.2378   22.5474 C   0  0  0  0  0  0  0  0  0  0  0  0
   21.4635   18.4525   21.7788 H   0  0  0  0  0  0  0  0  0  0  0  0
   21.9553   18.8225   23.4324 H   0  0  0  0  0  0  0  0  0  0  0  0
   19.9922   19.5963   22.9007 C   0  0  0  0  0  0  0  0  0  0  0  0
   19.5035   20.0178   22.0125 H   0  0  0  0  0  0  0  0  0  0  0  0
   19.9831   20.3782   23.6728 H   0  0  0  0  0  0  0  0  0  0  0  0
   19.2042   18.3625   23.4057 C   0  0  0  0  0  0  0  0  0  0  0  0
   19.1552   17.6044   22.6128 H   0  0  0  0  0  0  0  0  0  0  0  0
   19.7610   17.9084   24.2361 H   0  0  0  0  0  0  0  0  0  0  0  0
   17.7766   18.6934   23.8979 C   0  0  1  0  0  0  0  0  0  0  0  0
   17.8487   19.4794   24.6560 H   0  0  0  0  0  0  0  0  0  0  0  0
   16.8717   19.1967   22.7588 C   0  0  0  0  0  0  0  0  0  0  0  0
   16.8189   18.4666   21.9417 H   0  0  0  0  0  0  0  0  0  0  0  0
   17.2362   20.1458   22.3493 H   0  0  0  0  0  0  0  0  0  0  0  0
   15.8524   19.3723   23.1242 H   0  0  0  0  0  0  0  0  0  0  0  0
   17.1482   17.5073   24.5757 N   0  3  0  0  0  0  0  0  0  0  0  0
   17.0409   16.7204   23.9300 H   0  0  0  0  0  0  0  0  0  0  0  0
   17.7120   17.1818   25.3662 H   0  0  0  0  0  0  0  0  0  0  0  0
   16.2179   17.7333   24.9387 H   0  0  0  0  0  0  0  0  0  0  0  0
  1  2  1  0  0  0  0
  1  3  1  0  0  0  0
  1  4  1  0  0  0  0
  1  5  1  0  0  0  0
  5  6  1  0  0  0  0
  5  7  1  0  0  0  0
  5  8  1  0  0  0  0
  8  9  1  0  0  0  0
  8 10  1  0  0  0  0
  8 11  1  0  0  0  0
 11 12  1  0  0  0  0
 11 13  1  0  0  0  0
 11 14  1  0  0  0  0
 14 15  1  0  0  0  0
 14 16  1  0  0  0  0
 14 17  1  0  0  0  0
 17 18  1  0  0  0  0
 17 19  1  0  0  0  0
 19 20  1  0  0  0  0
 19 21  1  0  0  0  0
 19 22  1  0  0  0  0
 17 23  1  0  0  0  0
 23 24  1  0  0  0  0
 23 25  1  0  0  0  0
 23 26  1  0  0  0  0
M  END
> <VConfSearch Rank>
382

> <Conf_Id>
54

> <Delta U+W>
0.453

> <U+W>
-29.845

> <U>
23.817

> <W>
-53.663

> <W(PB)>
-56.021

> <W(SA)>
2.358

> <Valence>
3.277

> <Coulomb>
19.492

> <VdW>
1.049

> <VdW6>
-6.949

> <VdW12>
7.998

> <Bond>
0.183

> <Angle>
1.152

> <Pdih>
1.942

> <Idih>
0.000

> <Tether>
0.000

$$$$
VeraChem MOL file


 26 25  0  0  0  0  0  0  0  0999 V2000     
   17.4651   16.3764   22.4511 C   0  0  0  0  0  0  0  0  0  0  0  0
   18.2112   15.8224   21.8668 H   0  0  0  0  0  0  0  0  0  0  0  0
   17.6675   16.2079   23.5157 H   0  0  0  0  0  0  0  0  0  0  0  0
   16.4801   15.9444   22.2319 H   0  0  0  0  0  0  0  0  0  0  0  0
   17.4856   17.8808   22.0957 C   0  0  0  0  0  0  0  0  0  0  0  0
   16.7558   18.4192   22.7165 H   0  0  0  0  0  0  0  0  0  0  0  0
   17.1500   17.9991   21.0558 H   0  0  0  0  0  0  0  0  0  0  0  0
   18.8821   18.5330   22.2412 C   0  0  0  0  0  0  0  0  0  0  0  0
   19.6120   17.9716   21.6419 H   0  0  0  0  0  0  0  0  0  0  0  0
   18.8204   19.5401   21.8121 H   0  0  0  0  0  0  0  0  0  0  0  0
   19.3659   18.6317   23.7101 C   0  0  0  0  0  0  0  0  0  0  0  0
   19.3053   17.6419   24.1796 H   0  0  0  0  0  0  0  0  0  0  0  0
   18.6828   19.2795   24.2765 H   0  0  0  0  0  0  0  0  0  0  0  0
   20.8217   19.1400   23.8843 C   0  0  0  0  0  0  0  0  0  0  0  0
   21.0628   19.0618   24.9529 H   0  0  0  0  0  0  0  0  0  0  0  0
   21.5215   18.4676   23.3708 H   0  0  0  0  0  0  0  0  0  0  0  0
   21.0617   20.5994   23.4291 C   0  0  1  0  0  0  0  0  0  0  0  0
   20.1831   21.1940   23.6977 H   0  0  0  0  0  0  0  0  0  0  0  0
   22.2828   21.1923   24.1518 C   0  0  0  0  0  0  0  0  0  0  0  0
   22.4494   22.2322   23.8445 H   0  0  0  0  0  0  0  0  0  0  0  0
   23.1922   20.6199   23.9292 H   0  0  0  0  0  0  0  0  0  0  0  0
   22.1338   21.1888   25.2387 H   0  0  0  0  0  0  0  0  0  0  0  0
   21.2457   20.7239   21.9410 N   0  3  0  0  0  0  0  0  0  0  0  0
   20.4448   20.3454   21.4307 H   0  0  0  0  0  0  0  0  0  0  0  0
   21.3577   21.7018   21.6587 H   0  0  0  0  0  0  0  0  0  0  0  0
   22.0779   20.2181   21.6261 H   0  0  0  0  0  0  0  0  0  0  0  0
  1  2  1  0  0  0  0
  1  3  1  0  0  0  0
  1  4  1  0  0  0  0
  1  5  1  0  0  0  0
  5  6  1  0  0  0  0
  5  7  1  0  0  0  0
  5  8  1  0  0  0  0
  8  9  1  0  0  0  0
  8 10  1  0  0  0  0
  8 11  1  0  0  0  0
 11 12  1  0  0  0  0
 11 13  1  0  0  0  0
 11 14  1  0  0  0  0
 14 15  1  0  0  0  0
 14 16  1  0  0  0  0
 14 17  1  0  0  0  0
 17 18  1  0  0  0  0
 17 19  1  0  0  0  0
 19 20  1  0  0  0  0
 19 21  1  0  0  0  0
 19 22  1  0  0  0  0
 17 23  1  0  0  0  0
 23 24  1  0  0  0  0
 23 25  1  0  0  0  0
 23 26  1  0  0  0  0
M  END
> <VConfSearch Rank>
383

> <Conf_Id>
110

> <Delta U+W>
3.764

> <U+W>
-26.535

> <U>
27.400

> <W>
-53.935

> <W(PB)>
-56.238

> <W(SA)>
2.303

> <Valence>
5.205

> <Coulomb>
21.096

> <VdW>
1.098

> <VdW6>
-8.389

> <VdW12>
9.488

> <Bond>
0.270

> <Angle>
1.912

> <Pdih>
3.023

> <Idih>
0.000

> <Tether>
0.000

$$$$
VeraChem MOL file


 26 25  0  0  0  0  0  0  0  0999 V2000     
   19.8610   15.4893   22.6328 C   0  0  0  0  0  0  0  0  0  0  0  0
   20.2782   14.5881   22.1653 H   0  0  0  0  0  0  0  0  0  0  0  0
   20.4118   15.6616   23.5658 H   0  0  0  0  0  0  0  0  0  0  0  0
   18.8128   15.2823   22.8846 H   0  0  0  0  0  0  0  0  0  0  0  0
   19.9745   16.6972   21.6753 C   0  0  0  0  0  0  0  0  0  0  0  0
   19.5141   16.4311   20.7135 H   0  0  0  0  0  0  0  0  0  0  0  0
   21.0331   16.9020   21.4630 H   0  0  0  0  0  0  0  0  0  0  0  0
   19.2925   17.9775   22.2150 C   0  0  0  0  0  0  0  0  0  0  0  0
   19.3221   18.7414   21.4288 H   0  0  0  0  0  0  0  0  0  0  0  0
   18.2286   17.7736   22.3990 H   0  0  0  0  0  0  0  0  0  0  0  0
   19.9459   18.5230   23.5110 C   0  0  0  0  0  0  0  0  0  0  0  0
   21.0347   18.6045   23.3880 H   0  0  0  0  0  0  0  0  0  0  0  0
   19.7848   17.7934   24.3157 H   0  0  0  0  0  0  0  0  0  0  0  0
   19.3580   19.8842   23.9689 C   0  0  0  0  0  0  0  0  0  0  0  0
   18.3232   19.9903   23.6171 H   0  0  0  0  0  0  0  0  0  0  0  0
   19.3007   19.8725   25.0654 H   0  0  0  0  0  0  0  0  0  0  0  0
   20.1923   21.1223   23.5601 C   0  0  1  0  0  0  0  0  0  0  0  0
   21.2013   21.0010   23.9662 H   0  0  0  0  0  0  0  0  0  0  0  0
   20.3068   21.2890   22.0354 C   0  0  0  0  0  0  0  0  0  0  0  0
   19.3168   21.3315   21.5645 H   0  0  0  0  0  0  0  0  0  0  0  0
   20.8701   20.4608   21.5901 H   0  0  0  0  0  0  0  0  0  0  0  0
   20.8421   22.2135   21.7865 H   0  0  0  0  0  0  0  0  0  0  0  0
   19.6369   22.3750   24.1791 N   0  3  0  0  0  0  0  0  0  0  0  0
   19.5971   22.3060   25.2000 H   0  0  0  0  0  0  0  0  0  0  0  0
   20.2117   23.1912   23.9518 H   0  0  0  0  0  0  0  0  0  0  0  0
   18.6883   22.5678   23.8468 H   0  0  0  0  0  0  0  0  0  0  0  0
  1  2  1  0  0  0  0
  1  3  1  0  0  0  0
  1  4  1  0  0  0  0
  1  5  1  0  0  0  0
  5  6  1  0  0  0  0
  5  7  1  0  0  0  0
  5  8  1  0  0  0  0
  8  9  1  0  0  0  0
  8 10  1  0  0  0  0
  8 11  1  0  0  0  0
 11 12  1  0  0  0  0
 11 13  1  0  0  0  0
 11 14  1  0  0  0  0
 14 15  1  0  0  0  0
 14 16  1  0  0  0  0
 14 17  1  0  0  0  0
 17 18  1  0  0  0  0
 17 19  1  0  0  0  0
 19 20  1  0  0  0  0
 19 21  1  0  0  0  0
 19 22  1  0  0  0  0
 17 23  1  0  0  0  0
 23 24  1  0  0  0  0
 23 25  1  0  0  0  0
 23 26  1  0  0  0  0
M  END
> <VConfSearch Rank>
384

> <Conf_Id>
34

> <Delta U+W>
3.568

> <U+W>
-26.731

> <U>
27.221

> <W>
-53.952

> <W(PB)>
-56.213

> <W(SA)>
2.261

> <Valence>
6.368

> <Coulomb>
19.698

> <VdW>
1.155

> <VdW6>
-8.532

> <VdW12>
9.687

> <Bond>
0.272

> <Angle>
1.847

> <Pdih>
4.248

> <Idih>
0.000

> <Tether>
0.000

$$$$
VeraChem MOL file


 26 25  0  0  0  0  0  0  0  0999 V2000     
   22.8187   19.3112   20.1573 C   0  0  0  0  0  0  0  0  0  0  0  0
   23.6772   19.2480   20.8386 H   0  0  0  0  0  0  0  0  0  0  0  0
   22.6732   18.3248   19.6980 H   0  0  0  0  0  0  0  0  0  0  0  0
   23.0735   20.0203   19.3590 H   0  0  0  0  0  0  0  0  0  0  0  0
   21.5485   19.7672   20.9062 C   0  0  0  0  0  0  0  0  0  0  0  0
   20.7165   19.8538   20.1934 H   0  0  0  0  0  0  0  0  0  0  0  0
   21.7127   20.7699   21.3251 H   0  0  0  0  0  0  0  0  0  0  0  0
   21.1673   18.7855   22.0364 C   0  0  0  0  0  0  0  0  0  0  0  0
   21.0069   17.7844   21.6126 H   0  0  0  0  0  0  0  0  0  0  0  0
   22.0032   18.7005   22.7446 H   0  0  0  0  0  0  0  0  0  0  0  0
   19.8959   19.2387   22.7891 C   0  0  0  0  0  0  0  0  0  0  0  0
   19.0658   19.3232   22.0754 H   0  0  0  0  0  0  0  0  0  0  0  0
   20.0649   20.2410   23.2042 H   0  0  0  0  0  0  0  0  0  0  0  0
   19.5207   18.2504   23.9241 C   0  0  0  0  0  0  0  0  0  0  0  0
   19.4034   17.2439   23.5015 H   0  0  0  0  0  0  0  0  0  0  0  0
   20.3533   18.1833   24.6368 H   0  0  0  0  0  0  0  0  0  0  0  0
   18.2306   18.6077   24.6997 C   0  0  1  0  0  0  0  0  0  0  0  0
   18.0694   17.8199   25.4422 H   0  0  0  0  0  0  0  0  0  0  0  0
   18.3610   19.9405   25.4574 C   0  0  0  0  0  0  0  0  0  0  0  0
   18.4288   20.7928   24.7710 H   0  0  0  0  0  0  0  0  0  0  0  0
   19.2533   19.9406   26.0957 H   0  0  0  0  0  0  0  0  0  0  0  0
   17.4897   20.1005   26.1043 H   0  0  0  0  0  0  0  0  0  0  0  0
   17.0113   18.6054   23.8190 N   0  3  0  0  0  0  0  0  0  0  0  0
   16.1594   18.7811   24.3590 H   0  0  0  0  0  0  0  0  0  0  0  0
   17.0720   19.3285   23.0981 H   0  0  0  0  0  0  0  0  0  0  0  0
   16.8923   17.7058   23.3446 H   0  0  0  0  0  0  0  0  0  0  0  0
  1  2  1  0  0  0  0
  1  3  1  0  0  0  0
  1  4  1  0  0  0  0
  1  5  1  0  0  0  0
  5  6  1  0  0  0  0
  5  7  1  0  0  0  0
  5  8  1  0  0  0  0
  8  9  1  0  0  0  0
  8 10  1  0  0  0  0
  8 11  1  0  0  0  0
 11 12  1  0  0  0  0
 11 13  1  0  0  0  0
 11 14  1  0  0  0  0
 14 15  1  0  0  0  0
 14 16  1  0  0  0  0
 14 17  1  0  0  0  0
 17 18  1  0  0  0  0
 17 19  1  0  0  0  0
 19 20  1  0  0  0  0
 19 21  1  0  0  0  0
 19 22  1  0  0  0  0
 17 23  1  0  0  0  0
 23 24  1  0  0  0  0
 23 25  1  0  0  0  0
 23 26  1  0  0  0  0
M  END
> <VConfSearch Rank>
385

> <Conf_Id>
132

> <Delta U+W>
0.363

> <U+W>
-29.936

> <U>
24.060

> <W>
-53.996

> <W(PB)>
-56.327

> <W(SA)>
2.332

> <Valence>
3.249

> <Coulomb>
19.781

> <VdW>
1.030

> <VdW6>
-7.421

> <VdW12>
8.451

> <Bond>
0.207

> <Angle>
1.205

> <Pdih>
1.837

> <Idih>
0.000

> <Tether>
0.000

$$$$
VeraChem MOL file


 26 25  0  0  0  0  0  0  0  0999 V2000     
   16.9051   18.1215   25.3520 C   0  0  0  0  0  0  0  0  0  0  0  0
   16.1812   18.8299   25.7753 H   0  0  0  0  0  0  0  0  0  0  0  0
   16.3416   17.3057   24.8806 H   0  0  0  0  0  0  0  0  0  0  0  0
   17.4884   17.6997   26.1810 H   0  0  0  0  0  0  0  0  0  0  0  0
   17.8230   18.8255   24.3302 C   0  0  0  0  0  0  0  0  0  0  0  0
   18.3358   19.6586   24.8286 H   0  0  0  0  0  0  0  0  0  0  0  0
   17.2092   19.2615   23.5297 H   0  0  0  0  0  0  0  0  0  0  0  0
   18.8558   17.8466   23.7230 C   0  0  0  0  0  0  0  0  0  0  0  0
   19.5052   17.4530   24.5171 H   0  0  0  0  0  0  0  0  0  0  0  0
   18.3224   16.9816   23.3051 H   0  0  0  0  0  0  0  0  0  0  0  0
   19.7240   18.4731   22.6040 C   0  0  0  0  0  0  0  0  0  0  0  0
   19.0684   18.8577   21.8115 H   0  0  0  0  0  0  0  0  0  0  0  0
   20.3201   17.6705   22.1513 H   0  0  0  0  0  0  0  0  0  0  0  0
   20.6670   19.5980   23.1123 C   0  0  0  0  0  0  0  0  0  0  0  0
   20.0706   20.4149   23.5361 H   0  0  0  0  0  0  0  0  0  0  0  0
   21.2821   19.2125   23.9360 H   0  0  0  0  0  0  0  0  0  0  0  0
   21.5996   20.2014   22.0351 C   0  0  1  0  0  0  0  0  0  0  0  0
   22.1622   21.0109   22.5106 H   0  0  0  0  0  0  0  0  0  0  0  0
   22.6196   19.1765   21.5086 C   0  0  0  0  0  0  0  0  0  0  0  0
   22.1361   18.3828   20.9272 H   0  0  0  0  0  0  0  0  0  0  0  0
   23.1683   18.7112   22.3369 H   0  0  0  0  0  0  0  0  0  0  0  0
   23.3539   19.6669   20.8580 H   0  0  0  0  0  0  0  0  0  0  0  0
   20.8365   20.8332   20.9035 N   0  3  0  0  0  0  0  0  0  0  0  0
   20.1885   21.5503   21.2415 H   0  0  0  0  0  0  0  0  0  0  0  0
   21.4660   21.2819   20.2321 H   0  0  0  0  0  0  0  0  0  0  0  0
   20.2876   20.1380   20.3920 H   0  0  0  0  0  0  0  0  0  0  0  0
  1  2  1  0  0  0  0
  1  3  1  0  0  0  0
  1  4  1  0  0  0  0
  1  5  1  0  0  0  0
  5  6  1  0  0  0  0
  5  7  1  0  0  0  0
  5  8  1  0  0  0  0
  8  9  1  0  0  0  0
  8 10  1  0  0  0  0
  8 11  1  0  0  0  0
 11 12  1  0  0  0  0
 11 13  1  0  0  0  0
 11 14  1  0  0  0  0
 14 15  1  0  0  0  0
 14 16  1  0  0  0  0
 14 17  1  0  0  0  0
 17 18  1  0  0  0  0
 17 19  1  0  0  0  0
 19 20  1  0  0  0  0
 19 21  1  0  0  0  0
 19 22  1  0  0  0  0
 17 23  1  0  0  0  0
 23 24  1  0  0  0  0
 23 25  1  0  0  0  0
 23 26  1  0  0  0  0
M  END
> <VConfSearch Rank>
386

> <Conf_Id>
46

> <Delta U+W>
1.114

> <U+W>
-29.185

> <U>
24.990

> <W>
-54.175

> <W(PB)>
-56.455

> <W(SA)>
2.279

> <Valence>
3.862

> <Coulomb>
19.956

> <VdW>
1.172

> <VdW6>
-8.054

> <VdW12>
9.226

> <Bond>
0.258

> <Angle>
1.499

> <Pdih>
2.106

> <Idih>
0.000

> <Tether>
0.000

$$$$
VeraChem MOL file


 26 25  0  0  0  0  0  0  0  0999 V2000     
   16.6894   20.2274   24.4782 C   0  0  0  0  0  0  0  0  0  0  0  0
   17.3574   20.2741   25.3471 H   0  0  0  0  0  0  0  0  0  0  0  0
   16.6675   21.2184   24.0066 H   0  0  0  0  0  0  0  0  0  0  0  0
   15.6798   20.0109   24.8508 H   0  0  0  0  0  0  0  0  0  0  0  0
   17.1383   19.1428   23.4727 C   0  0  0  0  0  0  0  0  0  0  0  0
   16.3717   19.0480   22.6909 H   0  0  0  0  0  0  0  0  0  0  0  0
   17.1848   18.1674   23.9769 H   0  0  0  0  0  0  0  0  0  0  0  0
   18.4975   19.4500   22.7986 C   0  0  0  0  0  0  0  0  0  0  0  0
   18.6657   18.6991   22.0157 H   0  0  0  0  0  0  0  0  0  0  0  0
   18.4416   20.4215   22.2885 H   0  0  0  0  0  0  0  0  0  0  0  0
   19.6905   19.4475   23.7881 C   0  0  0  0  0  0  0  0  0  0  0  0
   19.7309   18.4878   24.3202 H   0  0  0  0  0  0  0  0  0  0  0  0
   19.5298   20.2144   24.5568 H   0  0  0  0  0  0  0  0  0  0  0  0
   21.0523   19.7341   23.1043 C   0  0  0  0  0  0  0  0  0  0  0  0
   21.0179   20.7360   22.6560 H   0  0  0  0  0  0  0  0  0  0  0  0
   21.8366   19.7693   23.8721 H   0  0  0  0  0  0  0  0  0  0  0  0
   21.4492   18.7096   22.0175 C   0  0  1  0  0  0  0  0  0  0  0  0
   20.6724   18.7044   21.2474 H   0  0  0  0  0  0  0  0  0  0  0  0
   22.7747   19.1188   21.3558 C   0  0  0  0  0  0  0  0  0  0  0  0
   23.0421   18.4173   20.5559 H   0  0  0  0  0  0  0  0  0  0  0  0
   23.5946   19.1345   22.0848 H   0  0  0  0  0  0  0  0  0  0  0  0
   22.6951   20.1179   20.9095 H   0  0  0  0  0  0  0  0  0  0  0  0
   21.5357   17.3073   22.5548 N   0  3  0  0  0  0  0  0  0  0  0  0
   20.6455   17.0105   22.9634 H   0  0  0  0  0  0  0  0  0  0  0  0
   21.7745   16.6375   21.8180 H   0  0  0  0  0  0  0  0  0  0  0  0
   22.2507   17.2303   23.2829 H   0  0  0  0  0  0  0  0  0  0  0  0
  1  2  1  0  0  0  0
  1  3  1  0  0  0  0
  1  4  1  0  0  0  0
  1  5  1  0  0  0  0
  5  6  1  0  0  0  0
  5  7  1  0  0  0  0
  5  8  1  0  0  0  0
  8  9  1  0  0  0  0
  8 10  1  0  0  0  0
  8 11  1  0  0  0  0
 11 12  1  0  0  0  0
 11 13  1  0  0  0  0
 11 14  1  0  0  0  0
 14 15  1  0  0  0  0
 14 16  1  0  0  0  0
 14 17  1  0  0  0  0
 17 18  1  0  0  0  0
 17 19  1  0  0  0  0
 19 20  1  0  0  0  0
 19 21  1  0  0  0  0
 19 22  1  0  0  0  0
 17 23  1  0  0  0  0
 23 24  1  0  0  0  0
 23 25  1  0  0  0  0
 23 26  1  0  0  0  0
M  END
> <VConfSearch Rank>
387

> <Conf_Id>
113

> <Delta U+W>
1.137

> <U+W>
-29.162

> <U>
24.833

> <W>
-53.995

> <W(PB)>
-56.288

> <W(SA)>
2.294

> <Valence>
3.589

> <Coulomb>
20.270

> <VdW>
0.974

> <VdW6>
-8.255

> <VdW12>
9.229

> <Bond>
0.244

> <Angle>
1.377

> <Pdih>
1.967

> <Idih>
0.000

> <Tether>
0.000

$$$$
VeraChem MOL file


 26 25  0  0  0  0  0  0  0  0999 V2000     
   22.9874   18.2919   25.1016 C   0  0  0  0  0  0  0  0  0  0  0  0
   24.0202   18.5266   24.8129 H   0  0  0  0  0  0  0  0  0  0  0  0
   22.7463   18.8785   25.9977 H   0  0  0  0  0  0  0  0  0  0  0  0
   22.9459   17.2277   25.3680 H   0  0  0  0  0  0  0  0  0  0  0  0
   22.0128   18.6145   23.9490 C   0  0  0  0  0  0  0  0  0  0  0  0
   22.2970   18.0356   23.0592 H   0  0  0  0  0  0  0  0  0  0  0  0
   22.1134   19.6755   23.6847 H   0  0  0  0  0  0  0  0  0  0  0  0
   20.5489   18.2957   24.3345 C   0  0  0  0  0  0  0  0  0  0  0  0
   20.4885   17.2519   24.6723 H   0  0  0  0  0  0  0  0  0  0  0  0
   20.2484   18.9142   25.1916 H   0  0  0  0  0  0  0  0  0  0  0  0
   19.5443   18.4938   23.1728 C   0  0  0  0  0  0  0  0  0  0  0  0
   18.5630   18.1304   23.5047 H   0  0  0  0  0  0  0  0  0  0  0  0
   19.8421   17.8571   22.3293 H   0  0  0  0  0  0  0  0  0  0  0  0
   19.4216   19.9716   22.7105 C   0  0  0  0  0  0  0  0  0  0  0  0
   19.2307   20.6090   23.5837 H   0  0  0  0  0  0  0  0  0  0  0  0
   20.3780   20.3086   22.2918 H   0  0  0  0  0  0  0  0  0  0  0  0
   18.3152   20.2339   21.6614 C   0  0  1  0  0  0  0  0  0  0  0  0
   18.3312   21.3042   21.4332 H   0  0  0  0  0  0  0  0  0  0  0  0
   18.5729   19.4742   20.3483 C   0  0  0  0  0  0  0  0  0  0  0  0
   18.4798   18.3899   20.4824 H   0  0  0  0  0  0  0  0  0  0  0  0
   19.5780   19.6885   19.9646 H   0  0  0  0  0  0  0  0  0  0  0  0
   17.8517   19.7799   19.5804 H   0  0  0  0  0  0  0  0  0  0  0  0
   16.9381   19.9427   22.1916 N   0  3  0  0  0  0  0  0  0  0  0  0
   16.7424   20.4773   23.0427 H   0  0  0  0  0  0  0  0  0  0  0  0
   16.2153   20.1826   21.5072 H   0  0  0  0  0  0  0  0  0  0  0  0
   16.8284   18.9513   22.4182 H   0  0  0  0  0  0  0  0  0  0  0  0
  1  2  1  0  0  0  0
  1  3  1  0  0  0  0
  1  4  1  0  0  0  0
  1  5  1  0  0  0  0
  5  6  1  0  0  0  0
  5  7  1  0  0  0  0
  5  8  1  0  0  0  0
  8  9  1  0  0  0  0
  8 10  1  0  0  0  0
  8 11  1  0  0  0  0
 11 12  1  0  0  0  0
 11 13  1  0  0  0  0
 11 14  1  0  0  0  0
 14 15  1  0  0  0  0
 14 16  1  0  0  0  0
 14 17  1  0  0  0  0
 17 18  1  0  0  0  0
 17 19  1  0  0  0  0
 19 20  1  0  0  0  0
 19 21  1  0  0  0  0
 19 22  1  0  0  0  0
 17 23  1  0  0  0  0
 23 24  1  0  0  0  0
 23 25  1  0  0  0  0
 23 26  1  0  0  0  0
M  END
> <VConfSearch Rank>
388

> <Conf_Id>
45

> <Delta U+W>
1.035

> <U+W>
-29.264

> <U>
24.725

> <W>
-53.989

> <W(PB)>
-56.298

> <W(SA)>
2.309

> <Valence>
3.780

> <Coulomb>
19.804

> <VdW>
1.141

> <VdW6>
-8.104

> <VdW12>
9.246

> <Bond>
0.254

> <Angle>
1.437

> <Pdih>
2.089

> <Idih>
0.000

> <Tether>
0.000

$$$$
VeraChem MOL file


 26 25  0  0  0  0  0  0  0  0999 V2000     
   20.0902   19.4030   26.9093 C   0  0  0  0  0  0  0  0  0  0  0  0
   20.1415   18.5335   27.5774 H   0  0  0  0  0  0  0  0  0  0  0  0
   20.8735   20.1089   27.2149 H   0  0  0  0  0  0  0  0  0  0  0  0
   19.1162   19.8868   27.0598 H   0  0  0  0  0  0  0  0  0  0  0  0
   20.2738   18.9719   25.4387 C   0  0  0  0  0  0  0  0  0  0  0  0
   19.4988   18.2367   25.1850 H   0  0  0  0  0  0  0  0  0  0  0  0
   21.2429   18.4661   25.3261 H   0  0  0  0  0  0  0  0  0  0  0  0
   20.2006   20.1817   24.4770 C   0  0  0  0  0  0  0  0  0  0  0  0
   19.2107   20.6531   24.5488 H   0  0  0  0  0  0  0  0  0  0  0  0
   20.9264   20.9394   24.8036 H   0  0  0  0  0  0  0  0  0  0  0  0
   20.4996   19.8229   23.0003 C   0  0  0  0  0  0  0  0  0  0  0  0
   21.4906   19.3533   22.9301 H   0  0  0  0  0  0  0  0  0  0  0  0
   20.5602   20.7591   22.4301 H   0  0  0  0  0  0  0  0  0  0  0  0
   19.4347   18.8948   22.3608 C   0  0  0  0  0  0  0  0  0  0  0  0
   19.3939   17.9512   22.9186 H   0  0  0  0  0  0  0  0  0  0  0  0
   18.4412   19.3545   22.4466 H   0  0  0  0  0  0  0  0  0  0  0  0
   19.7300   18.5704   20.8800 C   0  0  1  0  0  0  0  0  0  0  0  0
   20.7374   18.1476   20.8159 H   0  0  0  0  0  0  0  0  0  0  0  0
   18.7340   17.5247   20.3533 C   0  0  0  0  0  0  0  0  0  0  0  0
   17.7040   17.9006   20.3958 H   0  0  0  0  0  0  0  0  0  0  0  0
   18.7860   16.6029   20.9461 H   0  0  0  0  0  0  0  0  0  0  0  0
   18.9597   17.2632   19.3121 H   0  0  0  0  0  0  0  0  0  0  0  0
   19.7174   19.7951   20.0059 N   0  3  0  0  0  0  0  0  0  0  0  0
   20.4094   20.4829   20.3146 H   0  0  0  0  0  0  0  0  0  0  0  0
   19.9317   19.5619   19.0322 H   0  0  0  0  0  0  0  0  0  0  0  0
   18.8018   20.2522   20.0169 H   0  0  0  0  0  0  0  0  0  0  0  0
  1  2  1  0  0  0  0
  1  3  1  0  0  0  0
  1  4  1  0  0  0  0
  1  5  1  0  0  0  0
  5  6  1  0  0  0  0
  5  7  1  0  0  0  0
  5  8  1  0  0  0  0
  8  9  1  0  0  0  0
  8 10  1  0  0  0  0
  8 11  1  0  0  0  0
 11 12  1  0  0  0  0
 11 13  1  0  0  0  0
 11 14  1  0  0  0  0
 14 15  1  0  0  0  0
 14 16  1  0  0  0  0
 14 17  1  0  0  0  0
 17 18  1  0  0  0  0
 17 19  1  0  0  0  0
 19 20  1  0  0  0  0
 19 21  1  0  0  0  0
 19 22  1  0  0  0  0
 17 23  1  0  0  0  0
 23 24  1  0  0  0  0
 23 25  1  0  0  0  0
 23 26  1  0  0  0  0
M  END
> <VConfSearch Rank>
389

> <Conf_Id>
121

> <Delta U+W>
0.736

> <U+W>
-29.562

> <U>
24.282

> <W>
-53.844

> <W(PB)>
-56.205

> <W(SA)>
2.361

> <Valence>
3.311

> <Coulomb>
19.887

> <VdW>
1.083

> <VdW6>
-7.444

> <VdW12>
8.527

> <Bond>
0.219

> <Angle>
1.167

> <Pdih>
1.926

> <Idih>
0.000

> <Tether>
0.000

$$$$
VeraChem MOL file


 26 25  0  0  0  0  0  0  0  0999 V2000     
   21.6639   16.9672   20.6530 C   0  0  0  0  0  0  0  0  0  0  0  0
   22.5984   16.5078   20.3058 H   0  0  0  0  0  0  0  0  0  0  0  0
   20.8631   16.2249   20.5404 H   0  0  0  0  0  0  0  0  0  0  0  0
   21.4462   17.8122   19.9883 H   0  0  0  0  0  0  0  0  0  0  0  0
   21.7989   17.4205   22.1246 C   0  0  0  0  0  0  0  0  0  0  0  0
   22.5821   18.1871   22.2053 H   0  0  0  0  0  0  0  0  0  0  0  0
   22.1415   16.5670   22.7263 H   0  0  0  0  0  0  0  0  0  0  0  0
   20.4783   17.9548   22.7300 C   0  0  0  0  0  0  0  0  0  0  0  0
   19.7013   17.1817   22.6543 H   0  0  0  0  0  0  0  0  0  0  0  0
   20.6415   18.1263   23.8021 H   0  0  0  0  0  0  0  0  0  0  0  0
   19.9808   19.2635   22.0653 C   0  0  0  0  0  0  0  0  0  0  0  0
   19.8034   19.0871   20.9966 H   0  0  0  0  0  0  0  0  0  0  0  0
   20.7650   20.0300   22.1186 H   0  0  0  0  0  0  0  0  0  0  0  0
   18.6651   19.8024   22.6849 C   0  0  0  0  0  0  0  0  0  0  0  0
   18.3634   20.7100   22.1455 H   0  0  0  0  0  0  0  0  0  0  0  0
   17.8713   19.0650   22.5067 H   0  0  0  0  0  0  0  0  0  0  0  0
   18.7258   20.1083   24.2004 C   0  0  1  0  0  0  0  0  0  0  0  0
   19.0149   19.1939   24.7266 H   0  0  0  0  0  0  0  0  0  0  0  0
   19.7546   21.2050   24.5289 C   0  0  0  0  0  0  0  0  0  0  0  0
   19.5394   22.1289   23.9778 H   0  0  0  0  0  0  0  0  0  0  0  0
   20.7721   20.8837   24.2777 H   0  0  0  0  0  0  0  0  0  0  0  0
   19.7430   21.4374   25.6009 H   0  0  0  0  0  0  0  0  0  0  0  0
   17.3713   20.4881   24.7310 N   0  3  0  0  0  0  0  0  0  0  0  0
   16.6794   19.7526   24.5607 H   0  0  0  0  0  0  0  0  0  0  0  0
   17.3976   20.6527   25.7412 H   0  0  0  0  0  0  0  0  0  0  0  0
   17.0237   21.3445   24.2915 H   0  0  0  0  0  0  0  0  0  0  0  0
  1  2  1  0  0  0  0
  1  3  1  0  0  0  0
  1  4  1  0  0  0  0
  1  5  1  0  0  0  0
  5  6  1  0  0  0  0
  5  7  1  0  0  0  0
  5  8  1  0  0  0  0
  8  9  1  0  0  0  0
  8 10  1  0  0  0  0
  8 11  1  0  0  0  0
 11 12  1  0  0  0  0
 11 13  1  0  0  0  0
 11 14  1  0  0  0  0
 14 15  1  0  0  0  0
 14 16  1  0  0  0  0
 14 17  1  0  0  0  0
 17 18  1  0  0  0  0
 17 19  1  0  0  0  0
 19 20  1  0  0  0  0
 19 21  1  0  0  0  0
 19 22  1  0  0  0  0
 17 23  1  0  0  0  0
 23 24  1  0  0  0  0
 23 25  1  0  0  0  0
 23 26  1  0  0  0  0
M  END
> <VConfSearch Rank>
390

> <Conf_Id>
5

> <Delta U+W>
1.233

> <U+W>
-29.065

> <U>
25.023

> <W>
-54.088

> <W(PB)>
-56.383

> <W(SA)>
2.296

> <Valence>
4.083

> <Coulomb>
19.893

> <VdW>
1.047

> <VdW6>
-8.479

> <VdW12>
9.527

> <Bond>
0.256

> <Angle>
1.716

> <Pdih>
2.112

> <Idih>
0.000

> <Tether>
0.000

$$$$
VeraChem MOL file


 26 25  0  0  0  0  0  0  0  0999 V2000     
   21.5404   20.1673   26.0390 C   0  0  0  0  0  0  0  0  0  0  0  0
   21.5670   20.4581   27.0972 H   0  0  0  0  0  0  0  0  0  0  0  0
   21.9227   19.1416   25.9706 H   0  0  0  0  0  0  0  0  0  0  0  0
   22.2260   20.8279   25.4926 H   0  0  0  0  0  0  0  0  0  0  0  0
   20.1017   20.2779   25.4847 C   0  0  0  0  0  0  0  0  0  0  0  0
   19.7208   21.2873   25.6943 H   0  0  0  0  0  0  0  0  0  0  0  0
   19.4425   19.5831   26.0237 H   0  0  0  0  0  0  0  0  0  0  0  0
   20.0041   20.0189   23.9617 C   0  0  0  0  0  0  0  0  0  0  0  0
   18.9807   20.2576   23.6447 H   0  0  0  0  0  0  0  0  0  0  0  0
   20.6687   20.7126   23.4287 H   0  0  0  0  0  0  0  0  0  0  0  0
   20.3374   18.5599   23.5614 C   0  0  0  0  0  0  0  0  0  0  0  0
   19.6502   17.8739   24.0754 H   0  0  0  0  0  0  0  0  0  0  0  0
   21.3459   18.3045   23.9108 H   0  0  0  0  0  0  0  0  0  0  0  0
   20.2805   18.2951   22.0353 C   0  0  0  0  0  0  0  0  0  0  0  0
   21.0258   18.9144   21.5184 H   0  0  0  0  0  0  0  0  0  0  0  0
   20.5953   17.2562   21.8703 H   0  0  0  0  0  0  0  0  0  0  0  0
   18.8775   18.5060   21.4158 C   0  0  1  0  0  0  0  0  0  0  0  0
   18.1417   18.4954   22.2258 H   0  0  0  0  0  0  0  0  0  0  0  0
   18.7806   19.8540   20.6782 C   0  0  0  0  0  0  0  0  0  0  0  0
   19.4662   19.8857   19.8221 H   0  0  0  0  0  0  0  0  0  0  0  0
   19.0284   20.6924   21.3386 H   0  0  0  0  0  0  0  0  0  0  0  0
   17.7627   20.0169   20.3032 H   0  0  0  0  0  0  0  0  0  0  0  0
   18.4966   17.3830   20.4901 N   0  3  0  0  0  0  0  0  0  0  0  0
   18.5072   16.4788   20.9707 H   0  0  0  0  0  0  0  0  0  0  0  0
   17.5548   17.5144   20.1102 H   0  0  0  0  0  0  0  0  0  0  0  0
   19.1395   17.3176   19.6963 H   0  0  0  0  0  0  0  0  0  0  0  0
  1  2  1  0  0  0  0
  1  3  1  0  0  0  0
  1  4  1  0  0  0  0
  1  5  1  0  0  0  0
  5  6  1  0  0  0  0
  5  7  1  0  0  0  0
  5  8  1  0  0  0  0
  8  9  1  0  0  0  0
  8 10  1  0  0  0  0
  8 11  1  0  0  0  0
 11 12  1  0  0  0  0
 11 13  1  0  0  0  0
 11 14  1  0  0  0  0
 14 15  1  0  0  0  0
 14 16  1  0  0  0  0
 14 17  1  0  0  0  0
 17 18  1  0  0  0  0
 17 19  1  0  0  0  0
 19 20  1  0  0  0  0
 19 21  1  0  0  0  0
 19 22  1  0  0  0  0
 17 23  1  0  0  0  0
 23 24  1  0  0  0  0
 23 25  1  0  0  0  0
 23 26  1  0  0  0  0
M  END
> <VConfSearch Rank>
391

> <Conf_Id>
100

> <Delta U+W>
3.818

> <U+W>
-26.481

> <U>
27.496

> <W>
-53.977

> <W(PB)>
-56.267

> <W(SA)>
2.290

> <Valence>
6.472

> <Coulomb>
19.839

> <VdW>
1.185

> <VdW6>
-8.405

> <VdW12>
9.590

> <Bond>
0.248

> <Angle>
1.619

> <Pdih>
4.604

> <Idih>
0.000

> <Tether>
0.000

$$$$
VeraChem MOL file


 26 25  0  0  0  0  0  0  0  0999 V2000     
   20.3397   16.4588   25.5224 C   0  0  0  0  0  0  0  0  0  0  0  0
   20.1781   16.2857   26.5943 H   0  0  0  0  0  0  0  0  0  0  0  0
   19.5665   15.9072   24.9718 H   0  0  0  0  0  0  0  0  0  0  0  0
   21.3169   16.0353   25.2563 H   0  0  0  0  0  0  0  0  0  0  0  0
   20.2820   17.9669   25.1993 C   0  0  0  0  0  0  0  0  0  0  0  0
   21.0429   18.4957   25.7904 H   0  0  0  0  0  0  0  0  0  0  0  0
   19.3062   18.3682   25.5068 H   0  0  0  0  0  0  0  0  0  0  0  0
   20.5071   18.2388   23.6954 C   0  0  0  0  0  0  0  0  0  0  0  0
   21.4836   17.8342   23.3955 H   0  0  0  0  0  0  0  0  0  0  0  0
   19.7521   17.6955   23.1151 H   0  0  0  0  0  0  0  0  0  0  0  0
   20.4561   19.7523   23.3716 C   0  0  0  0  0  0  0  0  0  0  0  0
   21.2423   20.2507   23.9555 H   0  0  0  0  0  0  0  0  0  0  0  0
   19.5071   20.1824   23.7172 H   0  0  0  0  0  0  0  0  0  0  0  0
   20.6888   20.0737   21.8687 C   0  0  0  0  0  0  0  0  0  0  0  0
   21.2568   21.0108   21.8011 H   0  0  0  0  0  0  0  0  0  0  0  0
   21.3376   19.3104   21.4193 H   0  0  0  0  0  0  0  0  0  0  0  0
   19.4154   20.2405   21.0025 C   0  0  1  0  0  0  0  0  0  0  0  0
   19.7478   20.4498   19.9810 H   0  0  0  0  0  0  0  0  0  0  0  0
   18.5522   18.9694   20.9549 C   0  0  0  0  0  0  0  0  0  0  0  0
   18.0810   18.7672   21.9240 H   0  0  0  0  0  0  0  0  0  0  0  0
   19.1550   18.0983   20.6702 H   0  0  0  0  0  0  0  0  0  0  0  0
   17.7527   19.0775   20.2117 H   0  0  0  0  0  0  0  0  0  0  0  0
   18.5938   21.4297   21.4197 N   0  3  0  0  0  0  0  0  0  0  0  0
   19.1451   22.2923   21.4013 H   0  0  0  0  0  0  0  0  0  0  0  0
   17.7919   21.5667   20.7981 H   0  0  0  0  0  0  0  0  0  0  0  0
   18.2302   21.3170   22.3690 H   0  0  0  0  0  0  0  0  0  0  0  0
  1  2  1  0  0  0  0
  1  3  1  0  0  0  0
  1  4  1  0  0  0  0
  1  5  1  0  0  0  0
  5  6  1  0  0  0  0
  5  7  1  0  0  0  0
  5  8  1  0  0  0  0
  8  9  1  0  0  0  0
  8 10  1  0  0  0  0
  8 11  1  0  0  0  0
 11 12  1  0  0  0  0
 11 13  1  0  0  0  0
 11 14  1  0  0  0  0
 14 15  1  0  0  0  0
 14 16  1  0  0  0  0
 14 17  1  0  0  0  0
 17 18  1  0  0  0  0
 17 19  1  0  0  0  0
 19 20  1  0  0  0  0
 19 21  1  0  0  0  0
 19 22  1  0  0  0  0
 17 23  1  0  0  0  0
 23 24  1  0  0  0  0
 23 25  1  0  0  0  0
 23 26  1  0  0  0  0
M  END
> <VConfSearch Rank>
392

> <Conf_Id>
142

> <Delta U+W>
2.978

> <U+W>
-27.320

> <U>
26.848

> <W>
-54.168

> <W(PB)>
-56.427

> <W(SA)>
2.259

> <Valence>
5.823

> <Coulomb>
20.057

> <VdW>
0.968

> <VdW6>
-8.367

> <VdW12>
9.335

> <Bond>
0.267

> <Angle>
1.799

> <Pdih>
3.758

> <Idih>
0.000

> <Tether>
0.000

$$$$
VeraChem MOL file


 26 25  0  0  0  0  0  0  0  0999 V2000     
   22.2503   19.6014   25.4086 C   0  0  0  0  0  0  0  0  0  0  0  0
   21.9396   20.6322   25.6231 H   0  0  0  0  0  0  0  0  0  0  0  0
   22.8121   19.2334   26.2768 H   0  0  0  0  0  0  0  0  0  0  0  0
   22.9398   19.6202   24.5558 H   0  0  0  0  0  0  0  0  0  0  0  0
   21.0267   18.6973   25.1347 C   0  0  0  0  0  0  0  0  0  0  0  0
   20.4417   18.6097   26.0609 H   0  0  0  0  0  0  0  0  0  0  0  0
   21.3641   17.6810   24.8877 H   0  0  0  0  0  0  0  0  0  0  0  0
   20.1009   19.2302   24.0142 C   0  0  0  0  0  0  0  0  0  0  0  0
   19.1975   18.6094   24.0103 H   0  0  0  0  0  0  0  0  0  0  0  0
   19.7848   20.2541   24.2566 H   0  0  0  0  0  0  0  0  0  0  0  0
   20.7523   19.1970   22.6086 C   0  0  0  0  0  0  0  0  0  0  0  0
   21.0078   18.1622   22.3445 H   0  0  0  0  0  0  0  0  0  0  0  0
   21.7060   19.7384   22.6413 H   0  0  0  0  0  0  0  0  0  0  0  0
   19.8967   19.8401   21.4804 C   0  0  0  0  0  0  0  0  0  0  0  0
   19.7513   20.9061   21.6990 H   0  0  0  0  0  0  0  0  0  0  0  0
   20.4902   19.8120   20.5570 H   0  0  0  0  0  0  0  0  0  0  0  0
   18.5207   19.1982   21.1675 C   0  0  1  0  0  0  0  0  0  0  0  0
   18.1850   19.6231   20.2164 H   0  0  0  0  0  0  0  0  0  0  0  0
   18.6102   17.6736   20.9808 C   0  0  0  0  0  0  0  0  0  0  0  0
   18.8533   17.1638   21.9207 H   0  0  0  0  0  0  0  0  0  0  0  0
   19.3789   17.4173   20.2411 H   0  0  0  0  0  0  0  0  0  0  0  0
   17.6547   17.2740   20.6198 H   0  0  0  0  0  0  0  0  0  0  0  0
   17.4543   19.5682   22.1617 N   0  3  0  0  0  0  0  0  0  0  0  0
   17.3447   20.5838   22.2325 H   0  0  0  0  0  0  0  0  0  0  0  0
   16.5446   19.1816   21.8943 H   0  0  0  0  0  0  0  0  0  0  0  0
   17.6761   19.2166   23.0950 H   0  0  0  0  0  0  0  0  0  0  0  0
  1  2  1  0  0  0  0
  1  3  1  0  0  0  0
  1  4  1  0  0  0  0
  1  5  1  0  0  0  0
  5  6  1  0  0  0  0
  5  7  1  0  0  0  0
  5  8  1  0  0  0  0
  8  9  1  0  0  0  0
  8 10  1  0  0  0  0
  8 11  1  0  0  0  0
 11 12  1  0  0  0  0
 11 13  1  0  0  0  0
 11 14  1  0  0  0  0
 14 15  1  0  0  0  0
 14 16  1  0  0  0  0
 14 17  1  0  0  0  0
 17 18  1  0  0  0  0
 17 19  1  0  0  0  0
 19 20  1  0  0  0  0
 19 21  1  0  0  0  0
 19 22  1  0  0  0  0
 17 23  1  0  0  0  0
 23 24  1  0  0  0  0
 23 25  1  0  0  0  0
 23 26  1  0  0  0  0
M  END
> <VConfSearch Rank>
393

> <Conf_Id>
119

> <Delta U+W>
3.538

> <U+W>
-26.761

> <U>
27.482

> <W>
-54.243

> <W(PB)>
-56.494

> <W(SA)>
2.251

> <Valence>
5.284

> <Coulomb>
21.247

> <VdW>
0.951

> <VdW6>
-9.416

> <VdW12>
10.367

> <Bond>
0.323

> <Angle>
2.522

> <Pdih>
2.439

> <Idih>
0.000

> <Tether>
0.000

$$$$
VeraChem MOL file


 26 25  0  0  0  0  0  0  0  0999 V2000     
   19.1589   15.9636   24.3977 C   0  0  0  0  0  0  0  0  0  0  0  0
   20.1431   15.6422   24.7624 H   0  0  0  0  0  0  0  0  0  0  0  0
   18.7550   16.7020   25.1014 H   0  0  0  0  0  0  0  0  0  0  0  0
   18.4926   15.0914   24.4168 H   0  0  0  0  0  0  0  0  0  0  0  0
   19.2569   16.5378   22.9661 C   0  0  0  0  0  0  0  0  0  0  0  0
   18.2659   16.8804   22.6369 H   0  0  0  0  0  0  0  0  0  0  0  0
   19.5461   15.7297   22.2798 H   0  0  0  0  0  0  0  0  0  0  0  0
   20.2799   17.6917   22.8331 C   0  0  0  0  0  0  0  0  0  0  0  0
   21.2732   17.3348   23.1382 H   0  0  0  0  0  0  0  0  0  0  0  0
   20.3650   17.9542   21.7721 H   0  0  0  0  0  0  0  0  0  0  0  0
   19.9033   18.9467   23.6622 C   0  0  0  0  0  0  0  0  0  0  0  0
   19.9417   18.6827   24.7272 H   0  0  0  0  0  0  0  0  0  0  0  0
   18.8643   19.2365   23.4598 H   0  0  0  0  0  0  0  0  0  0  0  0
   20.8626   20.1480   23.4326 C   0  0  0  0  0  0  0  0  0  0  0  0
   20.9962   20.6703   24.3891 H   0  0  0  0  0  0  0  0  0  0  0  0
   21.8618   19.7820   23.1620 H   0  0  0  0  0  0  0  0  0  0  0  0
   20.3996   21.1978   22.3918 C   0  0  1  0  0  0  0  0  0  0  0  0
   21.1790   21.9644   22.3401 H   0  0  0  0  0  0  0  0  0  0  0  0
   20.2365   20.6098   20.9808 C   0  0  0  0  0  0  0  0  0  0  0  0
   19.3947   19.9089   20.9322 H   0  0  0  0  0  0  0  0  0  0  0  0
   21.1476   20.0841   20.6696 H   0  0  0  0  0  0  0  0  0  0  0  0
   20.0488   21.4082   20.2525 H   0  0  0  0  0  0  0  0  0  0  0  0
   19.1474   21.9123   22.8217 N   0  3  0  0  0  0  0  0  0  0  0  0
   19.2632   22.3553   23.7375 H   0  0  0  0  0  0  0  0  0  0  0  0
   18.8898   22.6476   22.1573 H   0  0  0  0  0  0  0  0  0  0  0  0
   18.3555   21.2686   22.8891 H   0  0  0  0  0  0  0  0  0  0  0  0
  1  2  1  0  0  0  0
  1  3  1  0  0  0  0
  1  4  1  0  0  0  0
  1  5  1  0  0  0  0
  5  6  1  0  0  0  0
  5  7  1  0  0  0  0
  5  8  1  0  0  0  0
  8  9  1  0  0  0  0
  8 10  1  0  0  0  0
  8 11  1  0  0  0  0
 11 12  1  0  0  0  0
 11 13  1  0  0  0  0
 11 14  1  0  0  0  0
 14 15  1  0  0  0  0
 14 16  1  0  0  0  0
 14 17  1  0  0  0  0
 17 18  1  0  0  0  0
 17 19  1  0  0  0  0
 19 20  1  0  0  0  0
 19 21  1  0  0  0  0
 19 22  1  0  0  0  0
 17 23  1  0  0  0  0
 23 24  1  0  0  0  0
 23 25  1  0  0  0  0
 23 26  1  0  0  0  0
M  END
> <VConfSearch Rank>
394

> <Conf_Id>
127

> <Delta U+W>
3.544

> <U+W>
-26.754

> <U>
27.509

> <W>
-54.263

> <W(PB)>
-56.496

> <W(SA)>
2.232

> <Valence>
6.375

> <Coulomb>
20.014

> <VdW>
1.120

> <VdW6>
-8.976

> <VdW12>
10.096

> <Bond>
0.304

> <Angle>
1.986

> <Pdih>
4.086

> <Idih>
0.000

> <Tether>
0.000

$$$$
VeraChem MOL file


 26 25  0  0  0  0  0  0  0  0999 V2000     
   18.9385   20.7895   20.3636 C   0  0  0  0  0  0  0  0  0  0  0  0
   19.0857   20.7148   19.2784 H   0  0  0  0  0  0  0  0  0  0  0  0
   18.3590   21.7013   20.5586 H   0  0  0  0  0  0  0  0  0  0  0  0
   19.9246   20.9124   20.8246 H   0  0  0  0  0  0  0  0  0  0  0  0
   18.1974   19.5409   20.8961 C   0  0  0  0  0  0  0  0  0  0  0  0
   18.7475   18.6275   20.6305 H   0  0  0  0  0  0  0  0  0  0  0  0
   17.2317   19.4734   20.3756 H   0  0  0  0  0  0  0  0  0  0  0  0
   17.9331   19.5873   22.4232 C   0  0  0  0  0  0  0  0  0  0  0  0
   17.8399   20.6284   22.7617 H   0  0  0  0  0  0  0  0  0  0  0  0
   16.9539   19.1265   22.6141 H   0  0  0  0  0  0  0  0  0  0  0  0
   18.9777   18.8366   23.2892 C   0  0  0  0  0  0  0  0  0  0  0  0
   18.9790   17.7752   23.0076 H   0  0  0  0  0  0  0  0  0  0  0  0
   18.6375   18.8780   24.3316 H   0  0  0  0  0  0  0  0  0  0  0  0
   20.4165   19.4091   23.1863 C   0  0  0  0  0  0  0  0  0  0  0  0
   20.7853   19.2741   22.1625 H   0  0  0  0  0  0  0  0  0  0  0  0
   20.3932   20.4919   23.3664 H   0  0  0  0  0  0  0  0  0  0  0  0
   21.4449   18.7648   24.1461 C   0  0  1  0  0  0  0  0  0  0  0  0
   22.4213   19.2019   23.9148 H   0  0  0  0  0  0  0  0  0  0  0  0
   21.1380   19.0762   25.6216 C   0  0  0  0  0  0  0  0  0  0  0  0
   21.0258   20.1564   25.7773 H   0  0  0  0  0  0  0  0  0  0  0  0
   21.9578   18.7318   26.2638 H   0  0  0  0  0  0  0  0  0  0  0  0
   20.2195   18.5827   25.9601 H   0  0  0  0  0  0  0  0  0  0  0  0
   21.5882   17.2840   23.9254 N   0  3  0  0  0  0  0  0  0  0  0  0
   21.8402   17.0714   22.9560 H   0  0  0  0  0  0  0  0  0  0  0  0
   22.3158   16.8849   24.5251 H   0  0  0  0  0  0  0  0  0  0  0  0
   20.7157   16.7919   24.1324 H   0  0  0  0  0  0  0  0  0  0  0  0
  1  2  1  0  0  0  0
  1  3  1  0  0  0  0
  1  4  1  0  0  0  0
  1  5  1  0  0  0  0
  5  6  1  0  0  0  0
  5  7  1  0  0  0  0
  5  8  1  0  0  0  0
  8  9  1  0  0  0  0
  8 10  1  0  0  0  0
  8 11  1  0  0  0  0
 11 12  1  0  0  0  0
 11 13  1  0  0  0  0
 11 14  1  0  0  0  0
 14 15  1  0  0  0  0
 14 16  1  0  0  0  0
 14 17  1  0  0  0  0
 17 18  1  0  0  0  0
 17 19  1  0  0  0  0
 19 20  1  0  0  0  0
 19 21  1  0  0  0  0
 19 22  1  0  0  0  0
 17 23  1  0  0  0  0
 23 24  1  0  0  0  0
 23 25  1  0  0  0  0
 23 26  1  0  0  0  0
M  END
> <VConfSearch Rank>
395

> <Conf_Id>
131

> <Delta U+W>
3.589

> <U+W>
-26.710

> <U>
27.573

> <W>
-54.283

> <W(PB)>
-56.537

> <W(SA)>
2.254

> <Valence>
6.363

> <Coulomb>
20.026

> <VdW>
1.184

> <VdW6>
-8.939

> <VdW12>
10.123

> <Bond>
0.298

> <Angle>
2.018

> <Pdih>
4.047

> <Idih>
0.000

> <Tether>
0.000

$$$$
VeraChem MOL file


 26 25  0  0  0  0  0  0  0  0999 V2000     
   19.8649   16.8385   21.2712 C   0  0  0  0  0  0  0  0  0  0  0  0
   18.8090   17.0578   21.0668 H   0  0  0  0  0  0  0  0  0  0  0  0
   20.4423   17.7653   21.1677 H   0  0  0  0  0  0  0  0  0  0  0  0
   20.2197   16.1444   20.4984 H   0  0  0  0  0  0  0  0  0  0  0  0
   20.0446   16.2201   22.6747 C   0  0  0  0  0  0  0  0  0  0  0  0
   21.1159   16.0808   22.8766 H   0  0  0  0  0  0  0  0  0  0  0  0
   19.6021   15.2141   22.6756 H   0  0  0  0  0  0  0  0  0  0  0  0
   19.4016   17.0400   23.8224 C   0  0  0  0  0  0  0  0  0  0  0  0
   18.3125   17.0884   23.6868 H   0  0  0  0  0  0  0  0  0  0  0  0
   19.5583   16.4805   24.7551 H   0  0  0  0  0  0  0  0  0  0  0  0
   19.9871   18.4643   24.0101 C   0  0  0  0  0  0  0  0  0  0  0  0
   21.0399   18.4707   23.7002 H   0  0  0  0  0  0  0  0  0  0  0  0
   19.9833   18.7022   25.0829 H   0  0  0  0  0  0  0  0  0  0  0  0
   19.1801   19.5643   23.2709 C   0  0  0  0  0  0  0  0  0  0  0  0
   19.1741   19.3808   22.1907 H   0  0  0  0  0  0  0  0  0  0  0  0
   18.1338   19.5036   23.5979 H   0  0  0  0  0  0  0  0  0  0  0  0
   19.6925   20.9968   23.5438 C   0  0  1  0  0  0  0  0  0  0  0  0
   19.7425   21.1434   24.6272 H   0  0  0  0  0  0  0  0  0  0  0  0
   21.0947   21.2320   22.9536 C   0  0  0  0  0  0  0  0  0  0  0  0
   21.1091   21.0357   21.8743 H   0  0  0  0  0  0  0  0  0  0  0  0
   21.8422   20.5875   23.4300 H   0  0  0  0  0  0  0  0  0  0  0  0
   21.4123   22.2695   23.1146 H   0  0  0  0  0  0  0  0  0  0  0  0
   18.7297   22.0267   23.0209 N   0  3  0  0  0  0  0  0  0  0  0  0
   18.6254   21.9604   22.0050 H   0  0  0  0  0  0  0  0  0  0  0  0
   17.7989   21.9171   23.4336 H   0  0  0  0  0  0  0  0  0  0  0  0
   19.0463   22.9768   23.2339 H   0  0  0  0  0  0  0  0  0  0  0  0
  1  2  1  0  0  0  0
  1  3  1  0  0  0  0
  1  4  1  0  0  0  0
  1  5  1  0  0  0  0
  5  6  1  0  0  0  0
  5  7  1  0  0  0  0
  5  8  1  0  0  0  0
  8  9  1  0  0  0  0
  8 10  1  0  0  0  0
  8 11  1  0  0  0  0
 11 12  1  0  0  0  0
 11 13  1  0  0  0  0
 11 14  1  0  0  0  0
 14 15  1  0  0  0  0
 14 16  1  0  0  0  0
 14 17  1  0  0  0  0
 17 18  1  0  0  0  0
 17 19  1  0  0  0  0
 19 20  1  0  0  0  0
 19 21  1  0  0  0  0
 19 22  1  0  0  0  0
 17 23  1  0  0  0  0
 23 24  1  0  0  0  0
 23 25  1  0  0  0  0
 23 26  1  0  0  0  0
M  END
> <VConfSearch Rank>
396

> <Conf_Id>
80

> <Delta U+W>
3.351

> <U+W>
-26.948

> <U>
27.261

> <W>
-54.209

> <W(PB)>
-56.471

> <W(SA)>
2.263

> <Valence>
6.230

> <Coulomb>
19.945

> <VdW>
1.087

> <VdW6>
-8.618

> <VdW12>
9.704

> <Bond>
0.277

> <Angle>
1.928

> <Pdih>
4.025

> <Idih>
0.000

> <Tether>
0.000

$$$$
VeraChem MOL file


 26 25  0  0  0  0  0  0  0  0999 V2000     
   20.1507   21.1363   20.4035 C   0  0  0  0  0  0  0  0  0  0  0  0
   19.9776   21.0658   19.3219 H   0  0  0  0  0  0  0  0  0  0  0  0
   20.2535   22.1989   20.6590 H   0  0  0  0  0  0  0  0  0  0  0  0
   21.1032   20.6358   20.6180 H   0  0  0  0  0  0  0  0  0  0  0  0
   18.9838   20.4877   21.1817 C   0  0  0  0  0  0  0  0  0  0  0  0
   18.9188   19.4214   20.9297 H   0  0  0  0  0  0  0  0  0  0  0  0
   18.0401   20.9318   20.8354 H   0  0  0  0  0  0  0  0  0  0  0  0
   19.0788   20.6772   22.7181 C   0  0  0  0  0  0  0  0  0  0  0  0
   18.9809   21.7487   22.9405 H   0  0  0  0  0  0  0  0  0  0  0  0
   18.2068   20.2028   23.1823 H   0  0  0  0  0  0  0  0  0  0  0  0
   20.3876   20.1628   23.3818 C   0  0  0  0  0  0  0  0  0  0  0  0
   20.3777   20.4187   24.4502 H   0  0  0  0  0  0  0  0  0  0  0  0
   21.2319   20.7266   22.9638 H   0  0  0  0  0  0  0  0  0  0  0  0
   20.6784   18.6442   23.2200 C   0  0  0  0  0  0  0  0  0  0  0  0
   20.2973   18.2690   22.2637 H   0  0  0  0  0  0  0  0  0  0  0  0
   21.7684   18.5238   23.1665 H   0  0  0  0  0  0  0  0  0  0  0  0
   20.1766   17.7495   24.3791 C   0  0  1  0  0  0  0  0  0  0  0  0
   20.6277   18.1105   25.3085 H   0  0  0  0  0  0  0  0  0  0  0  0
   18.6483   17.7817   24.5449 C   0  0  0  0  0  0  0  0  0  0  0  0
   18.3147   18.7618   24.9032 H   0  0  0  0  0  0  0  0  0  0  0  0
   18.3232   17.0427   25.2874 H   0  0  0  0  0  0  0  0  0  0  0  0
   18.1397   17.5610   23.5982 H   0  0  0  0  0  0  0  0  0  0  0  0
   20.6489   16.3324   24.2054 N   0  3  0  0  0  0  0  0  0  0  0  0
   21.6695   16.2799   24.1408 H   0  0  0  0  0  0  0  0  0  0  0  0
   20.3636   15.7439   24.9932 H   0  0  0  0  0  0  0  0  0  0  0  0
   20.2647   15.9116   23.3552 H   0  0  0  0  0  0  0  0  0  0  0  0
  1  2  1  0  0  0  0
  1  3  1  0  0  0  0
  1  4  1  0  0  0  0
  1  5  1  0  0  0  0
  5  6  1  0  0  0  0
  5  7  1  0  0  0  0
  5  8  1  0  0  0  0
  8  9  1  0  0  0  0
  8 10  1  0  0  0  0
  8 11  1  0  0  0  0
 11 12  1  0  0  0  0
 11 13  1  0  0  0  0
 11 14  1  0  0  0  0
 14 15  1  0  0  0  0
 14 16  1  0  0  0  0
 14 17  1  0  0  0  0
 17 18  1  0  0  0  0
 17 19  1  0  0  0  0
 19 20  1  0  0  0  0
 19 21  1  0  0  0  0
 19 22  1  0  0  0  0
 17 23  1  0  0  0  0
 23 24  1  0  0  0  0
 23 25  1  0  0  0  0
 23 26  1  0  0  0  0
M  END
> <VConfSearch Rank>
397

> <Conf_Id>
136

> <Delta U+W>
4.272

> <U+W>
-26.026

> <U>
28.262

> <W>
-54.288

> <W(PB)>
-56.488

> <W(SA)>
2.200

> <Valence>
7.096

> <Coulomb>
19.990

> <VdW>
1.175

> <VdW6>
-9.404

> <VdW12>
10.580

> <Bond>
0.360

> <Angle>
2.785

> <Pdih>
3.951

> <Idih>
0.000

> <Tether>
0.000

$$$$
VeraChem MOL file


 26 25  0  0  0  0  0  0  0  0999 V2000     
   18.9127   19.8409   20.2245 C   0  0  0  0  0  0  0  0  0  0  0  0
   19.3892   18.8945   20.5083 H   0  0  0  0  0  0  0  0  0  0  0  0
   18.5887   19.7442   19.1802 H   0  0  0  0  0  0  0  0  0  0  0  0
   19.6643   20.6396   20.2700 H   0  0  0  0  0  0  0  0  0  0  0  0
   17.7070   20.1577   21.1359 C   0  0  0  0  0  0  0  0  0  0  0  0
   17.0009   19.3160   21.1115 H   0  0  0  0  0  0  0  0  0  0  0  0
   17.1671   21.0194   20.7189 H   0  0  0  0  0  0  0  0  0  0  0  0
   18.0831   20.4775   22.6054 C   0  0  0  0  0  0  0  0  0  0  0  0
   18.7078   21.3804   22.6478 H   0  0  0  0  0  0  0  0  0  0  0  0
   17.1553   20.7349   23.1349 H   0  0  0  0  0  0  0  0  0  0  0  0
   18.7671   19.3123   23.3669 C   0  0  0  0  0  0  0  0  0  0  0  0
   18.4402   18.3490   22.9515 H   0  0  0  0  0  0  0  0  0  0  0  0
   18.4155   19.3317   24.4070 H   0  0  0  0  0  0  0  0  0  0  0  0
   20.3154   19.4038   23.3653 C   0  0  0  0  0  0  0  0  0  0  0  0
   20.6799   19.4925   22.3358 H   0  0  0  0  0  0  0  0  0  0  0  0
   20.6302   20.3198   23.8827 H   0  0  0  0  0  0  0  0  0  0  0  0
   20.9898   18.1806   24.0234 C   0  0  1  0  0  0  0  0  0  0  0  0
   20.6426   17.2798   23.5081 H   0  0  0  0  0  0  0  0  0  0  0  0
   22.5169   18.2652   23.8700 C   0  0  0  0  0  0  0  0  0  0  0  0
   22.9178   19.1546   24.3721 H   0  0  0  0  0  0  0  0  0  0  0  0
   22.8004   18.3137   22.8112 H   0  0  0  0  0  0  0  0  0  0  0  0
   23.0004   17.3810   24.3033 H   0  0  0  0  0  0  0  0  0  0  0  0
   20.6131   18.0236   25.4715 N   0  3  0  0  0  0  0  0  0  0  0  0
   20.9047   18.8346   26.0232 H   0  0  0  0  0  0  0  0  0  0  0  0
   19.6013   17.9203   25.5856 H   0  0  0  0  0  0  0  0  0  0  0  0
   21.0535   17.1970   25.8852 H   0  0  0  0  0  0  0  0  0  0  0  0
  1  2  1  0  0  0  0
  1  3  1  0  0  0  0
  1  4  1  0  0  0  0
  1  5  1  0  0  0  0
  5  6  1  0  0  0  0
  5  7  1  0  0  0  0
  5  8  1  0  0  0  0
  8  9  1  0  0  0  0
  8 10  1  0  0  0  0
  8 11  1  0  0  0  0
 11 12  1  0  0  0  0
 11 13  1  0  0  0  0
 11 14  1  0  0  0  0
 14 15  1  0  0  0  0
 14 16  1  0  0  0  0
 14 17  1  0  0  0  0
 17 18  1  0  0  0  0
 17 19  1  0  0  0  0
 19 20  1  0  0  0  0
 19 21  1  0  0  0  0
 19 22  1  0  0  0  0
 17 23  1  0  0  0  0
 23 24  1  0  0  0  0
 23 25  1  0  0  0  0
 23 26  1  0  0  0  0
M  END
> <VConfSearch Rank>
398

> <Conf_Id>
124

> <Delta U+W>
3.001

> <U+W>
-27.298

> <U>
26.787

> <W>
-54.085

> <W(PB)>
-56.347

> <W(SA)>
2.262

> <Valence>
5.742

> <Coulomb>
20.023

> <VdW>
1.022

> <VdW6>
-8.392

> <VdW12>
9.414

> <Bond>
0.261

> <Angle>
1.576

> <Pdih>
3.904

> <Idih>
0.000

> <Tether>
0.000

$$$$
VeraChem MOL file


 26 25  0  0  0  0  0  0  0  0999 V2000     
   21.9761   17.6975   24.8321 C   0  0  0  0  0  0  0  0  0  0  0  0
   22.0501   18.1134   25.8454 H   0  0  0  0  0  0  0  0  0  0  0  0
   22.7269   16.9017   24.7438 H   0  0  0  0  0  0  0  0  0  0  0  0
   22.2460   18.4876   24.1230 H   0  0  0  0  0  0  0  0  0  0  0  0
   20.5596   17.1357   24.5684 C   0  0  0  0  0  0  0  0  0  0  0  0
   20.3745   16.3320   25.2949 H   0  0  0  0  0  0  0  0  0  0  0  0
   20.5144   16.6629   23.5775 H   0  0  0  0  0  0  0  0  0  0  0  0
   19.4383   18.1970   24.7115 C   0  0  0  0  0  0  0  0  0  0  0  0
   18.5537   17.7029   25.1368 H   0  0  0  0  0  0  0  0  0  0  0  0
   19.7296   18.9621   25.4442 H   0  0  0  0  0  0  0  0  0  0  0  0
   19.0025   18.8678   23.3831 C   0  0  0  0  0  0  0  0  0  0  0  0
   18.1545   19.5297   23.6016 H   0  0  0  0  0  0  0  0  0  0  0  0
   18.6218   18.0948   22.7024 H   0  0  0  0  0  0  0  0  0  0  0  0
   20.1254   19.6779   22.6826 C   0  0  0  0  0  0  0  0  0  0  0  0
   20.6018   20.3449   23.4129 H   0  0  0  0  0  0  0  0  0  0  0  0
   20.9064   18.9902   22.3357 H   0  0  0  0  0  0  0  0  0  0  0  0
   19.6591   20.5244   21.4746 C   0  0  1  0  0  0  0  0  0  0  0  0
   20.5411   21.0354   21.0762 H   0  0  0  0  0  0  0  0  0  0  0  0
   19.0778   19.6520   20.3484 C   0  0  0  0  0  0  0  0  0  0  0  0
   18.1362   19.1771   20.6489 H   0  0  0  0  0  0  0  0  0  0  0  0
   19.7847   18.8635   20.0617 H   0  0  0  0  0  0  0  0  0  0  0  0
   18.8775   20.2592   19.4571 H   0  0  0  0  0  0  0  0  0  0  0  0
   18.6943   21.6087   21.8696 N   0  3  0  0  0  0  0  0  0  0  0  0
   18.4465   22.1984   21.0700 H   0  0  0  0  0  0  0  0  0  0  0  0
   17.8260   21.2169   22.2421 H   0  0  0  0  0  0  0  0  0  0  0  0
   19.0904   22.2202   22.5891 H   0  0  0  0  0  0  0  0  0  0  0  0
  1  2  1  0  0  0  0
  1  3  1  0  0  0  0
  1  4  1  0  0  0  0
  1  5  1  0  0  0  0
  5  6  1  0  0  0  0
  5  7  1  0  0  0  0
  5  8  1  0  0  0  0
  8  9  1  0  0  0  0
  8 10  1  0  0  0  0
  8 11  1  0  0  0  0
 11 12  1  0  0  0  0
 11 13  1  0  0  0  0
 11 14  1  0  0  0  0
 14 15  1  0  0  0  0
 14 16  1  0  0  0  0
 14 17  1  0  0  0  0
 17 18  1  0  0  0  0
 17 19  1  0  0  0  0
 19 20  1  0  0  0  0
 19 21  1  0  0  0  0
 19 22  1  0  0  0  0
 17 23  1  0  0  0  0
 23 24  1  0  0  0  0
 23 25  1  0  0  0  0
 23 26  1  0  0  0  0
M  END
> <VConfSearch Rank>
399

> <Conf_Id>
105

> <Delta U+W>
3.442

> <U+W>
-26.857

> <U>
27.313

> <W>
-54.169

> <W(PB)>
-56.414

> <W(SA)>
2.245

> <Valence>
6.229

> <Coulomb>
19.943

> <VdW>
1.140

> <VdW6>
-9.001

> <VdW12>
10.140

> <Bond>
0.294

> <Angle>
1.969

> <Pdih>
3.967

> <Idih>
0.000

> <Tether>
0.000

$$$$
VeraChem MOL file


 26 25  0  0  0  0  0  0  0  0999 V2000     
   17.6846   21.2366   23.6849 C   0  0  0  0  0  0  0  0  0  0  0  0
   17.3066   21.2373   24.7155 H   0  0  0  0  0  0  0  0  0  0  0  0
   17.0834   21.9526   23.1098 H   0  0  0  0  0  0  0  0  0  0  0  0
   17.5086   20.2417   23.2617 H   0  0  0  0  0  0  0  0  0  0  0  0
   19.1793   21.6318   23.6451 C   0  0  0  0  0  0  0  0  0  0  0  0
   19.2703   22.6489   24.0514 H   0  0  0  0  0  0  0  0  0  0  0  0
   19.5318   21.6893   22.6058 H   0  0  0  0  0  0  0  0  0  0  0  0
   20.0903   20.6881   24.4720 C   0  0  0  0  0  0  0  0  0  0  0  0
   20.8977   21.2911   24.9099 H   0  0  0  0  0  0  0  0  0  0  0  0
   19.5349   20.2747   25.3251 H   0  0  0  0  0  0  0  0  0  0  0  0
   20.7517   19.5448   23.6598 C   0  0  0  0  0  0  0  0  0  0  0  0
   21.4272   18.9944   24.3294 H   0  0  0  0  0  0  0  0  0  0  0  0
   21.3842   19.9824   22.8759 H   0  0  0  0  0  0  0  0  0  0  0  0
   19.7476   18.5481   23.0300 C   0  0  0  0  0  0  0  0  0  0  0  0
   19.0301   18.2312   23.7984 H   0  0  0  0  0  0  0  0  0  0  0  0
   19.1730   19.0472   22.2398 H   0  0  0  0  0  0  0  0  0  0  0  0
   20.4343   17.2965   22.4424 C   0  0  1  0  0  0  0  0  0  0  0  0
   21.0168   16.8202   23.2371 H   0  0  0  0  0  0  0  0  0  0  0  0
   19.3814   16.2919   21.9476 C   0  0  0  0  0  0  0  0  0  0  0  0
   18.7694   16.7211   21.1445 H   0  0  0  0  0  0  0  0  0  0  0  0
   18.7127   15.9939   22.7648 H   0  0  0  0  0  0  0  0  0  0  0  0
   19.8618   15.3837   21.5632 H   0  0  0  0  0  0  0  0  0  0  0  0
   21.4012   17.6348   21.3405 N   0  3  0  0  0  0  0  0  0  0  0  0
   22.1331   18.2708   21.6680 H   0  0  0  0  0  0  0  0  0  0  0  0
   21.8639   16.7964   20.9781 H   0  0  0  0  0  0  0  0  0  0  0  0
   20.9278   18.0877   20.5544 H   0  0  0  0  0  0  0  0  0  0  0  0
  1  2  1  0  0  0  0
  1  3  1  0  0  0  0
  1  4  1  0  0  0  0
  1  5  1  0  0  0  0
  5  6  1  0  0  0  0
  5  7  1  0  0  0  0
  5  8  1  0  0  0  0
  8  9  1  0  0  0  0
  8 10  1  0  0  0  0
  8 11  1  0  0  0  0
 11 12  1  0  0  0  0
 11 13  1  0  0  0  0
 11 14  1  0  0  0  0
 14 15  1  0  0  0  0
 14 16  1  0  0  0  0
 14 17  1  0  0  0  0
 17 18  1  0  0  0  0
 17 19  1  0  0  0  0
 19 20  1  0  0  0  0
 19 21  1  0  0  0  0
 19 22  1  0  0  0  0
 17 23  1  0  0  0  0
 23 24  1  0  0  0  0
 23 25  1  0  0  0  0
 23 26  1  0  0  0  0
M  END
> <VConfSearch Rank>
400

> <Conf_Id>
107

> <Delta U+W>
2.995

> <U+W>
-27.304

> <U>
26.796

> <W>
-54.100

> <W(PB)>
-56.404

> <W(SA)>
2.304

> <Valence>
5.706

> <Coulomb>
20.107

> <VdW>
0.982

> <VdW6>
-8.396

> <VdW12>
9.378

> <Bond>
0.254

> <Angle>
1.644

> <Pdih>
3.808

> <Idih>
0.000

> <Tether>
0.000

$$$$
VeraChem MOL file


 26 25  0  0  0  0  0  0  0  0999 V2000     
   17.1547   22.2291   22.0989 C   0  0  0  0  0  0  0  0  0  0  0  0
   16.2246   21.6691   22.2617 H   0  0  0  0  0  0  0  0  0  0  0  0
   16.9846   23.2652   22.4195 H   0  0  0  0  0  0  0  0  0  0  0  0
   17.3633   22.2398   21.0211 H   0  0  0  0  0  0  0  0  0  0  0  0
   18.3254   21.6008   22.8844 C   0  0  0  0  0  0  0  0  0  0  0  0
   18.1026   21.6353   23.9601 H   0  0  0  0  0  0  0  0  0  0  0  0
   19.2324   22.2017   22.7290 H   0  0  0  0  0  0  0  0  0  0  0  0
   18.5860   20.1409   22.4521 C   0  0  0  0  0  0  0  0  0  0  0  0
   17.6752   19.5457   22.6062 H   0  0  0  0  0  0  0  0  0  0  0  0
   18.8064   20.1114   21.3760 H   0  0  0  0  0  0  0  0  0  0  0  0
   19.7572   19.5079   23.2370 C   0  0  0  0  0  0  0  0  0  0  0  0
   19.5339   19.5348   24.3127 H   0  0  0  0  0  0  0  0  0  0  0  0
   20.6612   20.1120   23.0830 H   0  0  0  0  0  0  0  0  0  0  0  0
   20.0168   18.0454   22.8005 C   0  0  0  0  0  0  0  0  0  0  0  0
   19.0867   17.4719   22.9106 H   0  0  0  0  0  0  0  0  0  0  0  0
   20.2783   18.0167   21.7343 H   0  0  0  0  0  0  0  0  0  0  0  0
   21.1258   17.3576   23.6261 C   0  0  1  0  0  0  0  0  0  0  0  0
   20.8541   17.4202   24.6844 H   0  0  0  0  0  0  0  0  0  0  0  0
   21.2342   15.8729   23.2431 C   0  0  0  0  0  0  0  0  0  0  0  0
   21.5076   15.7542   22.1871 H   0  0  0  0  0  0  0  0  0  0  0  0
   20.2804   15.3567   23.4091 H   0  0  0  0  0  0  0  0  0  0  0  0
   21.9951   15.3693   23.8519 H   0  0  0  0  0  0  0  0  0  0  0  0
   22.4594   18.0386   23.4803 N   0  3  0  0  0  0  0  0  0  0  0  0
   22.7821   18.0235   22.5093 H   0  0  0  0  0  0  0  0  0  0  0  0
   22.4140   19.0175   23.7753 H   0  0  0  0  0  0  0  0  0  0  0  0
   23.1774   17.5808   24.0490 H   0  0  0  0  0  0  0  0  0  0  0  0
  1  2  1  0  0  0  0
  1  3  1  0  0  0  0
  1  4  1  0  0  0  0
  1  5  1  0  0  0  0
  5  6  1  0  0  0  0
  5  7  1  0  0  0  0
  5  8  1  0  0  0  0
  8  9  1  0  0  0  0
  8 10  1  0  0  0  0
  8 11  1  0  0  0  0
 11 12  1  0  0  0  0
 11 13  1  0  0  0  0
 11 14  1  0  0  0  0
 14 15  1  0  0  0  0
 14 16  1  0  0  0  0
 14 17  1  0  0  0  0
 17 18  1  0  0  0  0
 17 19  1  0  0  0  0
 19 20  1  0  0  0  0
 19 21  1  0  0  0  0
 19 22  1  0  0  0  0
 17 23  1  0  0  0  0
 23 24  1  0  0  0  0
 23 25  1  0  0  0  0
 23 26  1  0  0  0  0
M  END
> <VConfSearch Rank>
401

> <Conf_Id>
122

> <Delta U+W>
0.000

> <U+W>
-30.299

> <U>
23.517

> <W>
-53.816

> <W(PB)>
-56.162

> <W(SA)>
2.346

> <Valence>
2.737

> <Coulomb>
19.862

> <VdW>
0.919

> <VdW6>
-6.793

> <VdW12>
7.712

> <Bond>
0.171

> <Angle>
0.873

> <Pdih>
1.693

> <Idih>
0.000

> <Tether>
0.000

$$$$
VeraChem MOL file


 26 25  0  0  0  0  0  0  0  0999 V2000     
   23.6576   20.6886   22.2828 C   0  0  0  0  0  0  0  0  0  0  0  0
   24.4623   21.1480   22.8714 H   0  0  0  0  0  0  0  0  0  0  0  0
   24.0745   19.8135   21.7674 H   0  0  0  0  0  0  0  0  0  0  0  0
   23.3400   21.4141   21.5225 H   0  0  0  0  0  0  0  0  0  0  0  0
   22.4778   20.2866   23.1931 C   0  0  0  0  0  0  0  0  0  0  0  0
   22.1047   21.1759   23.7201 H   0  0  0  0  0  0  0  0  0  0  0  0
   22.8334   19.5876   23.9632 H   0  0  0  0  0  0  0  0  0  0  0  0
   21.3302   19.6368   22.3887 C   0  0  0  0  0  0  0  0  0  0  0  0
   20.9794   20.3384   21.6191 H   0  0  0  0  0  0  0  0  0  0  0  0
   21.7096   18.7505   21.8614 H   0  0  0  0  0  0  0  0  0  0  0  0
   20.1468   19.2324   23.2970 C   0  0  0  0  0  0  0  0  0  0  0  0
   19.7816   20.1232   23.8248 H   0  0  0  0  0  0  0  0  0  0  0  0
   20.4974   18.5272   24.0633 H   0  0  0  0  0  0  0  0  0  0  0  0
   18.9963   18.5855   22.4871 C   0  0  0  0  0  0  0  0  0  0  0  0
   18.5993   19.3102   21.7638 H   0  0  0  0  0  0  0  0  0  0  0  0
   19.4072   17.7535   21.9001 H   0  0  0  0  0  0  0  0  0  0  0  0
   17.8450   18.0426   23.3645 C   0  0  1  0  0  0  0  0  0  0  0  0
   18.2708   17.3561   24.1028 H   0  0  0  0  0  0  0  0  0  0  0  0
   17.1061   19.1663   24.1134 C   0  0  0  0  0  0  0  0  0  0  0  0
   16.7142   19.9172   23.4161 H   0  0  0  0  0  0  0  0  0  0  0  0
   17.7665   19.6714   24.8276 H   0  0  0  0  0  0  0  0  0  0  0  0
   16.2623   18.7598   24.6846 H   0  0  0  0  0  0  0  0  0  0  0  0
   16.8740   17.2366   22.5470 N   0  3  0  0  0  0  0  0  0  0  0  0
   16.4246   17.8091   21.8274 H   0  0  0  0  0  0  0  0  0  0  0  0
   17.3366   16.4550   22.0738 H   0  0  0  0  0  0  0  0  0  0  0  0
   16.1312   16.8415   23.1306 H   0  0  0  0  0  0  0  0  0  0  0  0
  1  2  1  0  0  0  0
  1  3  1  0  0  0  0
  1  4  1  0  0  0  0
  1  5  1  0  0  0  0
  5  6  1  0  0  0  0
  5  7  1  0  0  0  0
  5  8  1  0  0  0  0
  8  9  1  0  0  0  0
  8 10  1  0  0  0  0
  8 11  1  0  0  0  0
 11 12  1  0  0  0  0
 11 13  1  0  0  0  0
 11 14  1  0  0  0  0
 14 15  1  0  0  0  0
 14 16  1  0  0  0  0
 14 17  1  0  0  0  0
 17 18  1  0  0  0  0
 17 19  1  0  0  0  0
 19 20  1  0  0  0  0
 19 21  1  0  0  0  0
 19 22  1  0  0  0  0
 17 23  1  0  0  0  0
 23 24  1  0  0  0  0
 23 25  1  0  0  0  0
 23 26  1  0  0  0  0
M  END
> <VConfSearch Rank>
402

> <Conf_Id>
54

> <Delta U+W>
0.453

> <U+W>
-29.845

> <U>
23.817

> <W>
-53.663

> <W(PB)>
-56.021

> <W(SA)>
2.358

> <Valence>
3.277

> <Coulomb>
19.492

> <VdW>
1.049

> <VdW6>
-6.949

> <VdW12>
7.998

> <Bond>
0.183

> <Angle>
1.152

> <Pdih>
1.942

> <Idih>
0.000

> <Tether>
0.000

$$$$
VeraChem MOL file


 26 25  0  0  0  0  0  0  0  0999 V2000     
   19.8123   16.4283   20.4783 C   0  0  0  0  0  0  0  0  0  0  0  0
   19.4294   17.1193   19.7162 H   0  0  0  0  0  0  0  0  0  0  0  0
   20.8986   16.5619   20.5493 H   0  0  0  0  0  0  0  0  0  0  0  0
   19.6301   15.4053   20.1245 H   0  0  0  0  0  0  0  0  0  0  0  0
   19.1169   16.6604   21.8393 C   0  0  0  0  0  0  0  0  0  0  0  0
   19.5400   15.9820   22.5932 H   0  0  0  0  0  0  0  0  0  0  0  0
   18.0568   16.3873   21.7415 H   0  0  0  0  0  0  0  0  0  0  0  0
   19.2059   18.1229   22.3392 C   0  0  0  0  0  0  0  0  0  0  0  0
   18.8090   18.7976   21.5682 H   0  0  0  0  0  0  0  0  0  0  0  0
   18.5496   18.2117   23.2130 H   0  0  0  0  0  0  0  0  0  0  0  0
   20.6417   18.5533   22.7323 C   0  0  0  0  0  0  0  0  0  0  0  0
   21.3244   18.3440   21.8993 H   0  0  0  0  0  0  0  0  0  0  0  0
   20.9899   17.9376   23.5731 H   0  0  0  0  0  0  0  0  0  0  0  0
   20.7965   20.0545   23.0937 C   0  0  0  0  0  0  0  0  0  0  0  0
   21.8683   20.2381   23.2481 H   0  0  0  0  0  0  0  0  0  0  0  0
   20.5067   20.6812   22.2399 H   0  0  0  0  0  0  0  0  0  0  0  0
   20.0308   20.5024   24.3615 C   0  0  1  0  0  0  0  0  0  0  0  0
   20.0884   19.6987   25.1020 H   0  0  0  0  0  0  0  0  0  0  0  0
   20.6805   21.7592   24.9642 C   0  0  0  0  0  0  0  0  0  0  0  0
   20.1511   22.0732   25.8722 H   0  0  0  0  0  0  0  0  0  0  0  0
   20.6645   22.5943   24.2526 H   0  0  0  0  0  0  0  0  0  0  0  0
   21.7244   21.5653   25.2407 H   0  0  0  0  0  0  0  0  0  0  0  0
   18.5721   20.7635   24.1005 N   0  3  0  0  0  0  0  0  0  0  0  0
   18.1083   19.9421   23.7065 H   0  0  0  0  0  0  0  0  0  0  0  0
   18.0775   21.0144   24.9613 H   0  0  0  0  0  0  0  0  0  0  0  0
   18.4453   21.5348   23.4399 H   0  0  0  0  0  0  0  0  0  0  0  0
  1  2  1  0  0  0  0
  1  3  1  0  0  0  0
  1  4  1  0  0  0  0
  1  5  1  0  0  0  0
  5  6  1  0  0  0  0
  5  7  1  0  0  0  0
  5  8  1  0  0  0  0
  8  9  1  0  0  0  0
  8 10  1  0  0  0  0
  8 11  1  0  0  0  0
 11 12  1  0  0  0  0
 11 13  1  0  0  0  0
 11 14  1  0  0  0  0
 14 15  1  0  0  0  0
 14 16  1  0  0  0  0
 14 17  1  0  0  0  0
 17 18  1  0  0  0  0
 17 19  1  0  0  0  0
 19 20  1  0  0  0  0
 19 21  1  0  0  0  0
 19 22  1  0  0  0  0
 17 23  1  0  0  0  0
 23 24  1  0  0  0  0
 23 25  1  0  0  0  0
 23 26  1  0  0  0  0
M  END
> <VConfSearch Rank>
403

> <Conf_Id>
110

> <Delta U+W>
3.764

> <U+W>
-26.535

> <U>
27.400

> <W>
-53.935

> <W(PB)>
-56.238

> <W(SA)>
2.303

> <Valence>
5.205

> <Coulomb>
21.096

> <VdW>
1.098

> <VdW6>
-8.389

> <VdW12>
9.488

> <Bond>
0.270

> <Angle>
1.912

> <Pdih>
3.023

> <Idih>
0.000

> <Tether>
0.000

$$$$
VeraChem MOL file


 26 25  0  0  0  0  0  0  0  0999 V2000     
   22.8730   17.8439   21.3650 C   0  0  0  0  0  0  0  0  0  0  0  0
   23.9679   17.7677   21.3474 H   0  0  0  0  0  0  0  0  0  0  0  0
   22.4913   16.9772   21.9188 H   0  0  0  0  0  0  0  0  0  0  0  0
   22.5151   17.7761   20.3295 H   0  0  0  0  0  0  0  0  0  0  0  0
   22.4340   19.1737   22.0189 C   0  0  0  0  0  0  0  0  0  0  0  0
   22.9379   20.0043   21.5051 H   0  0  0  0  0  0  0  0  0  0  0  0
   22.7785   19.2036   23.0621 H   0  0  0  0  0  0  0  0  0  0  0  0
   20.9055   19.4112   21.9661 C   0  0  0  0  0  0  0  0  0  0  0  0
   20.7000   20.4195   22.3450 H   0  0  0  0  0  0  0  0  0  0  0  0
   20.5723   19.4076   20.9191 H   0  0  0  0  0  0  0  0  0  0  0  0
   20.0922   18.3649   22.7711 C   0  0  0  0  0  0  0  0  0  0  0  0
   20.5013   18.2568   23.7851 H   0  0  0  0  0  0  0  0  0  0  0  0
   20.2117   17.3855   22.2893 H   0  0  0  0  0  0  0  0  0  0  0  0
   18.5757   18.6870   22.8399 C   0  0  0  0  0  0  0  0  0  0  0  0
   18.2713   19.2778   21.9657 H   0  0  0  0  0  0  0  0  0  0  0  0
   18.0280   17.7383   22.7644 H   0  0  0  0  0  0  0  0  0  0  0  0
   18.1187   19.3852   24.1437 C   0  0  1  0  0  0  0  0  0  0  0  0
   18.3987   18.7464   24.9870 H   0  0  0  0  0  0  0  0  0  0  0  0
   18.7753   20.7612   24.3466 C   0  0  0  0  0  0  0  0  0  0  0  0
   18.5961   21.4181   23.4865 H   0  0  0  0  0  0  0  0  0  0  0  0
   19.8574   20.6633   24.4919 H   0  0  0  0  0  0  0  0  0  0  0  0
   18.3733   21.2535   25.2406 H   0  0  0  0  0  0  0  0  0  0  0  0
   16.6212   19.5124   24.1906 N   0  3  0  0  0  0  0  0  0  0  0  0
   16.1620   18.6010   24.1067 H   0  0  0  0  0  0  0  0  0  0  0  0
   16.3087   19.9302   25.0717 H   0  0  0  0  0  0  0  0  0  0  0  0
   16.2719   20.1037   23.4318 H   0  0  0  0  0  0  0  0  0  0  0  0
  1  2  1  0  0  0  0
  1  3  1  0  0  0  0
  1  4  1  0  0  0  0
  1  5  1  0  0  0  0
  5  6  1  0  0  0  0
  5  7  1  0  0  0  0
  5  8  1  0  0  0  0
  8  9  1  0  0  0  0
  8 10  1  0  0  0  0
  8 11  1  0  0  0  0
 11 12  1  0  0  0  0
 11 13  1  0  0  0  0
 11 14  1  0  0  0  0
 14 15  1  0  0  0  0
 14 16  1  0  0  0  0
 14 17  1  0  0  0  0
 17 18  1  0  0  0  0
 17 19  1  0  0  0  0
 19 20  1  0  0  0  0
 19 21  1  0  0  0  0
 19 22  1  0  0  0  0
 17 23  1  0  0  0  0
 23 24  1  0  0  0  0
 23 25  1  0  0  0  0
 23 26  1  0  0  0  0
M  END
> <VConfSearch Rank>
404

> <Conf_Id>
34

> <Delta U+W>
3.568

> <U+W>
-26.731

> <U>
27.221

> <W>
-53.952

> <W(PB)>
-56.213

> <W(SA)>
2.261

> <Valence>
6.368

> <Coulomb>
19.698

> <VdW>
1.155

> <VdW6>
-8.532

> <VdW12>
9.687

> <Bond>
0.272

> <Angle>
1.847

> <Pdih>
4.248

> <Idih>
0.000

> <Tether>
0.000

$$$$
VeraChem MOL file


 26 25  0  0  0  0  0  0  0  0999 V2000     
   16.9835   17.9518   25.6136 C   0  0  0  0  0  0  0  0  0  0  0  0
   17.0403   18.8145   26.2901 H   0  0  0  0  0  0  0  0  0  0  0  0
   16.1034   18.0795   24.9698 H   0  0  0  0  0  0  0  0  0  0  0  0
   16.8261   17.0538   26.2251 H   0  0  0  0  0  0  0  0  0  0  0  0
   18.2712   17.8200   24.7731 C   0  0  0  0  0  0  0  0  0  0  0  0
   18.1986   16.9302   24.1321 H   0  0  0  0  0  0  0  0  0  0  0  0
   19.1282   17.6595   25.4423 H   0  0  0  0  0  0  0  0  0  0  0  0
   18.5165   19.0720   23.9021 C   0  0  0  0  0  0  0  0  0  0  0  0
   17.6559   19.2293   23.2372 H   0  0  0  0  0  0  0  0  0  0  0  0
   18.5857   19.9588   24.5473 H   0  0  0  0  0  0  0  0  0  0  0  0
   19.8055   18.9442   23.0590 C   0  0  0  0  0  0  0  0  0  0  0  0
   19.7301   18.0556   22.4186 H   0  0  0  0  0  0  0  0  0  0  0  0
   20.6578   18.7828   23.7320 H   0  0  0  0  0  0  0  0  0  0  0  0
   20.0472   20.2056   22.1894 C   0  0  0  0  0  0  0  0  0  0  0  0
   19.1666   20.3822   21.5579 H   0  0  0  0  0  0  0  0  0  0  0  0
   20.1321   21.0850   22.8415 H   0  0  0  0  0  0  0  0  0  0  0  0
   21.2961   20.1401   21.2786 C   0  0  1  0  0  0  0  0  0  0  0  0
   21.3287   21.0716   20.7049 H   0  0  0  0  0  0  0  0  0  0  0  0
   22.6002   20.0482   22.0900 C   0  0  0  0  0  0  0  0  0  0  0  0
   22.6829   19.0912   22.6186 H   0  0  0  0  0  0  0  0  0  0  0  0
   22.6569   20.8563   22.8299 H   0  0  0  0  0  0  0  0  0  0  0  0
   23.4704   20.1415   21.4288 H   0  0  0  0  0  0  0  0  0  0  0  0
   21.2116   19.0306   20.2666 N   0  3  0  0  0  0  0  0  0  0  0  0
   22.0152   19.0409   19.6322 H   0  0  0  0  0  0  0  0  0  0  0  0
   21.1910   18.1141   20.7205 H   0  0  0  0  0  0  0  0  0  0  0  0
   20.3677   19.1096   19.6921 H   0  0  0  0  0  0  0  0  0  0  0  0
  1  2  1  0  0  0  0
  1  3  1  0  0  0  0
  1  4  1  0  0  0  0
  1  5  1  0  0  0  0
  5  6  1  0  0  0  0
  5  7  1  0  0  0  0
  5  8  1  0  0  0  0
  8  9  1  0  0  0  0
  8 10  1  0  0  0  0
  8 11  1  0  0  0  0
 11 12  1  0  0  0  0
 11 13  1  0  0  0  0
 11 14  1  0  0  0  0
 14 15  1  0  0  0  0
 14 16  1  0  0  0  0
 14 17  1  0  0  0  0
 17 18  1  0  0  0  0
 17 19  1  0  0  0  0
 19 20  1  0  0  0  0
 19 21  1  0  0  0  0
 19 22  1  0  0  0  0
 17 23  1  0  0  0  0
 23 24  1  0  0  0  0
 23 25  1  0  0  0  0
 23 26  1  0  0  0  0
M  END
> <VConfSearch Rank>
405

> <Conf_Id>
132

> <Delta U+W>
0.363

> <U+W>
-29.936

> <U>
24.060

> <W>
-53.996

> <W(PB)>
-56.327

> <W(SA)>
2.332

> <Valence>
3.249

> <Coulomb>
19.781

> <VdW>
1.030

> <VdW6>
-7.421

> <VdW12>
8.451

> <Bond>
0.207

> <Angle>
1.205

> <Pdih>
1.837

> <Idih>
0.000

> <Tether>
0.000

$$$$
VeraChem MOL file


 26 25  0  0  0  0  0  0  0  0999 V2000     
   19.0161   16.9790   19.7556 C   0  0  0  0  0  0  0  0  0  0  0  0
   18.2882   16.1576   19.7317 H   0  0  0  0  0  0  0  0  0  0  0  0
   18.7730   17.6681   18.9363 H   0  0  0  0  0  0  0  0  0  0  0  0
   20.0099   16.5545   19.5619 H   0  0  0  0  0  0  0  0  0  0  0  0
   18.9780   17.7014   21.1190 C   0  0  0  0  0  0  0  0  0  0  0  0
   19.1845   16.9720   21.9132 H   0  0  0  0  0  0  0  0  0  0  0  0
   17.9654   18.0893   21.2971 H   0  0  0  0  0  0  0  0  0  0  0  0
   20.0001   18.8615   21.1777 C   0  0  0  0  0  0  0  0  0  0  0  0
   21.0177   18.4658   21.0546 H   0  0  0  0  0  0  0  0  0  0  0  0
   19.8257   19.5321   20.3249 H   0  0  0  0  0  0  0  0  0  0  0  0
   19.9205   19.6957   22.4801 C   0  0  0  0  0  0  0  0  0  0  0  0
   18.9030   20.0930   22.5923 H   0  0  0  0  0  0  0  0  0  0  0  0
   20.5818   20.5639   22.3646 H   0  0  0  0  0  0  0  0  0  0  0  0
   20.3270   18.8975   23.7493 C   0  0  0  0  0  0  0  0  0  0  0  0
   19.6469   18.0476   23.8833 H   0  0  0  0  0  0  0  0  0  0  0  0
   21.3262   18.4663   23.6033 H   0  0  0  0  0  0  0  0  0  0  0  0
   20.3257   19.7171   25.0616 C   0  0  1  0  0  0  0  0  0  0  0  0
   20.5728   19.0273   25.8745 H   0  0  0  0  0  0  0  0  0  0  0  0
   21.3927   20.8260   25.0558 C   0  0  0  0  0  0  0  0  0  0  0  0
   21.1564   21.6146   24.3317 H   0  0  0  0  0  0  0  0  0  0  0  0
   22.3799   20.4163   24.8089 H   0  0  0  0  0  0  0  0  0  0  0  0
   21.4650   21.2927   26.0458 H   0  0  0  0  0  0  0  0  0  0  0  0
   18.9682   20.2764   25.3879 N   0  3  0  0  0  0  0  0  0  0  0  0
   18.2604   19.5384   25.4400 H   0  0  0  0  0  0  0  0  0  0  0  0
   18.9704   20.7621   26.2893 H   0  0  0  0  0  0  0  0  0  0  0  0
   18.6627   20.9473   24.6787 H   0  0  0  0  0  0  0  0  0  0  0  0
  1  2  1  0  0  0  0
  1  3  1  0  0  0  0
  1  4  1  0  0  0  0
  1  5  1  0  0  0  0
  5  6  1  0  0  0  0
  5  7  1  0  0  0  0
  5  8  1  0  0  0  0
  8  9  1  0  0  0  0
  8 10  1  0  0  0  0
  8 11  1  0  0  0  0
 11 12  1  0  0  0  0
 11 13  1  0  0  0  0
 11 14  1  0  0  0  0
 14 15  1  0  0  0  0
 14 16  1  0  0  0  0
 14 17  1  0  0  0  0
 17 18  1  0  0  0  0
 17 19  1  0  0  0  0
 19 20  1  0  0  0  0
 19 21  1  0  0  0  0
 19 22  1  0  0  0  0
 17 23  1  0  0  0  0
 23 24  1  0  0  0  0
 23 25  1  0  0  0  0
 23 26  1  0  0  0  0
M  END
> <VConfSearch Rank>
406

> <Conf_Id>
46

> <Delta U+W>
1.114

> <U+W>
-29.185

> <U>
24.990

> <W>
-54.175

> <W(PB)>
-56.455

> <W(SA)>
2.279

> <Valence>
3.862

> <Coulomb>
19.956

> <VdW>
1.172

> <VdW6>
-8.054

> <VdW12>
9.226

> <Bond>
0.258

> <Angle>
1.499

> <Pdih>
2.106

> <Idih>
0.000

> <Tether>
0.000

$$$$
VeraChem MOL file


 26 25  0  0  0  0  0  0  0  0999 V2000     
   16.1778   19.2062   22.9301 C   0  0  0  0  0  0  0  0  0  0  0  0
   16.3666   19.0261   23.9956 H   0  0  0  0  0  0  0  0  0  0  0  0
   16.0812   20.2887   22.7754 H   0  0  0  0  0  0  0  0  0  0  0  0
   15.2125   18.7448   22.6845 H   0  0  0  0  0  0  0  0  0  0  0  0
   17.2993   18.6159   22.0455 C   0  0  0  0  0  0  0  0  0  0  0  0
   17.0021   18.7080   20.9914 H   0  0  0  0  0  0  0  0  0  0  0  0
   17.3987   17.5395   22.2434 H   0  0  0  0  0  0  0  0  0  0  0  0
   18.6682   19.3128   22.2367 C   0  0  0  0  0  0  0  0  0  0  0  0
   19.3593   18.9168   21.4813 H   0  0  0  0  0  0  0  0  0  0  0  0
   18.5644   20.3866   22.0282 H   0  0  0  0  0  0  0  0  0  0  0  0
   19.2701   19.1112   23.6507 C   0  0  0  0  0  0  0  0  0  0  0  0
   19.3479   18.0386   23.8727 H   0  0  0  0  0  0  0  0  0  0  0  0
   18.5870   19.5280   24.4019 H   0  0  0  0  0  0  0  0  0  0  0  0
   20.6512   19.7928   23.8299 C   0  0  0  0  0  0  0  0  0  0  0  0
   20.5309   20.8755   23.6911 H   0  0  0  0  0  0  0  0  0  0  0  0
   20.9863   19.6527   24.8662 H   0  0  0  0  0  0  0  0  0  0  0  0
   21.7460   19.2804   22.8670 C   0  0  1  0  0  0  0  0  0  0  0  0
   21.4097   19.4501   21.8400 H   0  0  0  0  0  0  0  0  0  0  0  0
   23.0518   20.0631   23.0773 C   0  0  0  0  0  0  0  0  0  0  0  0
   23.8215   19.7315   22.3694 H   0  0  0  0  0  0  0  0  0  0  0  0
   23.4396   19.9233   24.0941 H   0  0  0  0  0  0  0  0  0  0  0  0
   22.8926   21.1367   22.9169 H   0  0  0  0  0  0  0  0  0  0  0  0
   21.9860   17.8019   23.0054 N   0  3  0  0  0  0  0  0  0  0  0  0
   21.1304   17.2686   22.8289 H   0  0  0  0  0  0  0  0  0  0  0  0
   22.6951   17.4736   22.3438 H   0  0  0  0  0  0  0  0  0  0  0  0
   22.3102   17.5632   23.9462 H   0  0  0  0  0  0  0  0  0  0  0  0
  1  2  1  0  0  0  0
  1  3  1  0  0  0  0
  1  4  1  0  0  0  0
  1  5  1  0  0  0  0
  5  6  1  0  0  0  0
  5  7  1  0  0  0  0
  5  8  1  0  0  0  0
  8  9  1  0  0  0  0
  8 10  1  0  0  0  0
  8 11  1  0  0  0  0
 11 12  1  0  0  0  0
 11 13  1  0  0  0  0
 11 14  1  0  0  0  0
 14 15  1  0  0  0  0
 14 16  1  0  0  0  0
 14 17  1  0  0  0  0
 17 18  1  0  0  0  0
 17 19  1  0  0  0  0
 19 20  1  0  0  0  0
 19 21  1  0  0  0  0
 19 22  1  0  0  0  0
 17 23  1  0  0  0  0
 23 24  1  0  0  0  0
 23 25  1  0  0  0  0
 23 26  1  0  0  0  0
M  END
> <VConfSearch Rank>
407

> <Conf_Id>
113

> <Delta U+W>
1.137

> <U+W>
-29.162

> <U>
24.833

> <W>
-53.995

> <W(PB)>
-56.288

> <W(SA)>
2.294

> <Valence>
3.589

> <Coulomb>
20.270

> <VdW>
0.974

> <VdW6>
-8.255

> <VdW12>
9.229

> <Bond>
0.244

> <Angle>
1.377

> <Pdih>
1.967

> <Idih>
0.000

> <Tether>
0.000

$$$$
VeraChem MOL file


 26 25  0  0  0  0  0  0  0  0999 V2000     
   18.1237   21.4496   20.2518 C   0  0  0  0  0  0  0  0  0  0  0  0
   17.6927   21.0962   19.3061 H   0  0  0  0  0  0  0  0  0  0  0  0
   17.3074   21.8558   20.8633 H   0  0  0  0  0  0  0  0  0  0  0  0
   18.8175   22.2683   20.0204 H   0  0  0  0  0  0  0  0  0  0  0  0
   18.8462   20.2995   20.9850 C   0  0  0  0  0  0  0  0  0  0  0  0
   19.6368   19.8950   20.3377 H   0  0  0  0  0  0  0  0  0  0  0  0
   18.1308   19.4854   21.1615 H   0  0  0  0  0  0  0  0  0  0  0  0
   19.4586   20.7732   22.3243 C   0  0  0  0  0  0  0  0  0  0  0  0
   20.1075   21.6391   22.1330 H   0  0  0  0  0  0  0  0  0  0  0  0
   18.6610   21.1282   22.9915 H   0  0  0  0  0  0  0  0  0  0  0  0
   20.2928   19.6851   23.0443 C   0  0  0  0  0  0  0  0  0  0  0  0
   20.7801   20.1477   23.9124 H   0  0  0  0  0  0  0  0  0  0  0  0
   21.0985   19.3516   22.3770 H   0  0  0  0  0  0  0  0  0  0  0  0
   19.4465   18.4690   23.5106 C   0  0  0  0  0  0  0  0  0  0  0  0
   18.5836   18.8285   24.0864 H   0  0  0  0  0  0  0  0  0  0  0  0
   19.0336   17.9492   22.6372 H   0  0  0  0  0  0  0  0  0  0  0  0
   20.2130   17.4361   24.3703 C   0  0  1  0  0  0  0  0  0  0  0  0
   19.5047   16.6453   24.6360 H   0  0  0  0  0  0  0  0  0  0  0  0
   21.3697   16.7833   23.5936 C   0  0  0  0  0  0  0  0  0  0  0  0
   22.1669   17.5030   23.3728 H   0  0  0  0  0  0  0  0  0  0  0  0
   21.0138   16.3622   22.6451 H   0  0  0  0  0  0  0  0  0  0  0  0
   21.8094   15.9647   24.1765 H   0  0  0  0  0  0  0  0  0  0  0  0
   20.6964   18.0153   25.6716 N   0  3  0  0  0  0  0  0  0  0  0  0
   19.9254   18.4143   26.2146 H   0  0  0  0  0  0  0  0  0  0  0  0
   21.1441   17.3027   26.2548 H   0  0  0  0  0  0  0  0  0  0  0  0
   21.3813   18.7589   25.5165 H   0  0  0  0  0  0  0  0  0  0  0  0
  1  2  1  0  0  0  0
  1  3  1  0  0  0  0
  1  4  1  0  0  0  0
  1  5  1  0  0  0  0
  5  6  1  0  0  0  0
  5  7  1  0  0  0  0
  5  8  1  0  0  0  0
  8  9  1  0  0  0  0
  8 10  1  0  0  0  0
  8 11  1  0  0  0  0
 11 12  1  0  0  0  0
 11 13  1  0  0  0  0
 11 14  1  0  0  0  0
 14 15  1  0  0  0  0
 14 16  1  0  0  0  0
 14 17  1  0  0  0  0
 17 18  1  0  0  0  0
 17 19  1  0  0  0  0
 19 20  1  0  0  0  0
 19 21  1  0  0  0  0
 19 22  1  0  0  0  0
 17 23  1  0  0  0  0
 23 24  1  0  0  0  0
 23 25  1  0  0  0  0
 23 26  1  0  0  0  0
M  END
> <VConfSearch Rank>
408

> <Conf_Id>
45

> <Delta U+W>
1.035

> <U+W>
-29.264

> <U>
24.725

> <W>
-53.989

> <W(PB)>
-56.298

> <W(SA)>
2.309

> <Valence>
3.780

> <Coulomb>
19.804

> <VdW>
1.141

> <VdW6>
-8.104

> <VdW12>
9.246

> <Bond>
0.254

> <Angle>
1.437

> <Pdih>
2.089

> <Idih>
0.000

> <Tether>
0.000

$$$$
VeraChem MOL file


 26 25  0  0  0  0  0  0  0  0999 V2000     
   15.8611   19.0052   23.4623 C   0  0  0  0  0  0  0  0  0  0  0  0
   15.2119   19.8902   23.4414 H   0  0  0  0  0  0  0  0  0  0  0  0
   15.3954   18.2314   22.8382 H   0  0  0  0  0  0  0  0  0  0  0  0
   15.8951   18.6364   24.4958 H   0  0  0  0  0  0  0  0  0  0  0  0
   17.2751   19.3544   22.9514 C   0  0  0  0  0  0  0  0  0  0  0  0
   17.6888   20.1585   23.5741 H   0  0  0  0  0  0  0  0  0  0  0  0
   17.2053   19.7472   21.9274 H   0  0  0  0  0  0  0  0  0  0  0  0
   18.2102   18.1220   22.9761 C   0  0  0  0  0  0  0  0  0  0  0  0
   18.3246   17.7640   24.0086 H   0  0  0  0  0  0  0  0  0  0  0  0
   17.7341   17.3038   22.4180 H   0  0  0  0  0  0  0  0  0  0  0  0
   19.6062   18.3866   22.3599 C   0  0  0  0  0  0  0  0  0  0  0  0
   19.4900   18.7427   21.3269 H   0  0  0  0  0  0  0  0  0  0  0  0
   20.1364   17.4272   22.2982 H   0  0  0  0  0  0  0  0  0  0  0  0
   20.4585   19.3983   23.1689 C   0  0  0  0  0  0  0  0  0  0  0  0
   19.9368   20.3624   23.2081 H   0  0  0  0  0  0  0  0  0  0  0  0
   20.5602   19.0529   24.2062 H   0  0  0  0  0  0  0  0  0  0  0  0
   21.8587   19.6289   22.5593 C   0  0  1  0  0  0  0  0  0  0  0  0
   21.7323   19.9370   21.5168 H   0  0  0  0  0  0  0  0  0  0  0  0
   22.5890   20.7545   23.3095 C   0  0  0  0  0  0  0  0  0  0  0  0
   22.7418   20.4946   24.3645 H   0  0  0  0  0  0  0  0  0  0  0  0
   22.0145   21.6883   23.2674 H   0  0  0  0  0  0  0  0  0  0  0  0
   23.5706   20.9479   22.8595 H   0  0  0  0  0  0  0  0  0  0  0  0
   22.6958   18.3787   22.5436 N   0  3  0  0  0  0  0  0  0  0  0  0
   22.2452   17.6329   22.0069 H   0  0  0  0  0  0  0  0  0  0  0  0
   23.6129   18.5480   22.1209 H   0  0  0  0  0  0  0  0  0  0  0  0
   22.8556   18.0244   23.4902 H   0  0  0  0  0  0  0  0  0  0  0  0
  1  2  1  0  0  0  0
  1  3  1  0  0  0  0
  1  4  1  0  0  0  0
  1  5  1  0  0  0  0
  5  6  1  0  0  0  0
  5  7  1  0  0  0  0
  5  8  1  0  0  0  0
  8  9  1  0  0  0  0
  8 10  1  0  0  0  0
  8 11  1  0  0  0  0
 11 12  1  0  0  0  0
 11 13  1  0  0  0  0
 11 14  1  0  0  0  0
 14 15  1  0  0  0  0
 14 16  1  0  0  0  0
 14 17  1  0  0  0  0
 17 18  1  0  0  0  0
 17 19  1  0  0  0  0
 19 20  1  0  0  0  0
 19 21  1  0  0  0  0
 19 22  1  0  0  0  0
 17 23  1  0  0  0  0
 23 24  1  0  0  0  0
 23 25  1  0  0  0  0
 23 26  1  0  0  0  0
M  END
> <VConfSearch Rank>
409

> <Conf_Id>
121

> <Delta U+W>
0.736

> <U+W>
-29.562

> <U>
24.282

> <W>
-53.844

> <W(PB)>
-56.205

> <W(SA)>
2.361

> <Valence>
3.311

> <Coulomb>
19.887

> <VdW>
1.083

> <VdW6>
-7.444

> <VdW12>
8.527

> <Bond>
0.219

> <Angle>
1.167

> <Pdih>
1.926

> <Idih>
0.000

> <Tether>
0.000

$$$$
VeraChem MOL file


 26 25  0  0  0  0  0  0  0  0999 V2000     
   22.9910   20.8086   22.1005 C   0  0  0  0  0  0  0  0  0  0  0  0
   23.6128   21.3939   21.4108 H   0  0  0  0  0  0  0  0  0  0  0  0
   23.2291   21.1309   23.1225 H   0  0  0  0  0  0  0  0  0  0  0  0
   23.2830   19.7566   21.9942 H   0  0  0  0  0  0  0  0  0  0  0  0
   21.4921   21.0178   21.7866 C   0  0  0  0  0  0  0  0  0  0  0  0
   21.2725   20.6566   20.7722 H   0  0  0  0  0  0  0  0  0  0  0  0
   21.2803   22.0962   21.7809 H   0  0  0  0  0  0  0  0  0  0  0  0
   20.5466   20.3329   22.8028 C   0  0  0  0  0  0  0  0  0  0  0  0
   20.7647   20.7036   23.8138 H   0  0  0  0  0  0  0  0  0  0  0  0
   19.5190   20.6441   22.5734 H   0  0  0  0  0  0  0  0  0  0  0  0
   20.6365   18.7858   22.7822 C   0  0  0  0  0  0  0  0  0  0  0  0
   21.6604   18.4751   23.0266 H   0  0  0  0  0  0  0  0  0  0  0  0
   20.4425   18.4146   21.7673 H   0  0  0  0  0  0  0  0  0  0  0  0
   19.6770   18.1038   23.7921 C   0  0  0  0  0  0  0  0  0  0  0  0
   19.8187   17.0162   23.7387 H   0  0  0  0  0  0  0  0  0  0  0  0
   19.9753   18.3996   24.8066 H   0  0  0  0  0  0  0  0  0  0  0  0
   18.1768   18.4310   23.6016 C   0  0  1  0  0  0  0  0  0  0  0  0
   18.0479   19.5151   23.6695 H   0  0  0  0  0  0  0  0  0  0  0  0
   17.6514   17.9630   22.2328 C   0  0  0  0  0  0  0  0  0  0  0  0
   17.8114   16.8866   22.0932 H   0  0  0  0  0  0  0  0  0  0  0  0
   18.1493   18.4939   21.4131 H   0  0  0  0  0  0  0  0  0  0  0  0
   16.5764   18.1619   22.1426 H   0  0  0  0  0  0  0  0  0  0  0  0
   17.3487   17.8393   24.7083 N   0  3  0  0  0  0  0  0  0  0  0  0
   17.6545   18.1714   25.6275 H   0  0  0  0  0  0  0  0  0  0  0  0
   16.3600   18.0864   24.6092 H   0  0  0  0  0  0  0  0  0  0  0  0
   17.4083   16.8176   24.7153 H   0  0  0  0  0  0  0  0  0  0  0  0
  1  2  1  0  0  0  0
  1  3  1  0  0  0  0
  1  4  1  0  0  0  0
  1  5  1  0  0  0  0
  5  6  1  0  0  0  0
  5  7  1  0  0  0  0
  5  8  1  0  0  0  0
  8  9  1  0  0  0  0
  8 10  1  0  0  0  0
  8 11  1  0  0  0  0
 11 12  1  0  0  0  0
 11 13  1  0  0  0  0
 11 14  1  0  0  0  0
 14 15  1  0  0  0  0
 14 16  1  0  0  0  0
 14 17  1  0  0  0  0
 17 18  1  0  0  0  0
 17 19  1  0  0  0  0
 19 20  1  0  0  0  0
 19 21  1  0  0  0  0
 19 22  1  0  0  0  0
 17 23  1  0  0  0  0
 23 24  1  0  0  0  0
 23 25  1  0  0  0  0
 23 26  1  0  0  0  0
M  END
> <VConfSearch Rank>
410

> <Conf_Id>
5

> <Delta U+W>
1.233

> <U+W>
-29.065

> <U>
25.023

> <W>
-54.088

> <W(PB)>
-56.383

> <W(SA)>
2.296

> <Valence>
4.083

> <Coulomb>
19.893

> <VdW>
1.047

> <VdW6>
-8.479

> <VdW12>
9.527

> <Bond>
0.256

> <Angle>
1.716

> <Pdih>
2.112

> <Idih>
0.000

> <Tether>
0.000

$$$$
VeraChem MOL file


 26 25  0  0  0  0  0  0  0  0999 V2000     
   16.2760   18.1869   23.1725 C   0  0  0  0  0  0  0  0  0  0  0  0
   15.3918   17.8182   23.7084 H   0  0  0  0  0  0  0  0  0  0  0  0
   16.1372   19.2629   23.0111 H   0  0  0  0  0  0  0  0  0  0  0  0
   16.3047   17.6923   22.1929 H   0  0  0  0  0  0  0  0  0  0  0  0
   17.5596   17.8926   23.9819 C   0  0  0  0  0  0  0  0  0  0  0  0
   17.5832   16.8214   24.2263 H   0  0  0  0  0  0  0  0  0  0  0  0
   17.5226   18.4258   24.9421 H   0  0  0  0  0  0  0  0  0  0  0  0
   18.8624   18.2570   23.2294 C   0  0  0  0  0  0  0  0  0  0  0  0
   19.7083   17.8839   23.8211 H   0  0  0  0  0  0  0  0  0  0  0  0
   18.8914   17.7252   22.2684 H   0  0  0  0  0  0  0  0  0  0  0  0
   19.0336   19.7784   22.9934 C   0  0  0  0  0  0  0  0  0  0  0  0
   19.0330   20.3006   23.9601 H   0  0  0  0  0  0  0  0  0  0  0  0
   18.1705   20.1630   22.4352 H   0  0  0  0  0  0  0  0  0  0  0  0
   20.3155   20.1553   22.2077 C   0  0  0  0  0  0  0  0  0  0  0  0
   20.2866   19.7084   21.2049 H   0  0  0  0  0  0  0  0  0  0  0  0
   20.2947   21.2413   22.0469 H   0  0  0  0  0  0  0  0  0  0  0  0
   21.6287   19.7734   22.9332 C   0  0  1  0  0  0  0  0  0  0  0  0
   21.3973   19.5990   23.9885 H   0  0  0  0  0  0  0  0  0  0  0  0
   22.2489   18.4927   22.3453 C   0  0  0  0  0  0  0  0  0  0  0  0
   22.5464   18.6420   21.2998 H   0  0  0  0  0  0  0  0  0  0  0  0
   21.5452   17.6535   22.3781 H   0  0  0  0  0  0  0  0  0  0  0  0
   23.1408   18.1997   22.9128 H   0  0  0  0  0  0  0  0  0  0  0  0
   22.6332   20.8929   22.9048 N   0  3  0  0  0  0  0  0  0  0  0  0
   22.2603   21.7445   23.3343 H   0  0  0  0  0  0  0  0  0  0  0  0
   23.4857   20.6436   23.4142 H   0  0  0  0  0  0  0  0  0  0  0  0
   22.9074   21.1258   21.9465 H   0  0  0  0  0  0  0  0  0  0  0  0
  1  2  1  0  0  0  0
  1  3  1  0  0  0  0
  1  4  1  0  0  0  0
  1  5  1  0  0  0  0
  5  6  1  0  0  0  0
  5  7  1  0  0  0  0
  5  8  1  0  0  0  0
  8  9  1  0  0  0  0
  8 10  1  0  0  0  0
  8 11  1  0  0  0  0
 11 12  1  0  0  0  0
 11 13  1  0  0  0  0
 11 14  1  0  0  0  0
 14 15  1  0  0  0  0
 14 16  1  0  0  0  0
 14 17  1  0  0  0  0
 17 18  1  0  0  0  0
 17 19  1  0  0  0  0
 19 20  1  0  0  0  0
 19 21  1  0  0  0  0
 19 22  1  0  0  0  0
 17 23  1  0  0  0  0
 23 24  1  0  0  0  0
 23 25  1  0  0  0  0
 23 26  1  0  0  0  0
M  END
> <VConfSearch Rank>
411

> <Conf_Id>
100

> <Delta U+W>
3.818

> <U+W>
-26.481

> <U>
27.496

> <W>
-53.977

> <W(PB)>
-56.267

> <W(SA)>
2.290

> <Valence>
6.472

> <Coulomb>
19.839

> <VdW>
1.185

> <VdW6>
-8.405

> <VdW12>
9.590

> <Bond>
0.248

> <Angle>
1.619

> <Pdih>
4.604

> <Idih>
0.000

> <Tether>
0.000

$$$$
VeraChem MOL file


 26 25  0  0  0  0  0  0  0  0999 V2000     
   18.4249   15.7237   22.0301 C   0  0  0  0  0  0  0  0  0  0  0  0
   18.2803   15.0739   21.1573 H   0  0  0  0  0  0  0  0  0  0  0  0
   19.2862   15.3432   22.5945 H   0  0  0  0  0  0  0  0  0  0  0  0
   17.5341   15.6371   22.6659 H   0  0  0  0  0  0  0  0  0  0  0  0
   18.6521   17.1854   21.5895 C   0  0  0  0  0  0  0  0  0  0  0  0
   17.7904   17.5260   20.9984 H   0  0  0  0  0  0  0  0  0  0  0  0
   19.5291   17.2345   20.9289 H   0  0  0  0  0  0  0  0  0  0  0  0
   18.8581   18.1225   22.8002 C   0  0  0  0  0  0  0  0  0  0  0  0
   17.9782   18.0672   23.4559 H   0  0  0  0  0  0  0  0  0  0  0  0
   19.7105   17.7654   23.3900 H   0  0  0  0  0  0  0  0  0  0  0  0
   19.0793   19.5903   22.3589 C   0  0  0  0  0  0  0  0  0  0  0  0
   18.1935   19.9117   21.7937 H   0  0  0  0  0  0  0  0  0  0  0  0
   19.9218   19.6529   21.6581 H   0  0  0  0  0  0  0  0  0  0  0  0
   19.2806   20.5719   23.5473 C   0  0  0  0  0  0  0  0  0  0  0  0
   18.8053   21.5273   23.2887 H   0  0  0  0  0  0  0  0  0  0  0  0
   18.7360   20.2085   24.4287 H   0  0  0  0  0  0  0  0  0  0  0  0
   20.7481   20.8758   23.9390 C   0  0  1  0  0  0  0  0  0  0  0  0
   20.7169   21.5654   24.7883 H   0  0  0  0  0  0  0  0  0  0  0  0
   21.5196   19.6248   24.3893 C   0  0  0  0  0  0  0  0  0  0  0  0
   21.6988   18.9402   23.5518 H   0  0  0  0  0  0  0  0  0  0  0  0
   20.9687   19.0861   25.1701 H   0  0  0  0  0  0  0  0  0  0  0  0
   22.4952   19.9057   24.8046 H   0  0  0  0  0  0  0  0  0  0  0  0
   21.4912   21.5989   22.8489 N   0  3  0  0  0  0  0  0  0  0  0  0
   21.0145   22.4641   22.5794 H   0  0  0  0  0  0  0  0  0  0  0  0
   22.4378   21.8518   23.1460 H   0  0  0  0  0  0  0  0  0  0  0  0
   21.5773   21.0207   22.0096 H   0  0  0  0  0  0  0  0  0  0  0  0
  1  2  1  0  0  0  0
  1  3  1  0  0  0  0
  1  4  1  0  0  0  0
  1  5  1  0  0  0  0
  5  6  1  0  0  0  0
  5  7  1  0  0  0  0
  5  8  1  0  0  0  0
  8  9  1  0  0  0  0
  8 10  1  0  0  0  0
  8 11  1  0  0  0  0
 11 12  1  0  0  0  0
 11 13  1  0  0  0  0
 11 14  1  0  0  0  0
 14 15  1  0  0  0  0
 14 16  1  0  0  0  0
 14 17  1  0  0  0  0
 17 18  1  0  0  0  0
 17 19  1  0  0  0  0
 19 20  1  0  0  0  0
 19 21  1  0  0  0  0
 19 22  1  0  0  0  0
 17 23  1  0  0  0  0
 23 24  1  0  0  0  0
 23 25  1  0  0  0  0
 23 26  1  0  0  0  0
M  END
> <VConfSearch Rank>
412

> <Conf_Id>
142

> <Delta U+W>
2.978

> <U+W>
-27.320

> <U>
26.848

> <W>
-54.168

> <W(PB)>
-56.427

> <W(SA)>
2.259

> <Valence>
5.823

> <Coulomb>
20.057

> <VdW>
0.968

> <VdW6>
-8.367

> <VdW12>
9.335

> <Bond>
0.267

> <Angle>
1.799

> <Pdih>
3.758

> <Idih>
0.000

> <Tether>
0.000

$$$$
VeraChem MOL file


 26 25  0  0  0  0  0  0  0  0999 V2000     
   21.9128   20.7966   20.6766 C   0  0  0  0  0  0  0  0  0  0  0  0
   21.9394   19.9729   19.9514 H   0  0  0  0  0  0  0  0  0  0  0  0
   22.1940   21.7170   20.1486 H   0  0  0  0  0  0  0  0  0  0  0  0
   22.6785   20.6089   21.4390 H   0  0  0  0  0  0  0  0  0  0  0  0
   20.5066   20.9415   21.3021 C   0  0  0  0  0  0  0  0  0  0  0  0
   19.8050   21.2574   20.5173 H   0  0  0  0  0  0  0  0  0  0  0  0
   20.5140   21.7473   22.0493 H   0  0  0  0  0  0  0  0  0  0  0  0
   19.9758   19.6360   21.9428 C   0  0  0  0  0  0  0  0  0  0  0  0
   18.9261   19.8034   22.2104 H   0  0  0  0  0  0  0  0  0  0  0  0
   19.9914   18.8295   21.1968 H   0  0  0  0  0  0  0  0  0  0  0  0
   20.7644   19.2038   23.2048 C   0  0  0  0  0  0  0  0  0  0  0  0
   20.6916   19.9866   23.9715 H   0  0  0  0  0  0  0  0  0  0  0  0
   21.8304   19.1316   22.9556 H   0  0  0  0  0  0  0  0  0  0  0  0
   20.3372   17.8321   23.8001 C   0  0  0  0  0  0  0  0  0  0  0  0
   20.5292   17.0416   23.0628 H   0  0  0  0  0  0  0  0  0  0  0  0
   21.0073   17.6126   24.6417 H   0  0  0  0  0  0  0  0  0  0  0  0
   18.8822   17.6952   24.3174 C   0  0  1  0  0  0  0  0  0  0  0  0
   18.8421   16.7699   24.9005 H   0  0  0  0  0  0  0  0  0  0  0  0
   18.4799   18.8453   25.2570 C   0  0  0  0  0  0  0  0  0  0  0  0
   18.4067   19.7994   24.7214 H   0  0  0  0  0  0  0  0  0  0  0  0
   19.2117   18.9598   26.0662 H   0  0  0  0  0  0  0  0  0  0  0  0
   17.5047   18.6429   25.7163 H   0  0  0  0  0  0  0  0  0  0  0  0
   17.8761   17.5091   23.2148 N   0  3  0  0  0  0  0  0  0  0  0  0
   18.1049   16.6987   22.6322 H   0  0  0  0  0  0  0  0  0  0  0  0
   16.9352   17.3588   23.5897 H   0  0  0  0  0  0  0  0  0  0  0  0
   17.8371   18.3268   22.6034 H   0  0  0  0  0  0  0  0  0  0  0  0
  1  2  1  0  0  0  0
  1  3  1  0  0  0  0
  1  4  1  0  0  0  0
  1  5  1  0  0  0  0
  5  6  1  0  0  0  0
  5  7  1  0  0  0  0
  5  8  1  0  0  0  0
  8  9  1  0  0  0  0
  8 10  1  0  0  0  0
  8 11  1  0  0  0  0
 11 12  1  0  0  0  0
 11 13  1  0  0  0  0
 11 14  1  0  0  0  0
 14 15  1  0  0  0  0
 14 16  1  0  0  0  0
 14 17  1  0  0  0  0
 17 18  1  0  0  0  0
 17 19  1  0  0  0  0
 19 20  1  0  0  0  0
 19 21  1  0  0  0  0
 19 22  1  0  0  0  0
 17 23  1  0  0  0  0
 23 24  1  0  0  0  0
 23 25  1  0  0  0  0
 23 26  1  0  0  0  0
M  END
> <VConfSearch Rank>
413

> <Conf_Id>
119

> <Delta U+W>
3.538

> <U+W>
-26.761

> <U>
27.482

> <W>
-54.243

> <W(PB)>
-56.494

> <W(SA)>
2.251

> <Valence>
5.284

> <Coulomb>
21.247

> <VdW>
0.951

> <VdW6>
-9.416

> <VdW12>
10.367

> <Bond>
0.323

> <Angle>
2.522

> <Pdih>
2.439

> <Idih>
0.000

> <Tether>
0.000

$$$$
VeraChem MOL file


 26 25  0  0  0  0  0  0  0  0999 V2000     
   17.8667   20.9979   25.1326 C   0  0  0  0  0  0  0  0  0  0  0  0
   17.0997   20.2816   25.4547 H   0  0  0  0  0  0  0  0  0  0  0  0
   18.7887   20.7889   25.6891 H   0  0  0  0  0  0  0  0  0  0  0  0
   17.5293   22.0024   25.4190 H   0  0  0  0  0  0  0  0  0  0  0  0
   18.0947   20.9190   23.6059 C   0  0  0  0  0  0  0  0  0  0  0  0
   18.8873   21.6220   23.3141 H   0  0  0  0  0  0  0  0  0  0  0  0
   17.1822   21.2553   23.0941 H   0  0  0  0  0  0  0  0  0  0  0  0
   18.4476   19.4967   23.1077 C   0  0  0  0  0  0  0  0  0  0  0  0
   17.6387   18.8045   23.3793 H   0  0  0  0  0  0  0  0  0  0  0  0
   18.4762   19.5143   22.0119 H   0  0  0  0  0  0  0  0  0  0  0  0
   19.7931   18.9653   23.6657 C   0  0  0  0  0  0  0  0  0  0  0  0
   19.6945   18.8463   24.7528 H   0  0  0  0  0  0  0  0  0  0  0  0
   20.5861   19.7086   23.5137 H   0  0  0  0  0  0  0  0  0  0  0  0
   20.2079   17.5908   23.0700 C   0  0  0  0  0  0  0  0  0  0  0  0
   20.6849   17.0008   23.8636 H   0  0  0  0  0  0  0  0  0  0  0  0
   19.3132   17.0214   22.7855 H   0  0  0  0  0  0  0  0  0  0  0  0
   21.1903   17.6378   21.8732 C   0  0  1  0  0  0  0  0  0  0  0  0
   21.3736   16.6032   21.5671 H   0  0  0  0  0  0  0  0  0  0  0  0
   20.6169   18.3838   20.6574 C   0  0  0  0  0  0  0  0  0  0  0  0
   20.5091   19.4564   20.8580 H   0  0  0  0  0  0  0  0  0  0  0  0
   19.6357   17.9800   20.3792 H   0  0  0  0  0  0  0  0  0  0  0  0
   21.2801   18.2710   19.7911 H   0  0  0  0  0  0  0  0  0  0  0  0
   22.5325   18.1967   22.2595 N   0  3  0  0  0  0  0  0  0  0  0  0
   22.9493   17.6719   23.0336 H   0  0  0  0  0  0  0  0  0  0  0  0
   23.1917   18.1611   21.4768 H   0  0  0  0  0  0  0  0  0  0  0  0
   22.4588   19.1733   22.5542 H   0  0  0  0  0  0  0  0  0  0  0  0
  1  2  1  0  0  0  0
  1  3  1  0  0  0  0
  1  4  1  0  0  0  0
  1  5  1  0  0  0  0
  5  6  1  0  0  0  0
  5  7  1  0  0  0  0
  5  8  1  0  0  0  0
  8  9  1  0  0  0  0
  8 10  1  0  0  0  0
  8 11  1  0  0  0  0
 11 12  1  0  0  0  0
 11 13  1  0  0  0  0
 11 14  1  0  0  0  0
 14 15  1  0  0  0  0
 14 16  1  0  0  0  0
 14 17  1  0  0  0  0
 17 18  1  0  0  0  0
 17 19  1  0  0  0  0
 19 20  1  0  0  0  0
 19 21  1  0  0  0  0
 19 22  1  0  0  0  0
 17 23  1  0  0  0  0
 23 24  1  0  0  0  0
 23 25  1  0  0  0  0
 23 26  1  0  0  0  0
M  END
> <VConfSearch Rank>
414

> <Conf_Id>
127

> <Delta U+W>
3.544

> <U+W>
-26.754

> <U>
27.509

> <W>
-54.263

> <W(PB)>
-56.496

> <W(SA)>
2.232

> <Valence>
6.375

> <Coulomb>
20.014

> <VdW>
1.120

> <VdW6>
-8.976

> <VdW12>
10.096

> <Bond>
0.304

> <Angle>
1.986

> <Pdih>
4.086

> <Idih>
0.000

> <Tether>
0.000

$$$$
VeraChem MOL file


 26 25  0  0  0  0  0  0  0  0999 V2000     
   18.2685   21.3726   21.2681 C   0  0  0  0  0  0  0  0  0  0  0  0
   17.3939   22.0211   21.4071 H   0  0  0  0  0  0  0  0  0  0  0  0
   18.6352   21.5238   20.2445 H   0  0  0  0  0  0  0  0  0  0  0  0
   17.9291   20.3345   21.3542 H   0  0  0  0  0  0  0  0  0  0  0  0
   19.3657   21.7150   22.3029 C   0  0  0  0  0  0  0  0  0  0  0  0
   18.9673   21.6334   23.3238 H   0  0  0  0  0  0  0  0  0  0  0  0
   19.6385   22.7712   22.1692 H   0  0  0  0  0  0  0  0  0  0  0  0
   20.6447   20.8517   22.1517 C   0  0  0  0  0  0  0  0  0  0  0  0
   20.7709   20.5386   21.1061 H   0  0  0  0  0  0  0  0  0  0  0  0
   21.5132   21.4863   22.3763 H   0  0  0  0  0  0  0  0  0  0  0  0
   20.7140   19.6187   23.0896 C   0  0  0  0  0  0  0  0  0  0  0  0
   20.6936   19.9613   24.1326 H   0  0  0  0  0  0  0  0  0  0  0  0
   21.6913   19.1421   22.9412 H   0  0  0  0  0  0  0  0  0  0  0  0
   19.5854   18.5793   22.8559 C   0  0  0  0  0  0  0  0  0  0  0  0
   18.6191   19.0359   23.1012 H   0  0  0  0  0  0  0  0  0  0  0  0
   19.5427   18.3188   21.7902 H   0  0  0  0  0  0  0  0  0  0  0  0
   19.7152   17.2785   23.6835 C   0  0  1  0  0  0  0  0  0  0  0  0
   18.8233   16.6768   23.4827 H   0  0  0  0  0  0  0  0  0  0  0  0
   20.9386   16.4433   23.2663 C   0  0  0  0  0  0  0  0  0  0  0  0
   20.9375   16.2634   22.1841 H   0  0  0  0  0  0  0  0  0  0  0  0
   20.9230   15.4665   23.7650 H   0  0  0  0  0  0  0  0  0  0  0  0
   21.8800   16.9382   23.5318 H   0  0  0  0  0  0  0  0  0  0  0  0
   19.7183   17.5376   25.1651 N   0  3  0  0  0  0  0  0  0  0  0  0
   18.8827   18.0515   25.4583 H   0  0  0  0  0  0  0  0  0  0  0  0
   19.7425   16.6635   25.6978 H   0  0  0  0  0  0  0  0  0  0  0  0
   20.5334   18.0894   25.4435 H   0  0  0  0  0  0  0  0  0  0  0  0
  1  2  1  0  0  0  0
  1  3  1  0  0  0  0
  1  4  1  0  0  0  0
  1  5  1  0  0  0  0
  5  6  1  0  0  0  0
  5  7  1  0  0  0  0
  5  8  1  0  0  0  0
  8  9  1  0  0  0  0
  8 10  1  0  0  0  0
  8 11  1  0  0  0  0
 11 12  1  0  0  0  0
 11 13  1  0  0  0  0
 11 14  1  0  0  0  0
 14 15  1  0  0  0  0
 14 16  1  0  0  0  0
 14 17  1  0  0  0  0
 17 18  1  0  0  0  0
 17 19  1  0  0  0  0
 19 20  1  0  0  0  0
 19 21  1  0  0  0  0
 19 22  1  0  0  0  0
 17 23  1  0  0  0  0
 23 24  1  0  0  0  0
 23 25  1  0  0  0  0
 23 26  1  0  0  0  0
M  END
> <VConfSearch Rank>
415

> <Conf_Id>
131

> <Delta U+W>
3.589

> <U+W>
-26.710

> <U>
27.573

> <W>
-54.283

> <W(PB)>
-56.537

> <W(SA)>
2.254

> <Valence>
6.363

> <Coulomb>
20.026

> <VdW>
1.184

> <VdW6>
-8.939

> <VdW12>
10.123

> <Bond>
0.298

> <Angle>
2.018

> <Pdih>
4.047

> <Idih>
0.000

> <Tether>
0.000

$$$$
VeraChem MOL file


 26 25  0  0  0  0  0  0  0  0999 V2000     
   17.3967   18.1430   24.1988 C   0  0  0  0  0  0  0  0  0  0  0  0
   16.8755   18.7853   23.4772 H   0  0  0  0  0  0  0  0  0  0  0  0
   18.1387   17.5407   23.6606 H   0  0  0  0  0  0  0  0  0  0  0  0
   16.6600   17.4498   24.6249 H   0  0  0  0  0  0  0  0  0  0  0  0
   18.0577   18.9802   25.3153 C   0  0  0  0  0  0  0  0  0  0  0  0
   18.6305   18.3161   25.9775 H   0  0  0  0  0  0  0  0  0  0  0  0
   17.2678   19.4228   25.9381 H   0  0  0  0  0  0  0  0  0  0  0  0
   18.9748   20.1201   24.8026 C   0  0  0  0  0  0  0  0  0  0  0  0
   18.3851   20.8503   24.2316 H   0  0  0  0  0  0  0  0  0  0  0  0
   19.3470   20.6642   25.6817 H   0  0  0  0  0  0  0  0  0  0  0  0
   20.1982   19.6466   23.9746 C   0  0  0  0  0  0  0  0  0  0  0  0
   20.5070   18.6501   24.3153 H   0  0  0  0  0  0  0  0  0  0  0  0
   21.0420   20.3173   24.1882 H   0  0  0  0  0  0  0  0  0  0  0  0
   19.9483   19.6611   22.4432 C   0  0  0  0  0  0  0  0  0  0  0  0
   19.1260   18.9873   22.1782 H   0  0  0  0  0  0  0  0  0  0  0  0
   19.6230   20.6696   22.1559 H   0  0  0  0  0  0  0  0  0  0  0  0
   21.1974   19.2971   21.6087 C   0  0  1  0  0  0  0  0  0  0  0  0
   22.0220   19.9437   21.9243 H   0  0  0  0  0  0  0  0  0  0  0  0
   21.6211   17.8310   21.8108 C   0  0  0  0  0  0  0  0  0  0  0  0
   20.8019   17.1437   21.5655 H   0  0  0  0  0  0  0  0  0  0  0  0
   21.9292   17.6428   22.8455 H   0  0  0  0  0  0  0  0  0  0  0  0
   22.4756   17.5841   21.1688 H   0  0  0  0  0  0  0  0  0  0  0  0
   20.9750   19.5767   20.1481 N   0  3  0  0  0  0  0  0  0  0  0  0
   20.2146   19.0061   19.7690 H   0  0  0  0  0  0  0  0  0  0  0  0
   20.7342   20.5584   19.9842 H   0  0  0  0  0  0  0  0  0  0  0  0
   21.8134   19.3734   19.5965 H   0  0  0  0  0  0  0  0  0  0  0  0
  1  2  1  0  0  0  0
  1  3  1  0  0  0  0
  1  4  1  0  0  0  0
  1  5  1  0  0  0  0
  5  6  1  0  0  0  0
  5  7  1  0  0  0  0
  5  8  1  0  0  0  0
  8  9  1  0  0  0  0
  8 10  1  0  0  0  0
  8 11  1  0  0  0  0
 11 12  1  0  0  0  0
 11 13  1  0  0  0  0
 11 14  1  0  0  0  0
 14 15  1  0  0  0  0
 14 16  1  0  0  0  0
 14 17  1  0  0  0  0
 17 18  1  0  0  0  0
 17 19  1  0  0  0  0
 19 20  1  0  0  0  0
 19 21  1  0  0  0  0
 19 22  1  0  0  0  0
 17 23  1  0  0  0  0
 23 24  1  0  0  0  0
 23 25  1  0  0  0  0
 23 26  1  0  0  0  0
M  END
> <VConfSearch Rank>
416

> <Conf_Id>
80

> <Delta U+W>
3.351

> <U+W>
-26.948

> <U>
27.261

> <W>
-54.209

> <W(PB)>
-56.471

> <W(SA)>
2.263

> <Valence>
6.230

> <Coulomb>
19.945

> <VdW>
1.087

> <VdW6>
-8.618

> <VdW12>
9.704

> <Bond>
0.277

> <Angle>
1.928

> <Pdih>
4.025

> <Idih>
0.000

> <Tether>
0.000

$$$$
VeraChem MOL file


 26 25  0  0  0  0  0  0  0  0999 V2000     
   19.7846   20.9454   25.6756 C   0  0  0  0  0  0  0  0  0  0  0  0
   19.0184   21.5083   26.2241 H   0  0  0  0  0  0  0  0  0  0  0  0
   20.6586   20.8404   26.3314 H   0  0  0  0  0  0  0  0  0  0  0  0
   20.0759   21.5470   24.8056 H   0  0  0  0  0  0  0  0  0  0  0  0
   19.2397   19.5633   25.2501 C   0  0  0  0  0  0  0  0  0  0  0  0
   18.3846   19.6950   24.5747 H   0  0  0  0  0  0  0  0  0  0  0  0
   18.8399   19.0541   26.1381 H   0  0  0  0  0  0  0  0  0  0  0  0
   20.3083   18.6462   24.5999 C   0  0  0  0  0  0  0  0  0  0  0  0
   21.0669   18.4086   25.3583 H   0  0  0  0  0  0  0  0  0  0  0  0
   19.8388   17.6887   24.3478 H   0  0  0  0  0  0  0  0  0  0  0  0
   21.0344   19.2329   23.3562 C   0  0  0  0  0  0  0  0  0  0  0  0
   21.8175   18.5346   23.0302 H   0  0  0  0  0  0  0  0  0  0  0  0
   21.5735   20.1379   23.6656 H   0  0  0  0  0  0  0  0  0  0  0  0
   20.1261   19.5878   22.1455 C   0  0  0  0  0  0  0  0  0  0  0  0
   19.1353   19.9166   22.4783 H   0  0  0  0  0  0  0  0  0  0  0  0
   20.5704   20.4599   21.6479 H   0  0  0  0  0  0  0  0  0  0  0  0
   19.9855   18.4756   21.0782 C   0  0  1  0  0  0  0  0  0  0  0  0
   20.9870   18.2180   20.7201 H   0  0  0  0  0  0  0  0  0  0  0  0
   19.3294   17.1972   21.6253 C   0  0  0  0  0  0  0  0  0  0  0  0
   19.9905   16.6932   22.3389 H   0  0  0  0  0  0  0  0  0  0  0  0
   19.1325   16.4849   20.8146 H   0  0  0  0  0  0  0  0  0  0  0  0
   18.3774   17.4192   22.1234 H   0  0  0  0  0  0  0  0  0  0  0  0
   19.2263   18.9754   19.8802 N   0  3  0  0  0  0  0  0  0  0  0  0
   19.6719   19.8002   19.4680 H   0  0  0  0  0  0  0  0  0  0  0  0
   19.1714   18.2619   19.1479 H   0  0  0  0  0  0  0  0  0  0  0  0
   18.2673   19.2345   20.1264 H   0  0  0  0  0  0  0  0  0  0  0  0
  1  2  1  0  0  0  0
  1  3  1  0  0  0  0
  1  4  1  0  0  0  0
  1  5  1  0  0  0  0
  5  6  1  0  0  0  0
  5  7  1  0  0  0  0
  5  8  1  0  0  0  0
  8  9  1  0  0  0  0
  8 10  1  0  0  0  0
  8 11  1  0  0  0  0
 11 12  1  0  0  0  0
 11 13  1  0  0  0  0
 11 14  1  0  0  0  0
 14 15  1  0  0  0  0
 14 16  1  0  0  0  0
 14 17  1  0  0  0  0
 17 18  1  0  0  0  0
 17 19  1  0  0  0  0
 19 20  1  0  0  0  0
 19 21  1  0  0  0  0
 19 22  1  0  0  0  0
 17 23  1  0  0  0  0
 23 24  1  0  0  0  0
 23 25  1  0  0  0  0
 23 26  1  0  0  0  0
M  END
> <VConfSearch Rank>
417

> <Conf_Id>
136

> <Delta U+W>
4.272

> <U+W>
-26.026

> <U>
28.262

> <W>
-54.288

> <W(PB)>
-56.488

> <W(SA)>
2.200

> <Valence>
7.096

> <Coulomb>
19.990

> <VdW>
1.175

> <VdW6>
-9.404

> <VdW12>
10.580

> <Bond>
0.360

> <Angle>
2.785

> <Pdih>
3.951

> <Idih>
0.000

> <Tether>
0.000

$$$$
VeraChem MOL file


 26 25  0  0  0  0  0  0  0  0999 V2000     
   22.6572   18.4531   23.3085 C   0  0  0  0  0  0  0  0  0  0  0  0
   22.0138   18.7818   24.1339 H   0  0  0  0  0  0  0  0  0  0  0  0
   23.6123   18.1334   23.7450 H   0  0  0  0  0  0  0  0  0  0  0  0
   22.8575   19.3129   22.6562 H   0  0  0  0  0  0  0  0  0  0  0  0
   22.0100   17.2939   22.5197 C   0  0  0  0  0  0  0  0  0  0  0  0
   21.7712   16.4726   23.2096 H   0  0  0  0  0  0  0  0  0  0  0  0
   22.7501   16.8921   21.8136 H   0  0  0  0  0  0  0  0  0  0  0  0
   20.7391   17.6918   21.7263 C   0  0  0  0  0  0  0  0  0  0  0  0
   20.9892   18.4414   20.9629 H   0  0  0  0  0  0  0  0  0  0  0  0
   20.4054   16.8042   21.1710 H   0  0  0  0  0  0  0  0  0  0  0  0
   19.5581   18.1868   22.6014 C   0  0  0  0  0  0  0  0  0  0  0  0
   19.6116   17.7282   23.5986 H   0  0  0  0  0  0  0  0  0  0  0  0
   18.6243   17.8270   22.1493 H   0  0  0  0  0  0  0  0  0  0  0  0
   19.4882   19.7316   22.7202 C   0  0  0  0  0  0  0  0  0  0  0  0
   20.4510   20.1199   23.0709 H   0  0  0  0  0  0  0  0  0  0  0  0
   19.3236   20.1698   21.7269 H   0  0  0  0  0  0  0  0  0  0  0  0
   18.3825   20.2102   23.6859 C   0  0  1  0  0  0  0  0  0  0  0  0
   18.5529   19.7421   24.6604 H   0  0  0  0  0  0  0  0  0  0  0  0
   18.4523   21.7352   23.8651 C   0  0  0  0  0  0  0  0  0  0  0  0
   18.2862   22.2549   22.9131 H   0  0  0  0  0  0  0  0  0  0  0  0
   19.4330   22.0379   24.2530 H   0  0  0  0  0  0  0  0  0  0  0  0
   17.6927   22.0777   24.5785 H   0  0  0  0  0  0  0  0  0  0  0  0
   17.0072   19.7938   23.2402 N   0  3  0  0  0  0  0  0  0  0  0  0
   16.7737   20.1932   22.3274 H   0  0  0  0  0  0  0  0  0  0  0  0
   16.9320   18.7763   23.1603 H   0  0  0  0  0  0  0  0  0  0  0  0
   16.2898   20.1025   23.9023 H   0  0  0  0  0  0  0  0  0  0  0  0
  1  2  1  0  0  0  0
  1  3  1  0  0  0  0
  1  4  1  0  0  0  0
  1  5  1  0  0  0  0
  5  6  1  0  0  0  0
  5  7  1  0  0  0  0
  5  8  1  0  0  0  0
  8  9  1  0  0  0  0
  8 10  1  0  0  0  0
  8 11  1  0  0  0  0
 11 12  1  0  0  0  0
 11 13  1  0  0  0  0
 11 14  1  0  0  0  0
 14 15  1  0  0  0  0
 14 16  1  0  0  0  0
 14 17  1  0  0  0  0
 17 18  1  0  0  0  0
 17 19  1  0  0  0  0
 19 20  1  0  0  0  0
 19 21  1  0  0  0  0
 19 22  1  0  0  0  0
 17 23  1  0  0  0  0
 23 24  1  0  0  0  0
 23 25  1  0  0  0  0
 23 26  1  0  0  0  0
M  END
> <VConfSearch Rank>
418

> <Conf_Id>
124

> <Delta U+W>
3.001

> <U+W>
-27.298

> <U>
26.787

> <W>
-54.085

> <W(PB)>
-56.347

> <W(SA)>
2.262

> <Valence>
5.742

> <Coulomb>
20.023

> <VdW>
1.022

> <VdW6>
-8.392

> <VdW12>
9.414

> <Bond>
0.261

> <Angle>
1.576

> <Pdih>
3.904

> <Idih>
0.000

> <Tether>
0.000

$$$$
VeraChem MOL file


 26 25  0  0  0  0  0  0  0  0999 V2000     
   19.8571   21.1419   20.4531 C   0  0  0  0  0  0  0  0  0  0  0  0
   19.3574   20.7373   19.5633 H   0  0  0  0  0  0  0  0  0  0  0  0
   20.2756   22.1201   20.1834 H   0  0  0  0  0  0  0  0  0  0  0  0
   20.6944   20.4801   20.6997 H   0  0  0  0  0  0  0  0  0  0  0  0
   18.8612   21.2854   21.6276 C   0  0  0  0  0  0  0  0  0  0  0  0
   18.0715   21.9839   21.3171 H   0  0  0  0  0  0  0  0  0  0  0  0
   19.3542   21.7522   22.4917 H   0  0  0  0  0  0  0  0  0  0  0  0
   18.1992   19.9461   22.0426 C   0  0  0  0  0  0  0  0  0  0  0  0
   17.1649   20.1574   22.3474 H   0  0  0  0  0  0  0  0  0  0  0  0
   18.1202   19.2759   21.1756 H   0  0  0  0  0  0  0  0  0  0  0  0
   18.8915   19.2149   23.2218 C   0  0  0  0  0  0  0  0  0  0  0  0
   18.2871   18.3340   23.4741 H   0  0  0  0  0  0  0  0  0  0  0  0
   18.8700   19.8659   24.1059 H   0  0  0  0  0  0  0  0  0  0  0  0
   20.3504   18.7758   22.9280 C   0  0  0  0  0  0  0  0  0  0  0  0
   20.3850   18.2522   21.9638 H   0  0  0  0  0  0  0  0  0  0  0  0
   20.9824   19.6658   22.8200 H   0  0  0  0  0  0  0  0  0  0  0  0
   20.9842   17.8642   24.0055 C   0  0  1  0  0  0  0  0  0  0  0  0
   22.0033   17.6353   23.6788 H   0  0  0  0  0  0  0  0  0  0  0  0
   21.0793   18.5655   25.3717 C   0  0  0  0  0  0  0  0  0  0  0  0
   20.0879   18.7455   25.8045 H   0  0  0  0  0  0  0  0  0  0  0  0
   21.5949   19.5295   25.2800 H   0  0  0  0  0  0  0  0  0  0  0  0
   21.6477   17.9505   26.0801 H   0  0  0  0  0  0  0  0  0  0  0  0
   20.2799   16.5406   24.1265 N   0  3  0  0  0  0  0  0  0  0  0  0
   20.7507   15.9264   24.7970 H   0  0  0  0  0  0  0  0  0  0  0  0
   19.3153   16.6598   24.4450 H   0  0  0  0  0  0  0  0  0  0  0  0
   20.2499   16.0477   23.2295 H   0  0  0  0  0  0  0  0  0  0  0  0
  1  2  1  0  0  0  0
  1  3  1  0  0  0  0
  1  4  1  0  0  0  0
  1  5  1  0  0  0  0
  5  6  1  0  0  0  0
  5  7  1  0  0  0  0
  5  8  1  0  0  0  0
  8  9  1  0  0  0  0
  8 10  1  0  0  0  0
  8 11  1  0  0  0  0
 11 12  1  0  0  0  0
 11 13  1  0  0  0  0
 11 14  1  0  0  0  0
 14 15  1  0  0  0  0
 14 16  1  0  0  0  0
 14 17  1  0  0  0  0
 17 18  1  0  0  0  0
 17 19  1  0  0  0  0
 19 20  1  0  0  0  0
 19 21  1  0  0  0  0
 19 22  1  0  0  0  0
 17 23  1  0  0  0  0
 23 24  1  0  0  0  0
 23 25  1  0  0  0  0
 23 26  1  0  0  0  0
M  END
> <VConfSearch Rank>
419

> <Conf_Id>
105

> <Delta U+W>
3.442

> <U+W>
-26.857

> <U>
27.313

> <W>
-54.169

> <W(PB)>
-56.414

> <W(SA)>
2.245

> <Valence>
6.229

> <Coulomb>
19.943

> <VdW>
1.140

> <VdW6>
-9.001

> <VdW12>
10.140

> <Bond>
0.294

> <Angle>
1.969

> <Pdih>
3.967

> <Idih>
0.000

> <Tether>
0.000

$$$$
VeraChem MOL file


 26 25  0  0  0  0  0  0  0  0999 V2000     
   17.1831   17.6814   23.8278 C   0  0  0  0  0  0  0  0  0  0  0  0
   16.2390   18.1378   23.5032 H   0  0  0  0  0  0  0  0  0  0  0  0
   16.9377   16.8704   24.5255 H   0  0  0  0  0  0  0  0  0  0  0  0
   17.7490   18.4365   24.3841 H   0  0  0  0  0  0  0  0  0  0  0  0
   17.9751   17.1321   22.6183 C   0  0  0  0  0  0  0  0  0  0  0  0
   17.3602   16.3600   22.1349 H   0  0  0  0  0  0  0  0  0  0  0  0
   18.8872   16.6224   22.9585 H   0  0  0  0  0  0  0  0  0  0  0  0
   18.3235   18.2150   21.5646 C   0  0  0  0  0  0  0  0  0  0  0  0
   18.2845   17.7483   20.5705 H   0  0  0  0  0  0  0  0  0  0  0  0
   17.5520   18.9972   21.5537 H   0  0  0  0  0  0  0  0  0  0  0  0
   19.7283   18.8515   21.7248 C   0  0  0  0  0  0  0  0  0  0  0  0
   19.8905   19.5412   20.8848 H   0  0  0  0  0  0  0  0  0  0  0  0
   20.4899   18.0660   21.6298 H   0  0  0  0  0  0  0  0  0  0  0  0
   19.9302   19.6219   23.0529 C   0  0  0  0  0  0  0  0  0  0  0  0
   19.0809   20.3014   23.2038 H   0  0  0  0  0  0  0  0  0  0  0  0
   19.9329   18.9187   23.8950 H   0  0  0  0  0  0  0  0  0  0  0  0
   21.2369   20.4439   23.0762 C   0  0  1  0  0  0  0  0  0  0  0  0
   21.2271   21.1273   22.2214 H   0  0  0  0  0  0  0  0  0  0  0  0
   21.3186   21.2813   24.3625 C   0  0  0  0  0  0  0  0  0  0  0  0
   21.3340   20.6407   25.2532 H   0  0  0  0  0  0  0  0  0  0  0  0
   20.4583   21.9574   24.4428 H   0  0  0  0  0  0  0  0  0  0  0  0
   22.2267   21.8966   24.3682 H   0  0  0  0  0  0  0  0  0  0  0  0
   22.4611   19.5822   22.9274 N   0  3  0  0  0  0  0  0  0  0  0  0
   22.4396   19.0502   22.0534 H   0  0  0  0  0  0  0  0  0  0  0  0
   23.3164   20.1451   22.9222 H   0  0  0  0  0  0  0  0  0  0  0  0
   22.5408   18.9108   23.6956 H   0  0  0  0  0  0  0  0  0  0  0  0
  1  2  1  0  0  0  0
  1  3  1  0  0  0  0
  1  4  1  0  0  0  0
  1  5  1  0  0  0  0
  5  6  1  0  0  0  0
  5  7  1  0  0  0  0
  5  8  1  0  0  0  0
  8  9  1  0  0  0  0
  8 10  1  0  0  0  0
  8 11  1  0  0  0  0
 11 12  1  0  0  0  0
 11 13  1  0  0  0  0
 11 14  1  0  0  0  0
 14 15  1  0  0  0  0
 14 16  1  0  0  0  0
 14 17  1  0  0  0  0
 17 18  1  0  0  0  0
 17 19  1  0  0  0  0
 19 20  1  0  0  0  0
 19 21  1  0  0  0  0
 19 22  1  0  0  0  0
 17 23  1  0  0  0  0
 23 24  1  0  0  0  0
 23 25  1  0  0  0  0
 23 26  1  0  0  0  0
M  END
> <VConfSearch Rank>
420

> <Conf_Id>
107

> <Delta U+W>
2.995

> <U+W>
-27.304

> <U>
26.796

> <W>
-54.100

> <W(PB)>
-56.404

> <W(SA)>
2.304

> <Valence>
5.706

> <Coulomb>
20.107

> <VdW>
0.982

> <VdW6>
-8.396

> <VdW12>
9.378

> <Bond>
0.254

> <Angle>
1.644

> <Pdih>
3.808

> <Idih>
0.000

> <Tether>
0.000

$$$$
VeraChem MOL file


 26 25  0  0  0  0  0  0  0  0999 V2000     
   15.6443   19.0505   22.8106 C   0  0  0  0  0  0  0  0  0  0  0  0
   15.5306   19.2714   21.7413 H   0  0  0  0  0  0  0  0  0  0  0  0
   14.8330   18.3710   23.1024 H   0  0  0  0  0  0  0  0  0  0  0  0
   15.5165   19.9872   23.3688 H   0  0  0  0  0  0  0  0  0  0  0  0
   17.0198   18.4140   23.1025 C   0  0  0  0  0  0  0  0  0  0  0  0
   17.1044   17.4632   22.5576 H   0  0  0  0  0  0  0  0  0  0  0  0
   17.0903   18.1735   24.1726 H   0  0  0  0  0  0  0  0  0  0  0  0
   18.1805   19.3507   22.7005 C   0  0  0  0  0  0  0  0  0  0  0  0
   18.1031   19.5906   21.6309 H   0  0  0  0  0  0  0  0  0  0  0  0
   18.0905   20.3002   23.2463 H   0  0  0  0  0  0  0  0  0  0  0  0
   19.5597   18.7165   22.9905 C   0  0  0  0  0  0  0  0  0  0  0  0
   19.6496   17.7689   22.4413 H   0  0  0  0  0  0  0  0  0  0  0  0
   19.6261   18.4740   24.0595 H   0  0  0  0  0  0  0  0  0  0  0  0
   20.7206   19.6582   22.5879 C   0  0  0  0  0  0  0  0  0  0  0  0
   20.6049   19.9321   21.5307 H   0  0  0  0  0  0  0  0  0  0  0  0
   20.6578   20.5921   23.1623 H   0  0  0  0  0  0  0  0  0  0  0  0
   22.1121   19.0189   22.7866 C   0  0  1  0  0  0  0  0  0  0  0  0
   22.1414   18.0801   22.2249 H   0  0  0  0  0  0  0  0  0  0  0  0
   23.2090   19.9445   22.2362 C   0  0  0  0  0  0  0  0  0  0  0  0
   23.2236   20.9035   22.7692 H   0  0  0  0  0  0  0  0  0  0  0  0
   23.0484   20.1485   21.1702 H   0  0  0  0  0  0  0  0  0  0  0  0
   24.1974   19.4803   22.3406 H   0  0  0  0  0  0  0  0  0  0  0  0
   22.3872   18.6721   24.2244 N   0  3  0  0  0  0  0  0  0  0  0  0
   22.3737   19.5052   24.8187 H   0  0  0  0  0  0  0  0  0  0  0  0
   21.6899   18.0194   24.5920 H   0  0  0  0  0  0  0  0  0  0  0  0
   23.3054   18.2323   24.3342 H   0  0  0  0  0  0  0  0  0  0  0  0
  1  2  1  0  0  0  0
  1  3  1  0  0  0  0
  1  4  1  0  0  0  0
  1  5  1  0  0  0  0
  5  6  1  0  0  0  0
  5  7  1  0  0  0  0
  5  8  1  0  0  0  0
  8  9  1  0  0  0  0
  8 10  1  0  0  0  0
  8 11  1  0  0  0  0
 11 12  1  0  0  0  0
 11 13  1  0  0  0  0
 11 14  1  0  0  0  0
 14 15  1  0  0  0  0
 14 16  1  0  0  0  0
 14 17  1  0  0  0  0
 17 18  1  0  0  0  0
 17 19  1  0  0  0  0
 19 20  1  0  0  0  0
 19 21  1  0  0  0  0
 19 22  1  0  0  0  0
 17 23  1  0  0  0  0
 23 24  1  0  0  0  0
 23 25  1  0  0  0  0
 23 26  1  0  0  0  0
M  END
> <VConfSearch Rank>
421

> <Conf_Id>
122

> <Delta U+W>
0.000

> <U+W>
-30.299

> <U>
23.517

> <W>
-53.816

> <W(PB)>
-56.162

> <W(SA)>
2.346

> <Valence>
2.737

> <Coulomb>
19.862

> <VdW>
0.919

> <VdW6>
-6.793

> <VdW12>
7.712

> <Bond>
0.171

> <Angle>
0.873

> <Pdih>
1.693

> <Idih>
0.000

> <Tether>
0.000

$$$$
VeraChem MOL file


 26 25  0  0  0  0  0  0  0  0999 V2000     
   19.6559   15.9777   25.7040 C   0  0  0  0  0  0  0  0  0  0  0  0
   19.0256   15.1009   25.9012 H   0  0  0  0  0  0  0  0  0  0  0  0
   20.6887   15.6282   25.5756 H   0  0  0  0  0  0  0  0  0  0  0  0
   19.6213   16.6239   26.5908 H   0  0  0  0  0  0  0  0  0  0  0  0
   19.1651   16.7307   24.4493 C   0  0  0  0  0  0  0  0  0  0  0  0
   18.1197   17.0376   24.5942 H   0  0  0  0  0  0  0  0  0  0  0  0
   19.1789   16.0497   23.5868 H   0  0  0  0  0  0  0  0  0  0  0  0
   20.0361   17.9707   24.1489 C   0  0  0  0  0  0  0  0  0  0  0  0
   20.0207   18.6475   25.0145 H   0  0  0  0  0  0  0  0  0  0  0  0
   21.0802   17.6584   24.0083 H   0  0  0  0  0  0  0  0  0  0  0  0
   19.5478   18.7273   22.8927 C   0  0  0  0  0  0  0  0  0  0  0  0
   18.5019   19.0267   23.0407 H   0  0  0  0  0  0  0  0  0  0  0  0
   19.5681   18.0512   22.0267 H   0  0  0  0  0  0  0  0  0  0  0  0
   20.4202   19.9721   22.5969 C   0  0  0  0  0  0  0  0  0  0  0  0
   20.3505   20.6805   23.4330 H   0  0  0  0  0  0  0  0  0  0  0  0
   21.4708   19.6574   22.5426 H   0  0  0  0  0  0  0  0  0  0  0  0
   20.0562   20.6888   21.2763 C   0  0  1  0  0  0  0  0  0  0  0  0
   20.0919   19.9540   20.4661 H   0  0  0  0  0  0  0  0  0  0  0  0
   18.6440   21.3001   21.3176 C   0  0  0  0  0  0  0  0  0  0  0  0
   18.5384   21.9991   22.1566 H   0  0  0  0  0  0  0  0  0  0  0  0
   17.8760   20.5244   21.4173 H   0  0  0  0  0  0  0  0  0  0  0  0
   18.4328   21.8472   20.3906 H   0  0  0  0  0  0  0  0  0  0  0  0
   21.0703   21.7452   20.9354 N   0  3  0  0  0  0  0  0  0  0  0  0
   21.1000   22.4797   21.6475 H   0  0  0  0  0  0  0  0  0  0  0  0
   22.0131   21.3528   20.8588 H   0  0  0  0  0  0  0  0  0  0  0  0
   20.8553   22.1956   20.0413 H   0  0  0  0  0  0  0  0  0  0  0  0
  1  2  1  0  0  0  0
  1  3  1  0  0  0  0
  1  4  1  0  0  0  0
  1  5  1  0  0  0  0
  5  6  1  0  0  0  0
  5  7  1  0  0  0  0
  5  8  1  0  0  0  0
  8  9  1  0  0  0  0
  8 10  1  0  0  0  0
  8 11  1  0  0  0  0
 11 12  1  0  0  0  0
 11 13  1  0  0  0  0
 11 14  1  0  0  0  0
 14 15  1  0  0  0  0
 14 16  1  0  0  0  0
 14 17  1  0  0  0  0
 17 18  1  0  0  0  0
 17 19  1  0  0  0  0
 19 20  1  0  0  0  0
 19 21  1  0  0  0  0
 19 22  1  0  0  0  0
 17 23  1  0  0  0  0
 23 24  1  0  0  0  0
 23 25  1  0  0  0  0
 23 26  1  0  0  0  0
M  END
> <VConfSearch Rank>
422

> <Conf_Id>
54

> <Delta U+W>
0.453

> <U+W>
-29.845

> <U>
23.817

> <W>
-53.663

> <W(PB)>
-56.021

> <W(SA)>
2.358

> <Valence>
3.277

> <Coulomb>
19.492

> <VdW>
1.049

> <VdW6>
-6.949

> <VdW12>
7.998

> <Bond>
0.183

> <Angle>
1.152

> <Pdih>
1.942

> <Idih>
0.000

> <Tether>
0.000

$$$$
VeraChem MOL file


 26 25  0  0  0  0  0  0  0  0999 V2000     
   17.3162   20.7737   25.0236 C   0  0  0  0  0  0  0  0  0  0  0  0
   16.5624   20.6335   24.2379 H   0  0  0  0  0  0  0  0  0  0  0  0
   17.3934   19.8417   25.5965 H   0  0  0  0  0  0  0  0  0  0  0  0
   16.9472   21.5494   25.7070 H   0  0  0  0  0  0  0  0  0  0  0  0
   18.6775   21.1892   24.4203 C   0  0  0  0  0  0  0  0  0  0  0  0
   19.4235   21.2899   25.2211 H   0  0  0  0  0  0  0  0  0  0  0  0
   18.5717   22.1873   23.9726 H   0  0  0  0  0  0  0  0  0  0  0  0
   19.1985   20.2144   23.3363 C   0  0  0  0  0  0  0  0  0  0  0  0
   18.4355   20.0953   22.5547 H   0  0  0  0  0  0  0  0  0  0  0  0
   20.0708   20.6829   22.8654 H   0  0  0  0  0  0  0  0  0  0  0  0
   19.6034   18.8280   23.8977 C   0  0  0  0  0  0  0  0  0  0  0  0
   18.7702   18.4145   24.4796 H   0  0  0  0  0  0  0  0  0  0  0  0
   20.4367   18.9493   24.6034 H   0  0  0  0  0  0  0  0  0  0  0  0
   19.9865   17.7760   22.8232 C   0  0  0  0  0  0  0  0  0  0  0  0
   20.1478   16.8252   23.3487 H   0  0  0  0  0  0  0  0  0  0  0  0
   19.1406   17.6020   22.1451 H   0  0  0  0  0  0  0  0  0  0  0  0
   21.2575   18.1110   22.0067 C   0  0  1  0  0  0  0  0  0  0  0  0
   21.9868   18.5754   22.6775 H   0  0  0  0  0  0  0  0  0  0  0  0
   21.8805   16.8270   21.4338 C   0  0  0  0  0  0  0  0  0  0  0  0
   22.7908   17.0563   20.8661 H   0  0  0  0  0  0  0  0  0  0  0  0
   21.1807   16.3109   20.7645 H   0  0  0  0  0  0  0  0  0  0  0  0
   22.1584   16.1346   22.2382 H   0  0  0  0  0  0  0  0  0  0  0  0
   20.9944   19.0861   20.8913 N   0  3  0  0  0  0  0  0  0  0  0  0
   20.5870   19.9559   21.2413 H   0  0  0  0  0  0  0  0  0  0  0  0
   21.8567   19.3269   20.3943 H   0  0  0  0  0  0  0  0  0  0  0  0
   20.3443   18.6968   20.2034 H   0  0  0  0  0  0  0  0  0  0  0  0
  1  2  1  0  0  0  0
  1  3  1  0  0  0  0
  1  4  1  0  0  0  0
  1  5  1  0  0  0  0
  5  6  1  0  0  0  0
  5  7  1  0  0  0  0
  5  8  1  0  0  0  0
  8  9  1  0  0  0  0
  8 10  1  0  0  0  0
  8 11  1  0  0  0  0
 11 12  1  0  0  0  0
 11 13  1  0  0  0  0
 11 14  1  0  0  0  0
 14 15  1  0  0  0  0
 14 16  1  0  0  0  0
 14 17  1  0  0  0  0
 17 18  1  0  0  0  0
 17 19  1  0  0  0  0
 19 20  1  0  0  0  0
 19 21  1  0  0  0  0
 19 22  1  0  0  0  0
 17 23  1  0  0  0  0
 23 24  1  0  0  0  0
 23 25  1  0  0  0  0
 23 26  1  0  0  0  0
M  END
> <VConfSearch Rank>
423

> <Conf_Id>
110

> <Delta U+W>
3.764

> <U+W>
-26.535

> <U>
27.400

> <W>
-53.935

> <W(PB)>
-56.238

> <W(SA)>
2.303

> <Valence>
5.205

> <Coulomb>
21.096

> <VdW>
1.098

> <VdW6>
-8.389

> <VdW12>
9.488

> <Bond>
0.270

> <Angle>
1.912

> <Pdih>
3.023

> <Idih>
0.000

> <Tether>
0.000

$$$$
VeraChem MOL file


 26 25  0  0  0  0  0  0  0  0999 V2000     
   17.7364   16.2154   23.6949 C   0  0  0  0  0  0  0  0  0  0  0  0
   16.9328   15.5296   23.3968 H   0  0  0  0  0  0  0  0  0  0  0  0
   18.6861   15.7690   23.3749 H   0  0  0  0  0  0  0  0  0  0  0  0
   17.7363   16.2765   24.7909 H   0  0  0  0  0  0  0  0  0  0  0  0
   17.5216   17.6083   23.0605 C   0  0  0  0  0  0  0  0  0  0  0  0
   16.5105   17.9590   23.3104 H   0  0  0  0  0  0  0  0  0  0  0  0
   17.5557   17.5245   21.9653 H   0  0  0  0  0  0  0  0  0  0  0  0
   18.5460   18.6665   23.5360 C   0  0  0  0  0  0  0  0  0  0  0  0
   18.2499   19.6405   23.1284 H   0  0  0  0  0  0  0  0  0  0  0  0
   18.4873   18.7652   24.6287 H   0  0  0  0  0  0  0  0  0  0  0  0
   20.0046   18.3393   23.1242 C   0  0  0  0  0  0  0  0  0  0  0  0
   20.0581   18.1033   22.0524 H   0  0  0  0  0  0  0  0  0  0  0  0
   20.3194   17.4291   23.6517 H   0  0  0  0  0  0  0  0  0  0  0  0
   21.0090   19.4702   23.4715 C   0  0  0  0  0  0  0  0  0  0  0  0
   20.6451   20.0535   24.3277 H   0  0  0  0  0  0  0  0  0  0  0  0
   21.9420   18.9982   23.8068 H   0  0  0  0  0  0  0  0  0  0  0  0
   21.3608   20.4105   22.2934 C   0  0  1  0  0  0  0  0  0  0  0  0
   21.7612   19.7991   21.4788 H   0  0  0  0  0  0  0  0  0  0  0  0
   20.1417   21.1811   21.7590 C   0  0  0  0  0  0  0  0  0  0  0  0
   19.6486   21.7488   22.5579 H   0  0  0  0  0  0  0  0  0  0  0  0
   19.4095   20.4986   21.3124 H   0  0  0  0  0  0  0  0  0  0  0  0
   20.4435   21.8874   20.9759 H   0  0  0  0  0  0  0  0  0  0  0  0
   22.4539   21.3692   22.6769 N   0  3  0  0  0  0  0  0  0  0  0  0
   23.2953   20.8768   22.9900 H   0  0  0  0  0  0  0  0  0  0  0  0
   22.7250   21.9625   21.8876 H   0  0  0  0  0  0  0  0  0  0  0  0
   22.1592   21.9882   23.4367 H   0  0  0  0  0  0  0  0  0  0  0  0
  1  2  1  0  0  0  0
  1  3  1  0  0  0  0
  1  4  1  0  0  0  0
  1  5  1  0  0  0  0
  5  6  1  0  0  0  0
  5  7  1  0  0  0  0
  5  8  1  0  0  0  0
  8  9  1  0  0  0  0
  8 10  1  0  0  0  0
  8 11  1  0  0  0  0
 11 12  1  0  0  0  0
 11 13  1  0  0  0  0
 11 14  1  0  0  0  0
 14 15  1  0  0  0  0
 14 16  1  0  0  0  0
 14 17  1  0  0  0  0
 17 18  1  0  0  0  0
 17 19  1  0  0  0  0
 19 20  1  0  0  0  0
 19 21  1  0  0  0  0
 19 22  1  0  0  0  0
 17 23  1  0  0  0  0
 23 24  1  0  0  0  0
 23 25  1  0  0  0  0
 23 26  1  0  0  0  0
M  END
> <VConfSearch Rank>
424

> <Conf_Id>
34

> <Delta U+W>
3.568

> <U+W>
-26.731

> <U>
27.221

> <W>
-53.952

> <W(PB)>
-56.213

> <W(SA)>
2.261

> <Valence>
6.368

> <Coulomb>
19.698

> <VdW>
1.155

> <VdW6>
-8.532

> <VdW12>
9.687

> <Bond>
0.272

> <Angle>
1.847

> <Pdih>
4.248

> <Idih>
0.000

> <Tether>
0.000

$$$$
VeraChem MOL file


 26 25  0  0  0  0  0  0  0  0999 V2000     
   19.9413   20.0945   26.8866 C   0  0  0  0  0  0  0  0  0  0  0  0
   19.3691   19.2451   27.2820 H   0  0  0  0  0  0  0  0  0  0  0  0
   21.0071   19.9019   27.0660 H   0  0  0  0  0  0  0  0  0  0  0  0
   19.6589   20.9870   27.4598 H   0  0  0  0  0  0  0  0  0  0  0  0
   19.6602   20.3009   25.3831 C   0  0  0  0  0  0  0  0  0  0  0  0
   20.2193   21.1766   25.0247 H   0  0  0  0  0  0  0  0  0  0  0  0
   18.5939   20.5249   25.2391 H   0  0  0  0  0  0  0  0  0  0  0  0
   20.0491   19.0578   24.5525 C   0  0  0  0  0  0  0  0  0  0  0  0
   21.1151   18.8369   24.7021 H   0  0  0  0  0  0  0  0  0  0  0  0
   19.4896   18.1849   24.9164 H   0  0  0  0  0  0  0  0  0  0  0  0
   19.7689   19.2604   23.0461 C   0  0  0  0  0  0  0  0  0  0  0  0
   20.3295   20.1348   22.6901 H   0  0  0  0  0  0  0  0  0  0  0  0
   18.7031   19.4850   22.9083 H   0  0  0  0  0  0  0  0  0  0  0  0
   20.1588   18.0078   22.2187 C   0  0  0  0  0  0  0  0  0  0  0  0
   21.2136   17.7665   22.4051 H   0  0  0  0  0  0  0  0  0  0  0  0
   19.5838   17.1433   22.5762 H   0  0  0  0  0  0  0  0  0  0  0  0
   19.9518   18.1447   20.6916 C   0  0  1  0  0  0  0  0  0  0  0  0
   20.2915   17.2109   20.2328 H   0  0  0  0  0  0  0  0  0  0  0  0
   18.4696   18.3312   20.3228 C   0  0  0  0  0  0  0  0  0  0  0  0
   18.0837   19.2976   20.6683 H   0  0  0  0  0  0  0  0  0  0  0  0
   17.8549   17.5371   20.7645 H   0  0  0  0  0  0  0  0  0  0  0  0
   18.3369   18.2877   19.2348 H   0  0  0  0  0  0  0  0  0  0  0  0
   20.7975   19.2347   20.0926 N   0  3  0  0  0  0  0  0  0  0  0  0
   20.6962   19.2700   19.0743 H   0  0  0  0  0  0  0  0  0  0  0  0
   20.5348   20.1529   20.4588 H   0  0  0  0  0  0  0  0  0  0  0  0
   21.7911   19.0939   20.2961 H   0  0  0  0  0  0  0  0  0  0  0  0
  1  2  1  0  0  0  0
  1  3  1  0  0  0  0
  1  4  1  0  0  0  0
  1  5  1  0  0  0  0
  5  6  1  0  0  0  0
  5  7  1  0  0  0  0
  5  8  1  0  0  0  0
  8  9  1  0  0  0  0
  8 10  1  0  0  0  0
  8 11  1  0  0  0  0
 11 12  1  0  0  0  0
 11 13  1  0  0  0  0
 11 14  1  0  0  0  0
 14 15  1  0  0  0  0
 14 16  1  0  0  0  0
 14 17  1  0  0  0  0
 17 18  1  0  0  0  0
 17 19  1  0  0  0  0
 19 20  1  0  0  0  0
 19 21  1  0  0  0  0
 19 22  1  0  0  0  0
 17 23  1  0  0  0  0
 23 24  1  0  0  0  0
 23 25  1  0  0  0  0
 23 26  1  0  0  0  0
M  END
> <VConfSearch Rank>
425

> <Conf_Id>
132

> <Delta U+W>
0.363

> <U+W>
-29.936

> <U>
24.060

> <W>
-53.996

> <W(PB)>
-56.327

> <W(SA)>
2.332

> <Valence>
3.249

> <Coulomb>
19.781

> <VdW>
1.030

> <VdW6>
-7.421

> <VdW12>
8.451

> <Bond>
0.207

> <Angle>
1.205

> <Pdih>
1.837

> <Idih>
0.000

> <Tether>
0.000

$$$$
VeraChem MOL file


 26 25  0  0  0  0  0  0  0  0999 V2000     
   16.0521   18.1183   22.7039 C   0  0  0  0  0  0  0  0  0  0  0  0
   15.4877   18.0450   21.7652 H   0  0  0  0  0  0  0  0  0  0  0  0
   15.9138   17.1784   23.2541 H   0  0  0  0  0  0  0  0  0  0  0  0
   15.6136   18.9304   23.2984 H   0  0  0  0  0  0  0  0  0  0  0  0
   17.5465   18.3822   22.4219 C   0  0  0  0  0  0  0  0  0  0  0  0
   17.6395   19.3059   21.8358 H   0  0  0  0  0  0  0  0  0  0  0  0
   17.9490   17.5689   21.8020 H   0  0  0  0  0  0  0  0  0  0  0  0
   18.3623   18.4940   23.7318 C   0  0  0  0  0  0  0  0  0  0  0  0
   17.9951   19.3421   24.3261 H   0  0  0  0  0  0  0  0  0  0  0  0
   18.1860   17.5946   24.3380 H   0  0  0  0  0  0  0  0  0  0  0  0
   19.8873   18.6396   23.5047 C   0  0  0  0  0  0  0  0  0  0  0  0
   20.2474   17.7854   22.9163 H   0  0  0  0  0  0  0  0  0  0  0  0
   20.3810   18.5732   24.4826 H   0  0  0  0  0  0  0  0  0  0  0  0
   20.2829   19.9725   22.8117 C   0  0  0  0  0  0  0  0  0  0  0  0
   19.8153   20.0253   21.8211 H   0  0  0  0  0  0  0  0  0  0  0  0
   19.8750   20.8155   23.3849 H   0  0  0  0  0  0  0  0  0  0  0  0
   21.8047   20.1844   22.6296 C   0  0  1  0  0  0  0  0  0  0  0  0
   21.9378   21.1242   22.0847 H   0  0  0  0  0  0  0  0  0  0  0  0
   22.5378   20.3224   23.9755 C   0  0  0  0  0  0  0  0  0  0  0  0
   22.5368   19.3814   24.5380 H   0  0  0  0  0  0  0  0  0  0  0  0
   22.0701   21.0959   24.5972 H   0  0  0  0  0  0  0  0  0  0  0  0
   23.5830   20.6135   23.8139 H   0  0  0  0  0  0  0  0  0  0  0  0
   22.4354   19.1166   21.7787 N   0  3  0  0  0  0  0  0  0  0  0  0
   21.9830   19.0502   20.8626 H   0  0  0  0  0  0  0  0  0  0  0  0
   23.4285   19.3055   21.6164 H   0  0  0  0  0  0  0  0  0  0  0  0
   22.3666   18.1982   22.2239 H   0  0  0  0  0  0  0  0  0  0  0  0
  1  2  1  0  0  0  0
  1  3  1  0  0  0  0
  1  4  1  0  0  0  0
  1  5  1  0  0  0  0
  5  6  1  0  0  0  0
  5  7  1  0  0  0  0
  5  8  1  0  0  0  0
  8  9  1  0  0  0  0
  8 10  1  0  0  0  0
  8 11  1  0  0  0  0
 11 12  1  0  0  0  0
 11 13  1  0  0  0  0
 11 14  1  0  0  0  0
 14 15  1  0  0  0  0
 14 16  1  0  0  0  0
 14 17  1  0  0  0  0
 17 18  1  0  0  0  0
 17 19  1  0  0  0  0
 19 20  1  0  0  0  0
 19 21  1  0  0  0  0
 19 22  1  0  0  0  0
 17 23  1  0  0  0  0
 23 24  1  0  0  0  0
 23 25  1  0  0  0  0
 23 26  1  0  0  0  0
M  END
> <VConfSearch Rank>
426

> <Conf_Id>
46

> <Delta U+W>
1.114

> <U+W>
-29.185

> <U>
24.990

> <W>
-54.175

> <W(PB)>
-56.455

> <W(SA)>
2.279

> <Valence>
3.862

> <Coulomb>
19.956

> <VdW>
1.172

> <VdW6>
-8.054

> <VdW12>
9.226

> <Bond>
0.258

> <Angle>
1.499

> <Pdih>
2.106

> <Idih>
0.000

> <Tether>
0.000

$$$$
VeraChem MOL file


 26 25  0  0  0  0  0  0  0  0999 V2000     
   18.3366   22.4549   22.5850 C   0  0  0  0  0  0  0  0  0  0  0  0
   18.6060   22.2365   21.5444 H   0  0  0  0  0  0  0  0  0  0  0  0
   17.2993   22.1344   22.7471 H   0  0  0  0  0  0  0  0  0  0  0  0
   18.3749   23.5445   22.7130 H   0  0  0  0  0  0  0  0  0  0  0  0
   19.2950   21.7602   23.5790 C   0  0  0  0  0  0  0  0  0  0  0  0
   19.0643   22.1109   24.5947 H   0  0  0  0  0  0  0  0  0  0  0  0
   20.3290   22.0710   23.3744 H   0  0  0  0  0  0  0  0  0  0  0  0
   19.1971   20.2156   23.5543 C   0  0  0  0  0  0  0  0  0  0  0  0
   19.8114   19.8232   24.3751 H   0  0  0  0  0  0  0  0  0  0  0  0
   18.1634   19.9110   23.7688 H   0  0  0  0  0  0  0  0  0  0  0  0
   19.6582   19.5903   22.2132 C   0  0  0  0  0  0  0  0  0  0  0  0
   20.6809   19.9167   21.9823 H   0  0  0  0  0  0  0  0  0  0  0  0
   19.0277   19.9676   21.3977 H   0  0  0  0  0  0  0  0  0  0  0  0
   19.5788   18.0418   22.2015 C   0  0  0  0  0  0  0  0  0  0  0  0
   18.5324   17.7412   22.3451 H   0  0  0  0  0  0  0  0  0  0  0  0
   19.8681   17.6773   21.2068 H   0  0  0  0  0  0  0  0  0  0  0  0
   20.4529   17.3496   23.2716 C   0  0  1  0  0  0  0  0  0  0  0  0
   20.1362   17.7024   24.2574 H   0  0  0  0  0  0  0  0  0  0  0  0
   20.2519   15.8266   23.2224 C   0  0  0  0  0  0  0  0  0  0  0  0
   20.8392   15.3320   24.0059 H   0  0  0  0  0  0  0  0  0  0  0  0
   20.5610   15.4161   22.2530 H   0  0  0  0  0  0  0  0  0  0  0  0
   19.1979   15.5674   23.3829 H   0  0  0  0  0  0  0  0  0  0  0  0
   21.9100   17.6966   23.1348 N   0  3  0  0  0  0  0  0  0  0  0  0
   22.0595   18.7067   23.2051 H   0  0  0  0  0  0  0  0  0  0  0  0
   22.4718   17.2509   23.8657 H   0  0  0  0  0  0  0  0  0  0  0  0
   22.2830   17.3913   22.2321 H   0  0  0  0  0  0  0  0  0  0  0  0
  1  2  1  0  0  0  0
  1  3  1  0  0  0  0
  1  4  1  0  0  0  0
  1  5  1  0  0  0  0
  5  6  1  0  0  0  0
  5  7  1  0  0  0  0
  5  8  1  0  0  0  0
  8  9  1  0  0  0  0
  8 10  1  0  0  0  0
  8 11  1  0  0  0  0
 11 12  1  0  0  0  0
 11 13  1  0  0  0  0
 11 14  1  0  0  0  0
 14 15  1  0  0  0  0
 14 16  1  0  0  0  0
 14 17  1  0  0  0  0
 17 18  1  0  0  0  0
 17 19  1  0  0  0  0
 19 20  1  0  0  0  0
 19 21  1  0  0  0  0
 19 22  1  0  0  0  0
 17 23  1  0  0  0  0
 23 24  1  0  0  0  0
 23 25  1  0  0  0  0
 23 26  1  0  0  0  0
M  END
> <VConfSearch Rank>
427

> <Conf_Id>
113

> <Delta U+W>
1.137

> <U+W>
-29.162

> <U>
24.833

> <W>
-53.995

> <W(PB)>
-56.288

> <W(SA)>
2.294

> <Valence>
3.589

> <Coulomb>
20.270

> <VdW>
0.974

> <VdW6>
-8.255

> <VdW12>
9.229

> <Bond>
0.244

> <Angle>
1.377

> <Pdih>
1.967

> <Idih>
0.000

> <Tether>
0.000

$$$$
VeraChem MOL file


 26 25  0  0  0  0  0  0  0  0999 V2000     
   22.8982   17.9869   25.0901 C   0  0  0  0  0  0  0  0  0  0  0  0
   23.1499   16.9416   25.3116 H   0  0  0  0  0  0  0  0  0  0  0  0
   23.7049   18.4045   24.4736 H   0  0  0  0  0  0  0  0  0  0  0  0
   22.8747   18.5361   26.0403 H   0  0  0  0  0  0  0  0  0  0  0  0
   21.5403   18.0779   24.3620 C   0  0  0  0  0  0  0  0  0  0  0  0
   20.7596   17.6266   24.9900 H   0  0  0  0  0  0  0  0  0  0  0  0
   21.5907   17.4841   23.4398 H   0  0  0  0  0  0  0  0  0  0  0  0
   21.1661   19.5430   24.0350 C   0  0  0  0  0  0  0  0  0  0  0  0
   21.2011   20.1347   24.9602 H   0  0  0  0  0  0  0  0  0  0  0  0
   21.9199   19.9770   23.3638 H   0  0  0  0  0  0  0  0  0  0  0  0
   19.7592   19.6984   23.4067 C   0  0  0  0  0  0  0  0  0  0  0  0
   19.5390   20.7707   23.3244 H   0  0  0  0  0  0  0  0  0  0  0  0
   19.0119   19.2798   24.0937 H   0  0  0  0  0  0  0  0  0  0  0  0
   19.6327   19.0335   22.0087 C   0  0  0  0  0  0  0  0  0  0  0  0
   20.4527   19.3816   21.3671 H   0  0  0  0  0  0  0  0  0  0  0  0
   19.7606   17.9479   22.1027 H   0  0  0  0  0  0  0  0  0  0  0  0
   18.2940   19.3015   21.2811 C   0  0  1  0  0  0  0  0  0  0  0  0
   18.3411   18.7890   20.3152 H   0  0  0  0  0  0  0  0  0  0  0  0
   17.0924   18.7293   22.0535 C   0  0  0  0  0  0  0  0  0  0  0  0
   16.9266   19.2617   22.9975 H   0  0  0  0  0  0  0  0  0  0  0  0
   17.2447   17.6667   22.2798 H   0  0  0  0  0  0  0  0  0  0  0  0
   16.1766   18.8139   21.4557 H   0  0  0  0  0  0  0  0  0  0  0  0
   18.0898   20.7586   20.9688 N   0  3  0  0  0  0  0  0  0  0  0  0
   18.8656   21.1370   20.4179 H   0  0  0  0  0  0  0  0  0  0  0  0
   17.2314   20.9093   20.4314 H   0  0  0  0  0  0  0  0  0  0  0  0
   18.0181   21.3160   21.8235 H   0  0  0  0  0  0  0  0  0  0  0  0
  1  2  1  0  0  0  0
  1  3  1  0  0  0  0
  1  4  1  0  0  0  0
  1  5  1  0  0  0  0
  5  6  1  0  0  0  0
  5  7  1  0  0  0  0
  5  8  1  0  0  0  0
  8  9  1  0  0  0  0
  8 10  1  0  0  0  0
  8 11  1  0  0  0  0
 11 12  1  0  0  0  0
 11 13  1  0  0  0  0
 11 14  1  0  0  0  0
 14 15  1  0  0  0  0
 14 16  1  0  0  0  0
 14 17  1  0  0  0  0
 17 18  1  0  0  0  0
 17 19  1  0  0  0  0
 19 20  1  0  0  0  0
 19 21  1  0  0  0  0
 19 22  1  0  0  0  0
 17 23  1  0  0  0  0
 23 24  1  0  0  0  0
 23 25  1  0  0  0  0
 23 26  1  0  0  0  0
M  END
> <VConfSearch Rank>
428

> <Conf_Id>
45

> <Delta U+W>
1.035

> <U+W>
-29.264

> <U>
24.725

> <W>
-53.989

> <W(PB)>
-56.298

> <W(SA)>
2.309

> <Valence>
3.780

> <Coulomb>
19.804

> <VdW>
1.141

> <VdW6>
-8.104

> <VdW12>
9.246

> <Bond>
0.254

> <Angle>
1.437

> <Pdih>
2.089

> <Idih>
0.000

> <Tether>
0.000

$$$$
VeraChem MOL file


 26 25  0  0  0  0  0  0  0  0999 V2000     
   20.2010   19.8154   26.8504 C   0  0  0  0  0  0  0  0  0  0  0  0
   20.7245   19.1382   27.5376 H   0  0  0  0  0  0  0  0  0  0  0  0
   20.5496   20.8365   27.0533 H   0  0  0  0  0  0  0  0  0  0  0  0
   19.1288   19.7678   27.0817 H   0  0  0  0  0  0  0  0  0  0  0  0
   20.4697   19.4178   25.3834 C   0  0  0  0  0  0  0  0  0  0  0  0
   20.1465   18.3795   25.2322 H   0  0  0  0  0  0  0  0  0  0  0  0
   21.5513   19.4468   25.1909 H   0  0  0  0  0  0  0  0  0  0  0  0
   19.7375   20.3567   24.3954 C   0  0  0  0  0  0  0  0  0  0  0  0
   18.6522   20.2845   24.5505 H   0  0  0  0  0  0  0  0  0  0  0  0
   20.0122   21.3959   24.6233 H   0  0  0  0  0  0  0  0  0  0  0  0
   20.0697   20.0781   22.9086 C   0  0  0  0  0  0  0  0  0  0  0  0
   21.1552   20.1525   22.7548 H   0  0  0  0  0  0  0  0  0  0  0  0
   19.6168   20.8757   22.3052 H   0  0  0  0  0  0  0  0  0  0  0  0
   19.5642   18.7000   22.4088 C   0  0  0  0  0  0  0  0  0  0  0  0
   20.0370   17.9047   22.9980 H   0  0  0  0  0  0  0  0  0  0  0  0
   18.4825   18.6169   22.5786 H   0  0  0  0  0  0  0  0  0  0  0  0
   19.8759   18.4491   20.9171 C   0  0  1  0  0  0  0  0  0  0  0  0
   20.9528   18.5727   20.7664 H   0  0  0  0  0  0  0  0  0  0  0  0
   19.4963   17.0116   20.5265 C   0  0  0  0  0  0  0  0  0  0  0  0
   18.4216   16.8346   20.6596 H   0  0  0  0  0  0  0  0  0  0  0  0
   20.0410   16.2836   21.1405 H   0  0  0  0  0  0  0  0  0  0  0  0
   19.7477   16.8150   19.4770 H   0  0  0  0  0  0  0  0  0  0  0  0
   19.1948   19.4373   20.0098 N   0  3  0  0  0  0  0  0  0  0  0  0
   19.4738   20.3980   20.2254 H   0  0  0  0  0  0  0  0  0  0  0  0
   19.4271   19.2650   19.0275 H   0  0  0  0  0  0  0  0  0  0  0  0
   18.1766   19.3846   20.0974 H   0  0  0  0  0  0  0  0  0  0  0  0
  1  2  1  0  0  0  0
  1  3  1  0  0  0  0
  1  4  1  0  0  0  0
  1  5  1  0  0  0  0
  5  6  1  0  0  0  0
  5  7  1  0  0  0  0
  5  8  1  0  0  0  0
  8  9  1  0  0  0  0
  8 10  1  0  0  0  0
  8 11  1  0  0  0  0
 11 12  1  0  0  0  0
 11 13  1  0  0  0  0
 11 14  1  0  0  0  0
 14 15  1  0  0  0  0
 14 16  1  0  0  0  0
 14 17  1  0  0  0  0
 17 18  1  0  0  0  0
 17 19  1  0  0  0  0
 19 20  1  0  0  0  0
 19 21  1  0  0  0  0
 19 22  1  0  0  0  0
 17 23  1  0  0  0  0
 23 24  1  0  0  0  0
 23 25  1  0  0  0  0
 23 26  1  0  0  0  0
M  END
> <VConfSearch Rank>
429

> <Conf_Id>
121

> <Delta U+W>
0.736

> <U+W>
-29.562

> <U>
24.282

> <W>
-53.844

> <W(PB)>
-56.205

> <W(SA)>
2.361

> <Valence>
3.311

> <Coulomb>
19.887

> <VdW>
1.083

> <VdW6>
-7.444

> <VdW12>
8.527

> <Bond>
0.219

> <Angle>
1.167

> <Pdih>
1.926

> <Idih>
0.000

> <Tether>
0.000

$$$$
VeraChem MOL file


 26 25  0  0  0  0  0  0  0  0999 V2000     
   22.2906   17.1893   21.0778 C   0  0  0  0  0  0  0  0  0  0  0  0
   22.6029   16.6541   20.1717 H   0  0  0  0  0  0  0  0  0  0  0  0
   23.1739   17.6936   21.4907 H   0  0  0  0  0  0  0  0  0  0  0  0
   21.9521   16.4388   21.8027 H   0  0  0  0  0  0  0  0  0  0  0  0
   21.1740   18.2056   20.7470 C   0  0  0  0  0  0  0  0  0  0  0  0
   20.2899   17.6739   20.3683 H   0  0  0  0  0  0  0  0  0  0  0  0
   21.5175   18.8525   19.9278 H   0  0  0  0  0  0  0  0  0  0  0  0
   20.7746   19.0971   21.9477 C   0  0  0  0  0  0  0  0  0  0  0  0
   21.6600   19.6325   22.3171 H   0  0  0  0  0  0  0  0  0  0  0  0
   20.0779   19.8638   21.5842 H   0  0  0  0  0  0  0  0  0  0  0  0
   20.1177   18.3085   23.1091 C   0  0  0  0  0  0  0  0  0  0  0  0
   20.8205   17.5524   23.4820 H   0  0  0  0  0  0  0  0  0  0  0  0
   19.2466   17.7535   22.7370 H   0  0  0  0  0  0  0  0  0  0  0  0
   19.7065   19.2082   24.3037 C   0  0  0  0  0  0  0  0  0  0  0  0
   19.2773   18.5771   25.0931 H   0  0  0  0  0  0  0  0  0  0  0  0
   20.6150   19.6530   24.7306 H   0  0  0  0  0  0  0  0  0  0  0  0
   18.7119   20.3435   23.9634 C   0  0  1  0  0  0  0  0  0  0  0  0
   19.1565   20.9713   23.1857 H   0  0  0  0  0  0  0  0  0  0  0  0
   17.3694   19.8003   23.4423 C   0  0  0  0  0  0  0  0  0  0  0  0
   16.9099   19.1167   24.1670 H   0  0  0  0  0  0  0  0  0  0  0  0
   17.4986   19.2624   22.4959 H   0  0  0  0  0  0  0  0  0  0  0  0
   16.6664   20.6214   23.2556 H   0  0  0  0  0  0  0  0  0  0  0  0
   18.4869   21.2400   25.1493 N   0  3  0  0  0  0  0  0  0  0  0  0
   19.3640   21.6469   25.4867 H   0  0  0  0  0  0  0  0  0  0  0  0
   17.8606   22.0163   24.9182 H   0  0  0  0  0  0  0  0  0  0  0  0
   18.0648   20.7296   25.9296 H   0  0  0  0  0  0  0  0  0  0  0  0
  1  2  1  0  0  0  0
  1  3  1  0  0  0  0
  1  4  1  0  0  0  0
  1  5  1  0  0  0  0
  5  6  1  0  0  0  0
  5  7  1  0  0  0  0
  5  8  1  0  0  0  0
  8  9  1  0  0  0  0
  8 10  1  0  0  0  0
  8 11  1  0  0  0  0
 11 12  1  0  0  0  0
 11 13  1  0  0  0  0
 11 14  1  0  0  0  0
 14 15  1  0  0  0  0
 14 16  1  0  0  0  0
 14 17  1  0  0  0  0
 17 18  1  0  0  0  0
 17 19  1  0  0  0  0
 19 20  1  0  0  0  0
 19 21  1  0  0  0  0
 19 22  1  0  0  0  0
 17 23  1  0  0  0  0
 23 24  1  0  0  0  0
 23 25  1  0  0  0  0
 23 26  1  0  0  0  0
M  END
> <VConfSearch Rank>
430

> <Conf_Id>
5

> <Delta U+W>
1.233

> <U+W>
-29.065

> <U>
25.023

> <W>
-54.088

> <W(PB)>
-56.383

> <W(SA)>
2.296

> <Valence>
4.083

> <Coulomb>
19.893

> <VdW>
1.047

> <VdW6>
-8.479

> <VdW12>
9.527

> <Bond>
0.256

> <Angle>
1.716

> <Pdih>
2.112

> <Idih>
0.000

> <Tether>
0.000

$$$$
VeraChem MOL file


 26 25  0  0  0  0  0  0  0  0999 V2000     
   18.6721   18.0336   26.2636 C   0  0  0  0  0  0  0  0  0  0  0  0
   17.9455   17.5728   26.9453 H   0  0  0  0  0  0  0  0  0  0  0  0
   19.4929   17.3190   26.1267 H   0  0  0  0  0  0  0  0  0  0  0  0
   19.0731   18.9288   26.7564 H   0  0  0  0  0  0  0  0  0  0  0  0
   17.9988   18.3931   24.9195 C   0  0  0  0  0  0  0  0  0  0  0  0
   17.1086   19.0041   25.1245 H   0  0  0  0  0  0  0  0  0  0  0  0
   17.6370   17.4782   24.4298 H   0  0  0  0  0  0  0  0  0  0  0  0
   18.9231   19.1743   23.9543 C   0  0  0  0  0  0  0  0  0  0  0  0
   18.3173   19.5019   23.0996 H   0  0  0  0  0  0  0  0  0  0  0  0
   19.2857   20.0849   24.4507 H   0  0  0  0  0  0  0  0  0  0  0  0
   20.1246   18.3416   23.4414 C   0  0  0  0  0  0  0  0  0  0  0  0
   19.7541   17.4478   22.9207 H   0  0  0  0  0  0  0  0  0  0  0  0
   20.7116   17.9794   24.2951 H   0  0  0  0  0  0  0  0  0  0  0  0
   21.0798   19.1227   22.5034 C   0  0  0  0  0  0  0  0  0  0  0  0
   21.5242   19.9708   23.0412 H   0  0  0  0  0  0  0  0  0  0  0  0
   21.9181   18.4566   22.2597 H   0  0  0  0  0  0  0  0  0  0  0  0
   20.4135   19.6028   21.1910 C   0  0  1  0  0  0  0  0  0  0  0  0
   19.4928   19.0292   21.0461 H   0  0  0  0  0  0  0  0  0  0  0  0
   20.0583   21.0997   21.2506 C   0  0  0  0  0  0  0  0  0  0  0  0
   20.9614   21.7163   21.3414 H   0  0  0  0  0  0  0  0  0  0  0  0
   19.4098   21.3255   22.1044 H   0  0  0  0  0  0  0  0  0  0  0  0
   19.5280   21.4074   20.3410 H   0  0  0  0  0  0  0  0  0  0  0  0
   21.2735   19.3242   19.9887 N   0  3  0  0  0  0  0  0  0  0  0  0
   21.4847   18.3260   19.8998 H   0  0  0  0  0  0  0  0  0  0  0  0
   20.8114   19.6154   19.1226 H   0  0  0  0  0  0  0  0  0  0  0  0
   22.1650   19.8242   20.0420 H   0  0  0  0  0  0  0  0  0  0  0  0
  1  2  1  0  0  0  0
  1  3  1  0  0  0  0
  1  4  1  0  0  0  0
  1  5  1  0  0  0  0
  5  6  1  0  0  0  0
  5  7  1  0  0  0  0
  5  8  1  0  0  0  0
  8  9  1  0  0  0  0
  8 10  1  0  0  0  0
  8 11  1  0  0  0  0
 11 12  1  0  0  0  0
 11 13  1  0  0  0  0
 11 14  1  0  0  0  0
 14 15  1  0  0  0  0
 14 16  1  0  0  0  0
 14 17  1  0  0  0  0
 17 18  1  0  0  0  0
 17 19  1  0  0  0  0
 19 20  1  0  0  0  0
 19 21  1  0  0  0  0
 19 22  1  0  0  0  0
 17 23  1  0  0  0  0
 23 24  1  0  0  0  0
 23 25  1  0  0  0  0
 23 26  1  0  0  0  0
M  END
> <VConfSearch Rank>
431

> <Conf_Id>
100

> <Delta U+W>
3.818

> <U+W>
-26.481

> <U>
27.496

> <W>
-53.977

> <W(PB)>
-56.267

> <W(SA)>
2.290

> <Valence>
6.472

> <Coulomb>
19.839

> <VdW>
1.185

> <VdW6>
-8.405

> <VdW12>
9.590

> <Bond>
0.248

> <Angle>
1.619

> <Pdih>
4.604

> <Idih>
0.000

> <Tether>
0.000

$$$$
VeraChem MOL file


 26 25  0  0  0  0  0  0  0  0999 V2000     
   16.4673   18.7708   24.5792 C   0  0  0  0  0  0  0  0  0  0  0  0
   15.9576   19.0508   25.5102 H   0  0  0  0  0  0  0  0  0  0  0  0
   16.1333   19.4593   23.7920 H   0  0  0  0  0  0  0  0  0  0  0  0
   16.1418   17.7579   24.3084 H   0  0  0  0  0  0  0  0  0  0  0  0
   17.9992   18.8323   24.7570 C   0  0  0  0  0  0  0  0  0  0  0  0
   18.2986   18.1601   25.5733 H   0  0  0  0  0  0  0  0  0  0  0  0
   18.2903   19.8479   25.0597 H   0  0  0  0  0  0  0  0  0  0  0  0
   18.7419   18.4418   23.4600 C   0  0  0  0  0  0  0  0  0  0  0  0
   18.4453   17.4262   23.1635 H   0  0  0  0  0  0  0  0  0  0  0  0
   18.4251   19.1090   22.6498 H   0  0  0  0  0  0  0  0  0  0  0  0
   20.2790   18.4968   23.6398 C   0  0  0  0  0  0  0  0  0  0  0  0
   20.5517   17.7977   24.4425 H   0  0  0  0  0  0  0  0  0  0  0  0
   20.5846   19.4909   23.9906 H   0  0  0  0  0  0  0  0  0  0  0  0
   21.0681   18.1002   22.3606 C   0  0  0  0  0  0  0  0  0  0  0  0
   21.9698   17.5543   22.6678 H   0  0  0  0  0  0  0  0  0  0  0  0
   20.4845   17.3827   21.7688 H   0  0  0  0  0  0  0  0  0  0  0  0
   21.5217   19.2686   21.4502 C   0  0  1  0  0  0  0  0  0  0  0  0
   22.0474   18.8258   20.5985 H   0  0  0  0  0  0  0  0  0  0  0  0
   20.3450   20.0849   20.8917 C   0  0  0  0  0  0  0  0  0  0  0  0
   19.8447   20.6596   21.6801 H   0  0  0  0  0  0  0  0  0  0  0  0
   19.6065   19.4292   20.4142 H   0  0  0  0  0  0  0  0  0  0  0  0
   20.6977   20.7954   20.1341 H   0  0  0  0  0  0  0  0  0  0  0  0
   22.5205   20.1656   22.1292 N   0  3  0  0  0  0  0  0  0  0  0  0
   23.3360   19.6400   22.4565 H   0  0  0  0  0  0  0  0  0  0  0  0
   22.8612   20.8935   21.4947 H   0  0  0  0  0  0  0  0  0  0  0  0
   22.1101   20.6337   22.9407 H   0  0  0  0  0  0  0  0  0  0  0  0
  1  2  1  0  0  0  0
  1  3  1  0  0  0  0
  1  4  1  0  0  0  0
  1  5  1  0  0  0  0
  5  6  1  0  0  0  0
  5  7  1  0  0  0  0
  5  8  1  0  0  0  0
  8  9  1  0  0  0  0
  8 10  1  0  0  0  0
  8 11  1  0  0  0  0
 11 12  1  0  0  0  0
 11 13  1  0  0  0  0
 11 14  1  0  0  0  0
 14 15  1  0  0  0  0
 14 16  1  0  0  0  0
 14 17  1  0  0  0  0
 17 18  1  0  0  0  0
 17 19  1  0  0  0  0
 19 20  1  0  0  0  0
 19 21  1  0  0  0  0
 19 22  1  0  0  0  0
 17 23  1  0  0  0  0
 23 24  1  0  0  0  0
 23 25  1  0  0  0  0
 23 26  1  0  0  0  0
M  END
> <VConfSearch Rank>
432

> <Conf_Id>
142

> <Delta U+W>
2.978

> <U+W>
-27.320

> <U>
26.848

> <W>
-54.168

> <W(PB)>
-56.427

> <W(SA)>
2.259

> <Valence>
5.823

> <Coulomb>
20.057

> <VdW>
0.968

> <VdW6>
-8.367

> <VdW12>
9.335

> <Bond>
0.267

> <Angle>
1.799

> <Pdih>
3.758

> <Idih>
0.000

> <Tether>
0.000

$$$$
VeraChem MOL file


 26 25  0  0  0  0  0  0  0  0999 V2000     
   20.1488   15.6257   23.1329 C   0  0  0  0  0  0  0  0  0  0  0  0
   19.3640   15.4264   22.3917 H   0  0  0  0  0  0  0  0  0  0  0  0
   20.7792   14.7298   23.2024 H   0  0  0  0  0  0  0  0  0  0  0  0
   19.6713   15.7673   24.1101 H   0  0  0  0  0  0  0  0  0  0  0  0
   20.9974   16.8527   22.7280 C   0  0  0  0  0  0  0  0  0  0  0  0
   21.5543   16.6068   21.8130 H   0  0  0  0  0  0  0  0  0  0  0  0
   21.7517   17.0538   23.5015 H   0  0  0  0  0  0  0  0  0  0  0  0
   20.1587   18.1277   22.4683 C   0  0  0  0  0  0  0  0  0  0  0  0
   20.8295   18.8819   22.0408 H   0  0  0  0  0  0  0  0  0  0  0  0
   19.3928   17.9139   21.7101 H   0  0  0  0  0  0  0  0  0  0  0  0
   19.4928   18.6984   23.7458 C   0  0  0  0  0  0  0  0  0  0  0  0
   20.2670   18.9704   24.4755 H   0  0  0  0  0  0  0  0  0  0  0  0
   18.8986   17.9100   24.2245 H   0  0  0  0  0  0  0  0  0  0  0  0
   18.5432   19.9052   23.5002 C   0  0  0  0  0  0  0  0  0  0  0  0
   17.7070   19.5848   22.8651 H   0  0  0  0  0  0  0  0  0  0  0  0
   18.0896   20.1720   24.4639 H   0  0  0  0  0  0  0  0  0  0  0  0
   19.1613   21.1963   22.9049 C   0  0  1  0  0  0  0  0  0  0  0  0
   18.4144   21.9870   23.0267 H   0  0  0  0  0  0  0  0  0  0  0  0
   20.4275   21.6441   23.6556 C   0  0  0  0  0  0  0  0  0  0  0  0
   21.2574   20.9436   23.5042 H   0  0  0  0  0  0  0  0  0  0  0  0
   20.2338   21.7209   24.7327 H   0  0  0  0  0  0  0  0  0  0  0  0
   20.7533   22.6310   23.3049 H   0  0  0  0  0  0  0  0  0  0  0  0
   19.4033   21.1089   21.4229 N   0  3  0  0  0  0  0  0  0  0  0  0
   18.5432   20.8816   20.9159 H   0  0  0  0  0  0  0  0  0  0  0  0
   19.7520   21.9960   21.0488 H   0  0  0  0  0  0  0  0  0  0  0  0
   20.0922   20.3882   21.1992 H   0  0  0  0  0  0  0  0  0  0  0  0
  1  2  1  0  0  0  0
  1  3  1  0  0  0  0
  1  4  1  0  0  0  0
  1  5  1  0  0  0  0
  5  6  1  0  0  0  0
  5  7  1  0  0  0  0
  5  8  1  0  0  0  0
  8  9  1  0  0  0  0
  8 10  1  0  0  0  0
  8 11  1  0  0  0  0
 11 12  1  0  0  0  0
 11 13  1  0  0  0  0
 11 14  1  0  0  0  0
 14 15  1  0  0  0  0
 14 16  1  0  0  0  0
 14 17  1  0  0  0  0
 17 18  1  0  0  0  0
 17 19  1  0  0  0  0
 19 20  1  0  0  0  0
 19 21  1  0  0  0  0
 19 22  1  0  0  0  0
 17 23  1  0  0  0  0
 23 24  1  0  0  0  0
 23 25  1  0  0  0  0
 23 26  1  0  0  0  0
M  END
> <VConfSearch Rank>
433

> <Conf_Id>
119

> <Delta U+W>
3.538

> <U+W>
-26.761

> <U>
27.482

> <W>
-54.243

> <W(PB)>
-56.494

> <W(SA)>
2.251

> <Valence>
5.284

> <Coulomb>
21.247

> <VdW>
0.951

> <VdW6>
-9.416

> <VdW12>
10.367

> <Bond>
0.323

> <Angle>
2.522

> <Pdih>
2.439

> <Idih>
0.000

> <Tether>
0.000

$$$$
VeraChem MOL file


 26 25  0  0  0  0  0  0  0  0999 V2000     
   17.9849   18.4218   25.8462 C   0  0  0  0  0  0  0  0  0  0  0  0
   17.4200   19.3514   25.9940 H   0  0  0  0  0  0  0  0  0  0  0  0
   17.4936   17.8424   25.0547 H   0  0  0  0  0  0  0  0  0  0  0  0
   17.9176   17.8372   26.7728 H   0  0  0  0  0  0  0  0  0  0  0  0
   19.4617   18.7180   25.4997 C   0  0  0  0  0  0  0  0  0  0  0  0
   19.9969   17.7739   25.3263 H   0  0  0  0  0  0  0  0  0  0  0  0
   19.9419   19.1877   26.3696 H   0  0  0  0  0  0  0  0  0  0  0  0
   19.6333   19.6490   24.2752 C   0  0  0  0  0  0  0  0  0  0  0  0
   19.1187   20.6007   24.4664 H   0  0  0  0  0  0  0  0  0  0  0  0
   20.6973   19.8942   24.1771 H   0  0  0  0  0  0  0  0  0  0  0  0
   19.1065   19.0316   22.9541 C   0  0  0  0  0  0  0  0  0  0  0  0
   18.0190   18.9069   23.0394 H   0  0  0  0  0  0  0  0  0  0  0  0
   19.5166   18.0228   22.8175 H   0  0  0  0  0  0  0  0  0  0  0  0
   19.3902   19.9129   21.7055 C   0  0  0  0  0  0  0  0  0  0  0  0
   18.5312   19.8351   21.0260 H   0  0  0  0  0  0  0  0  0  0  0  0
   19.4327   20.9707   21.9965 H   0  0  0  0  0  0  0  0  0  0  0  0
   20.6584   19.5512   20.8927 C   0  0  1  0  0  0  0  0  0  0  0  0
   20.7211   20.2613   20.0623 H   0  0  0  0  0  0  0  0  0  0  0  0
   21.9523   19.6841   21.7121 C   0  0  0  0  0  0  0  0  0  0  0  0
   22.0083   18.9247   22.5011 H   0  0  0  0  0  0  0  0  0  0  0  0
   22.0200   20.6758   22.1761 H   0  0  0  0  0  0  0  0  0  0  0  0
   22.8296   19.5595   21.0657 H   0  0  0  0  0  0  0  0  0  0  0  0
   20.5618   18.1885   20.2626 N   0  3  0  0  0  0  0  0  0  0  0  0
   19.7312   18.1069   19.6695 H   0  0  0  0  0  0  0  0  0  0  0  0
   21.3768   17.9894   19.6756 H   0  0  0  0  0  0  0  0  0  0  0  0
   20.5073   17.4532   20.9714 H   0  0  0  0  0  0  0  0  0  0  0  0
  1  2  1  0  0  0  0
  1  3  1  0  0  0  0
  1  4  1  0  0  0  0
  1  5  1  0  0  0  0
  5  6  1  0  0  0  0
  5  7  1  0  0  0  0
  5  8  1  0  0  0  0
  8  9  1  0  0  0  0
  8 10  1  0  0  0  0
  8 11  1  0  0  0  0
 11 12  1  0  0  0  0
 11 13  1  0  0  0  0
 11 14  1  0  0  0  0
 14 15  1  0  0  0  0
 14 16  1  0  0  0  0
 14 17  1  0  0  0  0
 17 18  1  0  0  0  0
 17 19  1  0  0  0  0
 19 20  1  0  0  0  0
 19 21  1  0  0  0  0
 19 22  1  0  0  0  0
 17 23  1  0  0  0  0
 23 24  1  0  0  0  0
 23 25  1  0  0  0  0
 23 26  1  0  0  0  0
M  END
> <VConfSearch Rank>
434

> <Conf_Id>
127

> <Delta U+W>
3.544

> <U+W>
-26.754

> <U>
27.509

> <W>
-54.263

> <W(PB)>
-56.496

> <W(SA)>
2.232

> <Valence>
6.375

> <Coulomb>
20.014

> <VdW>
1.120

> <VdW6>
-8.976

> <VdW12>
10.096

> <Bond>
0.304

> <Angle>
1.986

> <Pdih>
4.086

> <Idih>
0.000

> <Tether>
0.000

$$$$
VeraChem MOL file


 26 25  0  0  0  0  0  0  0  0999 V2000     
   20.5300   21.6766   24.8449 C   0  0  0  0  0  0  0  0  0  0  0  0
   21.3937   22.3270   25.0345 H   0  0  0  0  0  0  0  0  0  0  0  0
   19.7302   21.9766   25.5343 H   0  0  0  0  0  0  0  0  0  0  0  0
   20.8246   20.6519   25.0966 H   0  0  0  0  0  0  0  0  0  0  0  0
   20.0679   21.8061   23.3747 C   0  0  0  0  0  0  0  0  0  0  0  0
   20.8973   21.5763   22.6915 H   0  0  0  0  0  0  0  0  0  0  0  0
   19.8102   22.8589   23.1928 H   0  0  0  0  0  0  0  0  0  0  0  0
   18.8332   20.9305   23.0387 C   0  0  0  0  0  0  0  0  0  0  0  0
   18.2145   20.7853   23.9351 H   0  0  0  0  0  0  0  0  0  0  0  0
   18.2022   21.4872   22.3321 H   0  0  0  0  0  0  0  0  0  0  0  0
   19.1618   19.5608   22.3901 C   0  0  0  0  0  0  0  0  0  0  0  0
   19.6874   19.7315   21.4412 H   0  0  0  0  0  0  0  0  0  0  0  0
   18.2108   19.0776   22.1326 H   0  0  0  0  0  0  0  0  0  0  0  0
   20.0000   18.6162   23.2923 C   0  0  0  0  0  0  0  0  0  0  0  0
   20.9863   19.0637   23.4638 H   0  0  0  0  0  0  0  0  0  0  0  0
   19.5228   18.5325   24.2775 H   0  0  0  0  0  0  0  0  0  0  0  0
   20.2204   17.1951   22.7214 C   0  0  1  0  0  0  0  0  0  0  0  0
   20.8846   16.6679   23.4133 H   0  0  0  0  0  0  0  0  0  0  0  0
   18.9102   16.3922   22.6379 C   0  0  0  0  0  0  0  0  0  0  0  0
   18.3921   16.3891   23.6049 H   0  0  0  0  0  0  0  0  0  0  0  0
   19.1172   15.3491   22.3691 H   0  0  0  0  0  0  0  0  0  0  0  0
   18.2283   16.8018   21.8836 H   0  0  0  0  0  0  0  0  0  0  0  0
   20.9288   17.2119   21.3948 N   0  3  0  0  0  0  0  0  0  0  0  0
   21.8252   17.7032   21.4538 H   0  0  0  0  0  0  0  0  0  0  0  0
   21.1213   16.2632   21.0613 H   0  0  0  0  0  0  0  0  0  0  0  0
   20.3667   17.6804   20.6800 H   0  0  0  0  0  0  0  0  0  0  0  0
  1  2  1  0  0  0  0
  1  3  1  0  0  0  0
  1  4  1  0  0  0  0
  1  5  1  0  0  0  0
  5  6  1  0  0  0  0
  5  7  1  0  0  0  0
  5  8  1  0  0  0  0
  8  9  1  0  0  0  0
  8 10  1  0  0  0  0
  8 11  1  0  0  0  0
 11 12  1  0  0  0  0
 11 13  1  0  0  0  0
 11 14  1  0  0  0  0
 14 15  1  0  0  0  0
 14 16  1  0  0  0  0
 14 17  1  0  0  0  0
 17 18  1  0  0  0  0
 17 19  1  0  0  0  0
 19 20  1  0  0  0  0
 19 21  1  0  0  0  0
 19 22  1  0  0  0  0
 17 23  1  0  0  0  0
 23 24  1  0  0  0  0
 23 25  1  0  0  0  0
 23 26  1  0  0  0  0
M  END
> <VConfSearch Rank>
435

> <Conf_Id>
131

> <Delta U+W>
3.589

> <U+W>
-26.710

> <U>
27.573

> <W>
-54.283

> <W(PB)>
-56.537

> <W(SA)>
2.254

> <Valence>
6.363

> <Coulomb>
20.026

> <VdW>
1.184

> <VdW6>
-8.939

> <VdW12>
10.123

> <Bond>
0.298

> <Angle>
2.018

> <Pdih>
4.047

> <Idih>
0.000

> <Tether>
0.000

$$$$
VeraChem MOL file


 26 25  0  0  0  0  0  0  0  0999 V2000     
   20.4678   16.6148   24.1668 C   0  0  0  0  0  0  0  0  0  0  0  0
   20.9981   16.4139   23.2270 H   0  0  0  0  0  0  0  0  0  0  0  0
   20.7496   17.6134   24.5224 H   0  0  0  0  0  0  0  0  0  0  0  0
   20.8201   15.8907   24.9127 H   0  0  0  0  0  0  0  0  0  0  0  0
   18.9394   16.4968   23.9810 C   0  0  0  0  0  0  0  0  0  0  0  0
   18.4363   16.7744   24.9178 H   0  0  0  0  0  0  0  0  0  0  0  0
   18.6868   15.4424   23.8015 H   0  0  0  0  0  0  0  0  0  0  0  0
   18.3693   17.3434   22.8143 C   0  0  0  0  0  0  0  0  0  0  0  0
   18.7844   16.9958   21.8584 H   0  0  0  0  0  0  0  0  0  0  0  0
   17.2904   17.1426   22.7578 H   0  0  0  0  0  0  0  0  0  0  0  0
   18.5678   18.8745   22.9654 C   0  0  0  0  0  0  0  0  0  0  0  0
   18.5813   19.1382   24.0307 H   0  0  0  0  0  0  0  0  0  0  0  0
   17.6924   19.3817   22.5366 H   0  0  0  0  0  0  0  0  0  0  0  0
   19.8335   19.4059   22.2420 C   0  0  0  0  0  0  0  0  0  0  0  0
   20.7377   18.9428   22.6522 H   0  0  0  0  0  0  0  0  0  0  0  0
   19.7832   19.1000   21.1888 H   0  0  0  0  0  0  0  0  0  0  0  0
   19.9770   20.9440   22.2951 C   0  0  1  0  0  0  0  0  0  0  0  0
   19.0454   21.3889   21.9320 H   0  0  0  0  0  0  0  0  0  0  0  0
   20.2362   21.4518   23.7250 C   0  0  0  0  0  0  0  0  0  0  0  0
   21.1299   20.9839   24.1565 H   0  0  0  0  0  0  0  0  0  0  0  0
   19.3863   21.2417   24.3842 H   0  0  0  0  0  0  0  0  0  0  0  0
   20.3867   22.5384   23.7276 H   0  0  0  0  0  0  0  0  0  0  0  0
   21.0627   21.4203   21.3702 N   0  3  0  0  0  0  0  0  0  0  0  0
   21.9766   21.0488   21.6426 H   0  0  0  0  0  0  0  0  0  0  0  0
   20.8886   21.1310   20.4034 H   0  0  0  0  0  0  0  0  0  0  0  0
   21.1351   22.4416   21.3732 H   0  0  0  0  0  0  0  0  0  0  0  0
  1  2  1  0  0  0  0
  1  3  1  0  0  0  0
  1  4  1  0  0  0  0
  1  5  1  0  0  0  0
  5  6  1  0  0  0  0
  5  7  1  0  0  0  0
  5  8  1  0  0  0  0
  8  9  1  0  0  0  0
  8 10  1  0  0  0  0
  8 11  1  0  0  0  0
 11 12  1  0  0  0  0
 11 13  1  0  0  0  0
 11 14  1  0  0  0  0
 14 15  1  0  0  0  0
 14 16  1  0  0  0  0
 14 17  1  0  0  0  0
 17 18  1  0  0  0  0
 17 19  1  0  0  0  0
 19 20  1  0  0  0  0
 19 21  1  0  0  0  0
 19 22  1  0  0  0  0
 17 23  1  0  0  0  0
 23 24  1  0  0  0  0
 23 25  1  0  0  0  0
 23 26  1  0  0  0  0
M  END
> <VConfSearch Rank>
436

> <Conf_Id>
80

> <Delta U+W>
3.351

> <U+W>
-26.948

> <U>
27.261

> <W>
-54.209

> <W(PB)>
-56.471

> <W(SA)>
2.263

> <Valence>
6.230

> <Coulomb>
19.945

> <VdW>
1.087

> <VdW6>
-8.618

> <VdW12>
9.704

> <Bond>
0.277

> <Angle>
1.928

> <Pdih>
4.025

> <Idih>
0.000

> <Tether>
0.000

$$$$
VeraChem MOL file


 26 25  0  0  0  0  0  0  0  0999 V2000     
   17.8828   21.7412   22.8767 C   0  0  0  0  0  0  0  0  0  0  0  0
   17.2757   22.2402   22.1103 H   0  0  0  0  0  0  0  0  0  0  0  0
   17.5728   22.1283   23.8560 H   0  0  0  0  0  0  0  0  0  0  0  0
   18.9282   22.0280   22.7071 H   0  0  0  0  0  0  0  0  0  0  0  0
   17.6977   20.2089   22.8007 C   0  0  0  0  0  0  0  0  0  0  0  0
   18.0392   19.8432   21.8238 H   0  0  0  0  0  0  0  0  0  0  0  0
   16.6233   19.9818   22.8429 H   0  0  0  0  0  0  0  0  0  0  0  0
   18.4058   19.4389   23.9458 C   0  0  0  0  0  0  0  0  0  0  0  0
   17.9274   19.7157   24.8954 H   0  0  0  0  0  0  0  0  0  0  0  0
   18.2071   18.3684   23.8209 H   0  0  0  0  0  0  0  0  0  0  0  0
   19.9344   19.6894   24.0830 C   0  0  0  0  0  0  0  0  0  0  0  0
   20.3113   19.1581   24.9678 H   0  0  0  0  0  0  0  0  0  0  0  0
   20.0919   20.7533   24.3036 H   0  0  0  0  0  0  0  0  0  0  0  0
   20.7976   19.3072   22.8479 C   0  0  0  0  0  0  0  0  0  0  0  0
   20.2415   19.4573   21.9159 H   0  0  0  0  0  0  0  0  0  0  0  0
   21.6363   20.0145   22.8036 H   0  0  0  0  0  0  0  0  0  0  0  0
   21.4028   17.8829   22.8815 C   0  0  1  0  0  0  0  0  0  0  0  0
   22.0048   17.7896   23.7906 H   0  0  0  0  0  0  0  0  0  0  0  0
   20.3351   16.7766   22.8987 C   0  0  0  0  0  0  0  0  0  0  0  0
   19.7903   16.7741   23.8492 H   0  0  0  0  0  0  0  0  0  0  0  0
   20.7992   15.7882   22.7941 H   0  0  0  0  0  0  0  0  0  0  0  0
   19.6154   16.9042   22.0806 H   0  0  0  0  0  0  0  0  0  0  0  0
   22.3463   17.6743   21.7293 N   0  3  0  0  0  0  0  0  0  0  0  0
   23.0960   18.3718   21.7241 H   0  0  0  0  0  0  0  0  0  0  0  0
   22.7895   16.7522   21.7712 H   0  0  0  0  0  0  0  0  0  0  0  0
   21.8599   17.7385   20.8311 H   0  0  0  0  0  0  0  0  0  0  0  0
  1  2  1  0  0  0  0
  1  3  1  0  0  0  0
  1  4  1  0  0  0  0
  1  5  1  0  0  0  0
  5  6  1  0  0  0  0
  5  7  1  0  0  0  0
  5  8  1  0  0  0  0
  8  9  1  0  0  0  0
  8 10  1  0  0  0  0
  8 11  1  0  0  0  0
 11 12  1  0  0  0  0
 11 13  1  0  0  0  0
 11 14  1  0  0  0  0
 14 15  1  0  0  0  0
 14 16  1  0  0  0  0
 14 17  1  0  0  0  0
 17 18  1  0  0  0  0
 17 19  1  0  0  0  0
 19 20  1  0  0  0  0
 19 21  1  0  0  0  0
 19 22  1  0  0  0  0
 17 23  1  0  0  0  0
 23 24  1  0  0  0  0
 23 25  1  0  0  0  0
 23 26  1  0  0  0  0
M  END
> <VConfSearch Rank>
437

> <Conf_Id>
136

> <Delta U+W>
4.272

> <U+W>
-26.026

> <U>
28.262

> <W>
-54.288

> <W(PB)>
-56.488

> <W(SA)>
2.200

> <Valence>
7.096

> <Coulomb>
19.990

> <VdW>
1.175

> <VdW6>
-9.404

> <VdW12>
10.580

> <Bond>
0.360

> <Angle>
2.785

> <Pdih>
3.951

> <Idih>
0.000

> <Tether>
0.000

$$$$
VeraChem MOL file


 26 25  0  0  0  0  0  0  0  0999 V2000     
   20.0323   18.3385   20.1499 C   0  0  0  0  0  0  0  0  0  0  0  0
   19.8988   17.6440   20.9885 H   0  0  0  0  0  0  0  0  0  0  0  0
   19.9615   17.7522   19.2247 H   0  0  0  0  0  0  0  0  0  0  0  0
   21.0437   18.7616   20.2025 H   0  0  0  0  0  0  0  0  0  0  0  0
   18.9613   19.4509   20.1666 C   0  0  0  0  0  0  0  0  0  0  0  0
   17.9617   18.9941   20.1697 H   0  0  0  0  0  0  0  0  0  0  0  0
   19.0317   20.0215   19.2299 H   0  0  0  0  0  0  0  0  0  0  0  0
   19.0843   20.4390   21.3546 C   0  0  0  0  0  0  0  0  0  0  0  0
   20.0414   20.9761   21.3021 H   0  0  0  0  0  0  0  0  0  0  0  0
   18.3076   21.2060   21.2277 H   0  0  0  0  0  0  0  0  0  0  0  0
   18.9036   19.7949   22.7539 C   0  0  0  0  0  0  0  0  0  0  0  0
   18.2548   18.9111   22.6795 H   0  0  0  0  0  0  0  0  0  0  0  0
   18.3712   20.5117   23.3932 H   0  0  0  0  0  0  0  0  0  0  0  0
   20.2460   19.4238   23.4363 C   0  0  0  0  0  0  0  0  0  0  0  0
   20.8397   18.7920   22.7662 H   0  0  0  0  0  0  0  0  0  0  0  0
   20.8370   20.3339   23.6043 H   0  0  0  0  0  0  0  0  0  0  0  0
   20.0533   18.6782   24.7746 C   0  0  1  0  0  0  0  0  0  0  0  0
   19.4420   17.7901   24.5868 H   0  0  0  0  0  0  0  0  0  0  0  0
   21.4107   18.2199   25.3315 C   0  0  0  0  0  0  0  0  0  0  0  0
   22.0645   19.0764   25.5389 H   0  0  0  0  0  0  0  0  0  0  0  0
   21.9238   17.5636   24.6176 H   0  0  0  0  0  0  0  0  0  0  0  0
   21.2781   17.6575   26.2640 H   0  0  0  0  0  0  0  0  0  0  0  0
   19.3163   19.5034   25.7940 N   0  3  0  0  0  0  0  0  0  0  0  0
   19.8281   20.3598   26.0218 H   0  0  0  0  0  0  0  0  0  0  0  0
   18.3908   19.7781   25.4544 H   0  0  0  0  0  0  0  0  0  0  0  0
   19.1806   18.9860   26.6671 H   0  0  0  0  0  0  0  0  0  0  0  0
  1  2  1  0  0  0  0
  1  3  1  0  0  0  0
  1  4  1  0  0  0  0
  1  5  1  0  0  0  0
  5  6  1  0  0  0  0
  5  7  1  0  0  0  0
  5  8  1  0  0  0  0
  8  9  1  0  0  0  0
  8 10  1  0  0  0  0
  8 11  1  0  0  0  0
 11 12  1  0  0  0  0
 11 13  1  0  0  0  0
 11 14  1  0  0  0  0
 14 15  1  0  0  0  0
 14 16  1  0  0  0  0
 14 17  1  0  0  0  0
 17 18  1  0  0  0  0
 17 19  1  0  0  0  0
 19 20  1  0  0  0  0
 19 21  1  0  0  0  0
 19 22  1  0  0  0  0
 17 23  1  0  0  0  0
 23 24  1  0  0  0  0
 23 25  1  0  0  0  0
 23 26  1  0  0  0  0
M  END
> <VConfSearch Rank>
438

> <Conf_Id>
124

> <Delta U+W>
3.001

> <U+W>
-27.298

> <U>
26.787

> <W>
-54.085

> <W(PB)>
-56.347

> <W(SA)>
2.262

> <Valence>
5.742

> <Coulomb>
20.023

> <VdW>
1.022

> <VdW6>
-8.392

> <VdW12>
9.414

> <Bond>
0.261

> <Angle>
1.576

> <Pdih>
3.904

> <Idih>
0.000

> <Tether>
0.000

$$$$
VeraChem MOL file


 26 25  0  0  0  0  0  0  0  0999 V2000     
   20.1559   16.3227   21.5550 C   0  0  0  0  0  0  0  0  0  0  0  0
   20.9369   16.2910   20.7842 H   0  0  0  0  0  0  0  0  0  0  0  0
   19.6656   15.3407   21.5721 H   0  0  0  0  0  0  0  0  0  0  0  0
   19.4077   17.0610   21.2467 H   0  0  0  0  0  0  0  0  0  0  0  0
   20.7610   16.6487   22.9404 C   0  0  0  0  0  0  0  0  0  0  0  0
   21.4750   15.8521   23.1928 H   0  0  0  0  0  0  0  0  0  0  0  0
   19.9827   16.6129   23.7154 H   0  0  0  0  0  0  0  0  0  0  0  0
   21.5043   18.0087   22.9846 C   0  0  0  0  0  0  0  0  0  0  0  0
   22.3677   17.9035   23.6561 H   0  0  0  0  0  0  0  0  0  0  0  0
   21.9253   18.2446   21.9976 H   0  0  0  0  0  0  0  0  0  0  0  0
   20.6554   19.1989   23.5017 C   0  0  0  0  0  0  0  0  0  0  0  0
   21.3102   20.0775   23.5660 H   0  0  0  0  0  0  0  0  0  0  0  0
   20.3284   18.9833   24.5276 H   0  0  0  0  0  0  0  0  0  0  0  0
   19.4249   19.5328   22.6173 C   0  0  0  0  0  0  0  0  0  0  0  0
   19.7394   19.5995   21.5677 H   0  0  0  0  0  0  0  0  0  0  0  0
   18.7038   18.7080   22.6727 H   0  0  0  0  0  0  0  0  0  0  0  0
   18.6894   20.8405   22.9943 C   0  0  1  0  0  0  0  0  0  0  0  0
   17.8492   20.9518   22.3018 H   0  0  0  0  0  0  0  0  0  0  0  0
   18.1140   20.7886   24.4204 C   0  0  0  0  0  0  0  0  0  0  0  0
   18.9076   20.7676   25.1769 H   0  0  0  0  0  0  0  0  0  0  0  0
   17.4863   19.8990   24.5554 H   0  0  0  0  0  0  0  0  0  0  0  0
   17.4891   21.6690   24.6144 H   0  0  0  0  0  0  0  0  0  0  0  0
   19.5489   22.0601   22.8035 N   0  3  0  0  0  0  0  0  0  0  0  0
   19.0267   22.9196   22.9958 H   0  0  0  0  0  0  0  0  0  0  0  0
   20.3581   22.0468   23.4290 H   0  0  0  0  0  0  0  0  0  0  0  0
   19.9014   22.1248   21.8444 H   0  0  0  0  0  0  0  0  0  0  0  0
  1  2  1  0  0  0  0
  1  3  1  0  0  0  0
  1  4  1  0  0  0  0
  1  5  1  0  0  0  0
  5  6  1  0  0  0  0
  5  7  1  0  0  0  0
  5  8  1  0  0  0  0
  8  9  1  0  0  0  0
  8 10  1  0  0  0  0
  8 11  1  0  0  0  0
 11 12  1  0  0  0  0
 11 13  1  0  0  0  0
 11 14  1  0  0  0  0
 14 15  1  0  0  0  0
 14 16  1  0  0  0  0
 14 17  1  0  0  0  0
 17 18  1  0  0  0  0
 17 19  1  0  0  0  0
 19 20  1  0  0  0  0
 19 21  1  0  0  0  0
 19 22  1  0  0  0  0
 17 23  1  0  0  0  0
 23 24  1  0  0  0  0
 23 25  1  0  0  0  0
 23 26  1  0  0  0  0
M  END
> <VConfSearch Rank>
439

> <Conf_Id>
105

> <Delta U+W>
3.442

> <U+W>
-26.857

> <U>
27.313

> <W>
-54.169

> <W(PB)>
-56.414

> <W(SA)>
2.245

> <Valence>
6.229

> <Coulomb>
19.943

> <VdW>
1.140

> <VdW6>
-9.001

> <VdW12>
10.140

> <Bond>
0.294

> <Angle>
1.969

> <Pdih>
3.967

> <Idih>
0.000

> <Tether>
0.000

$$$$
VeraChem MOL file


 26 25  0  0  0  0  0  0  0  0999 V2000     
   21.8583   17.4623   24.5306 C   0  0  0  0  0  0  0  0  0  0  0  0
   22.0601   17.7719   25.5643 H   0  0  0  0  0  0  0  0  0  0  0  0
   22.5942   16.6925   24.2645 H   0  0  0  0  0  0  0  0  0  0  0  0
   22.0329   18.3259   23.8797 H   0  0  0  0  0  0  0  0  0  0  0  0
   20.4215   16.9072   24.3913 C   0  0  0  0  0  0  0  0  0  0  0  0
   20.3350   16.0273   25.0442 H   0  0  0  0  0  0  0  0  0  0  0  0
   20.2504   16.5424   23.3689 H   0  0  0  0  0  0  0  0  0  0  0  0
   19.3237   17.9266   24.7910 C   0  0  0  0  0  0  0  0  0  0  0  0
   18.4985   17.3727   25.2597 H   0  0  0  0  0  0  0  0  0  0  0  0
   19.7008   18.6068   25.5671 H   0  0  0  0  0  0  0  0  0  0  0  0
   18.7283   18.7384   23.6118 C   0  0  0  0  0  0  0  0  0  0  0  0
   17.9152   19.3657   24.0029 H   0  0  0  0  0  0  0  0  0  0  0  0
   18.2656   18.0445   22.8973 H   0  0  0  0  0  0  0  0  0  0  0  0
   19.7515   19.6417   22.8801 C   0  0  0  0  0  0  0  0  0  0  0  0
   20.3087   20.2252   23.6250 H   0  0  0  0  0  0  0  0  0  0  0  0
   20.4817   19.0210   22.3461 H   0  0  0  0  0  0  0  0  0  0  0  0
   19.0866   20.6131   21.8812 C   0  0  1  0  0  0  0  0  0  0  0  0
   18.3495   21.2122   22.4247 H   0  0  0  0  0  0  0  0  0  0  0  0
   20.1350   21.5646   21.2827 C   0  0  0  0  0  0  0  0  0  0  0  0
   20.8994   21.0117   20.7225 H   0  0  0  0  0  0  0  0  0  0  0  0
   20.6375   22.1372   22.0722 H   0  0  0  0  0  0  0  0  0  0  0  0
   19.6633   22.2823   20.6003 H   0  0  0  0  0  0  0  0  0  0  0  0
   18.3406   19.8945   20.7901 N   0  3  0  0  0  0  0  0  0  0  0  0
   17.6102   19.2887   21.1734 H   0  0  0  0  0  0  0  0  0  0  0  0
   17.8875   20.5531   20.1503 H   0  0  0  0  0  0  0  0  0  0  0  0
   18.9674   19.3080   20.2330 H   0  0  0  0  0  0  0  0  0  0  0  0
  1  2  1  0  0  0  0
  1  3  1  0  0  0  0
  1  4  1  0  0  0  0
  1  5  1  0  0  0  0
  5  6  1  0  0  0  0
  5  7  1  0  0  0  0
  5  8  1  0  0  0  0
  8  9  1  0  0  0  0
  8 10  1  0  0  0  0
  8 11  1  0  0  0  0
 11 12  1  0  0  0  0
 11 13  1  0  0  0  0
 11 14  1  0  0  0  0
 14 15  1  0  0  0  0
 14 16  1  0  0  0  0
 14 17  1  0  0  0  0
 17 18  1  0  0  0  0
 17 19  1  0  0  0  0
 19 20  1  0  0  0  0
 19 21  1  0  0  0  0
 19 22  1  0  0  0  0
 17 23  1  0  0  0  0
 23 24  1  0  0  0  0
 23 25  1  0  0  0  0
 23 26  1  0  0  0  0
M  END
> <VConfSearch Rank>
440

> <Conf_Id>
107

> <Delta U+W>
2.995

> <U+W>
-27.304

> <U>
26.796

> <W>
-54.100

> <W(PB)>
-56.404

> <W(SA)>
2.304

> <Valence>
5.706

> <Coulomb>
20.107

> <VdW>
0.982

> <VdW6>
-8.396

> <VdW12>
9.378

> <Bond>
0.254

> <Angle>
1.644

> <Pdih>
3.808

> <Idih>
0.000

> <Tether>
0.000

$$$$
VeraChem MOL file


 26 25  0  0  0  0  0  0  0  0999 V2000     
   20.8027   15.2940   24.3556 C   0  0  0  0  0  0  0  0  0  0  0  0
   19.9515   14.7572   23.9166 H   0  0  0  0  0  0  0  0  0  0  0  0
   21.6688   14.6197   24.3432 H   0  0  0  0  0  0  0  0  0  0  0  0
   20.5633   15.5157   25.4038 H   0  0  0  0  0  0  0  0  0  0  0  0
   21.1076   16.5873   23.5705 C   0  0  0  0  0  0  0  0  0  0  0  0
   21.3763   16.3310   22.5361 H   0  0  0  0  0  0  0  0  0  0  0  0
   21.9834   17.0835   24.0119 H   0  0  0  0  0  0  0  0  0  0  0  0
   19.9034   17.5549   23.5723 C   0  0  0  0  0  0  0  0  0  0  0  0
   19.0302   17.0527   23.1334 H   0  0  0  0  0  0  0  0  0  0  0  0
   19.6376   17.8068   24.6084 H   0  0  0  0  0  0  0  0  0  0  0  0
   20.2047   18.8512   22.7864 C   0  0  0  0  0  0  0  0  0  0  0  0
   20.4669   18.5980   21.7496 H   0  0  0  0  0  0  0  0  0  0  0  0
   21.0820   19.3430   23.2270 H   0  0  0  0  0  0  0  0  0  0  0  0
   18.9966   19.8193   22.7912 C   0  0  0  0  0  0  0  0  0  0  0  0
   18.1174   19.2914   22.3980 H   0  0  0  0  0  0  0  0  0  0  0  0
   18.7543   20.1060   23.8232 H   0  0  0  0  0  0  0  0  0  0  0  0
   19.2363   21.0868   21.9425 C   0  0  1  0  0  0  0  0  0  0  0  0
   19.4988   20.7748   20.9269 H   0  0  0  0  0  0  0  0  0  0  0  0
   17.9547   21.9325   21.8712 C   0  0  0  0  0  0  0  0  0  0  0  0
   17.6481   22.2737   22.8680 H   0  0  0  0  0  0  0  0  0  0  0  0
   17.1289   21.3534   21.4394 H   0  0  0  0  0  0  0  0  0  0  0  0
   18.1071   22.8161   21.2393 H   0  0  0  0  0  0  0  0  0  0  0  0
   20.3856   21.9131   22.4524 N   0  3  0  0  0  0  0  0  0  0  0  0
   20.2147   22.2421   23.4063 H   0  0  0  0  0  0  0  0  0  0  0  0
   21.2569   21.3763   22.4625 H   0  0  0  0  0  0  0  0  0  0  0  0
   20.5417   22.7384   21.8669 H   0  0  0  0  0  0  0  0  0  0  0  0
  1  2  1  0  0  0  0
  1  3  1  0  0  0  0
  1  4  1  0  0  0  0
  1  5  1  0  0  0  0
  5  6  1  0  0  0  0
  5  7  1  0  0  0  0
  5  8  1  0  0  0  0
  8  9  1  0  0  0  0
  8 10  1  0  0  0  0
  8 11  1  0  0  0  0
 11 12  1  0  0  0  0
 11 13  1  0  0  0  0
 11 14  1  0  0  0  0
 14 15  1  0  0  0  0
 14 16  1  0  0  0  0
 14 17  1  0  0  0  0
 17 18  1  0  0  0  0
 17 19  1  0  0  0  0
 19 20  1  0  0  0  0
 19 21  1  0  0  0  0
 19 22  1  0  0  0  0
 17 23  1  0  0  0  0
 23 24  1  0  0  0  0
 23 25  1  0  0  0  0
 23 26  1  0  0  0  0
M  END
> <VConfSearch Rank>
441

> <Conf_Id>
122

> <Delta U+W>
0.000

> <U+W>
-30.299

> <U>
23.517

> <W>
-53.816

> <W(PB)>
-56.162

> <W(SA)>
2.346

> <Valence>
2.737

> <Coulomb>
19.862

> <VdW>
0.919

> <VdW6>
-6.793

> <VdW12>
7.712

> <Bond>
0.171

> <Angle>
0.873

> <Pdih>
1.693

> <Idih>
0.000

> <Tether>
0.000

$$$$
VeraChem MOL file


 26 25  0  0  0  0  0  0  0  0999 V2000     
   22.9169   20.5744   20.5117 C   0  0  0  0  0  0  0  0  0  0  0  0
   23.3003   20.4035   19.4974 H   0  0  0  0  0  0  0  0  0  0  0  0
   22.6898   21.6439   20.6104 H   0  0  0  0  0  0  0  0  0  0  0  0
   23.7181   20.3281   21.2207 H   0  0  0  0  0  0  0  0  0  0  0  0
   21.6620   19.7144   20.7721 C   0  0  0  0  0  0  0  0  0  0  0  0
   21.9122   18.6533   20.6327 H   0  0  0  0  0  0  0  0  0  0  0  0
   20.8917   19.9589   20.0273 H   0  0  0  0  0  0  0  0  0  0  0  0
   21.1015   19.9361   22.1944 C   0  0  0  0  0  0  0  0  0  0  0  0
   21.8756   19.6922   22.9352 H   0  0  0  0  0  0  0  0  0  0  0  0
   20.8564   20.9987   22.3291 H   0  0  0  0  0  0  0  0  0  0  0  0
   19.8443   19.0767   22.4588 C   0  0  0  0  0  0  0  0  0  0  0  0
   20.0985   18.0186   22.3131 H   0  0  0  0  0  0  0  0  0  0  0  0
   19.0691   19.3246   21.7205 H   0  0  0  0  0  0  0  0  0  0  0  0
   19.2875   19.2978   23.8868 C   0  0  0  0  0  0  0  0  0  0  0  0
   20.0364   18.9893   24.6283 H   0  0  0  0  0  0  0  0  0  0  0  0
   19.1267   20.3737   24.0362 H   0  0  0  0  0  0  0  0  0  0  0  0
   17.9547   18.5626   24.1569 C   0  0  1  0  0  0  0  0  0  0  0  0
   17.2390   18.8540   23.3819 H   0  0  0  0  0  0  0  0  0  0  0  0
   18.1176   17.0324   24.1189 C   0  0  0  0  0  0  0  0  0  0  0  0
   18.8752   16.6959   24.8376 H   0  0  0  0  0  0  0  0  0  0  0  0
   18.4121   16.6869   23.1213 H   0  0  0  0  0  0  0  0  0  0  0  0
   17.1706   16.5369   24.3664 H   0  0  0  0  0  0  0  0  0  0  0  0
   17.3561   18.9895   25.4685 N   0  3  0  0  0  0  0  0  0  0  0  0
   17.9663   18.7497   26.2544 H   0  0  0  0  0  0  0  0  0  0  0  0
   17.1973   20.0006   25.4997 H   0  0  0  0  0  0  0  0  0  0  0  0
   16.4534   18.5350   25.6334 H   0  0  0  0  0  0  0  0  0  0  0  0
  1  2  1  0  0  0  0
  1  3  1  0  0  0  0
  1  4  1  0  0  0  0
  1  5  1  0  0  0  0
  5  6  1  0  0  0  0
  5  7  1  0  0  0  0
  5  8  1  0  0  0  0
  8  9  1  0  0  0  0
  8 10  1  0  0  0  0
  8 11  1  0  0  0  0
 11 12  1  0  0  0  0
 11 13  1  0  0  0  0
 11 14  1  0  0  0  0
 14 15  1  0  0  0  0
 14 16  1  0  0  0  0
 14 17  1  0  0  0  0
 17 18  1  0  0  0  0
 17 19  1  0  0  0  0
 19 20  1  0  0  0  0
 19 21  1  0  0  0  0
 19 22  1  0  0  0  0
 17 23  1  0  0  0  0
 23 24  1  0  0  0  0
 23 25  1  0  0  0  0
 23 26  1  0  0  0  0
M  END
> <VConfSearch Rank>
442

> <Conf_Id>
54

> <Delta U+W>
0.453

> <U+W>
-29.845

> <U>
23.817

> <W>
-53.663

> <W(PB)>
-56.021

> <W(SA)>
2.358

> <Valence>
3.277

> <Coulomb>
19.492

> <VdW>
1.049

> <VdW6>
-6.949

> <VdW12>
7.998

> <Bond>
0.183

> <Angle>
1.152

> <Pdih>
1.942

> <Idih>
0.000

> <Tether>
0.000

$$$$
VeraChem MOL file


 26 25  0  0  0  0  0  0  0  0999 V2000     
   20.6740   20.0963   26.3793 C   0  0  0  0  0  0  0  0  0  0  0  0
   21.4868   19.3589   26.4051 H   0  0  0  0  0  0  0  0  0  0  0  0
   21.0403   20.9944   25.8674 H   0  0  0  0  0  0  0  0  0  0  0  0
   20.4455   20.3791   27.4150 H   0  0  0  0  0  0  0  0  0  0  0  0
   19.4183   19.5160   25.6890 C   0  0  0  0  0  0  0  0  0  0  0  0
   18.6315   20.2820   25.6443 H   0  0  0  0  0  0  0  0  0  0  0  0
   19.0203   18.7034   26.3128 H   0  0  0  0  0  0  0  0  0  0  0  0
   19.6921   18.9605   24.2701 C   0  0  0  0  0  0  0  0  0  0  0  0
   20.5003   18.2176   24.3181 H   0  0  0  0  0  0  0  0  0  0  0  0
   18.7884   18.4319   23.9444 H   0  0  0  0  0  0  0  0  0  0  0  0
   20.0428   20.0594   23.2353 C   0  0  0  0  0  0  0  0  0  0  0  0
   20.8675   20.6716   23.6212 H   0  0  0  0  0  0  0  0  0  0  0  0
   19.1872   20.7390   23.1206 H   0  0  0  0  0  0  0  0  0  0  0  0
   20.4708   19.5293   21.8411 C   0  0  0  0  0  0  0  0  0  0  0  0
   20.7857   20.3998   21.2501 H   0  0  0  0  0  0  0  0  0  0  0  0
   21.3618   18.8944   21.9346 H   0  0  0  0  0  0  0  0  0  0  0  0
   19.3657   18.7768   21.0621 C   0  0  1  0  0  0  0  0  0  0  0  0
   18.4109   19.2792   21.2449 H   0  0  0  0  0  0  0  0  0  0  0  0
   19.6504   18.8203   19.5514 C   0  0  0  0  0  0  0  0  0  0  0  0
   18.8622   18.3012   18.9922 H   0  0  0  0  0  0  0  0  0  0  0  0
   20.6094   18.3426   19.3145 H   0  0  0  0  0  0  0  0  0  0  0  0
   19.6852   19.8555   19.1897 H   0  0  0  0  0  0  0  0  0  0  0  0
   19.2090   17.3476   21.5057 N   0  3  0  0  0  0  0  0  0  0  0  0
   19.0099   17.2848   22.5064 H   0  0  0  0  0  0  0  0  0  0  0  0
   18.4432   16.8839   21.0086 H   0  0  0  0  0  0  0  0  0  0  0  0
   20.0599   16.8079   21.3269 H   0  0  0  0  0  0  0  0  0  0  0  0
  1  2  1  0  0  0  0
  1  3  1  0  0  0  0
  1  4  1  0  0  0  0
  1  5  1  0  0  0  0
  5  6  1  0  0  0  0
  5  7  1  0  0  0  0
  5  8  1  0  0  0  0
  8  9  1  0  0  0  0
  8 10  1  0  0  0  0
  8 11  1  0  0  0  0
 11 12  1  0  0  0  0
 11 13  1  0  0  0  0
 11 14  1  0  0  0  0
 14 15  1  0  0  0  0
 14 16  1  0  0  0  0
 14 17  1  0  0  0  0
 17 18  1  0  0  0  0
 17 19  1  0  0  0  0
 19 20  1  0  0  0  0
 19 21  1  0  0  0  0
 19 22  1  0  0  0  0
 17 23  1  0  0  0  0
 23 24  1  0  0  0  0
 23 25  1  0  0  0  0
 23 26  1  0  0  0  0
M  END
> <VConfSearch Rank>
443

> <Conf_Id>
110

> <Delta U+W>
3.764

> <U+W>
-26.535

> <U>
27.400

> <W>
-53.935

> <W(PB)>
-56.238

> <W(SA)>
2.303

> <Valence>
5.205

> <Coulomb>
21.096

> <VdW>
1.098

> <VdW6>
-8.389

> <VdW12>
9.488

> <Bond>
0.270

> <Angle>
1.912

> <Pdih>
3.023

> <Idih>
0.000

> <Tether>
0.000

$$$$
VeraChem MOL file


 26 25  0  0  0  0  0  0  0  0999 V2000     
   19.3720   20.5237   26.3378 C   0  0  0  0  0  0  0  0  0  0  0  0
   19.7128   20.5935   27.3789 H   0  0  0  0  0  0  0  0  0  0  0  0
   19.8132   21.3653   25.7895 H   0  0  0  0  0  0  0  0  0  0  0  0
   18.2808   20.6435   26.3331 H   0  0  0  0  0  0  0  0  0  0  0  0
   19.7849   19.1669   25.7235 C   0  0  0  0  0  0  0  0  0  0  0  0
   19.4226   18.3587   26.3741 H   0  0  0  0  0  0  0  0  0  0  0  0
   20.8807   19.0847   25.7126 H   0  0  0  0  0  0  0  0  0  0  0  0
   19.2297   18.9423   24.2963 C   0  0  0  0  0  0  0  0  0  0  0  0
   19.4734   17.9183   23.9888 H   0  0  0  0  0  0  0  0  0  0  0  0
   18.1326   18.9984   24.3192 H   0  0  0  0  0  0  0  0  0  0  0  0
   19.7774   19.9540   23.2568 C   0  0  0  0  0  0  0  0  0  0  0  0
   20.8731   20.0106   23.3153 H   0  0  0  0  0  0  0  0  0  0  0  0
   19.4072   20.9547   23.5165 H   0  0  0  0  0  0  0  0  0  0  0  0
   19.3370   19.6389   21.8025 C   0  0  0  0  0  0  0  0  0  0  0  0
   18.3843   19.0928   21.8024 H   0  0  0  0  0  0  0  0  0  0  0  0
   19.1338   20.5938   21.2998 H   0  0  0  0  0  0  0  0  0  0  0  0
   20.3884   18.8820   20.9553 C   0  0  1  0  0  0  0  0  0  0  0  0
   21.3063   19.4777   20.9418 H   0  0  0  0  0  0  0  0  0  0  0  0
   20.7269   17.4936   21.5238 C   0  0  0  0  0  0  0  0  0  0  0  0
   19.8248   16.8799   21.6383 H   0  0  0  0  0  0  0  0  0  0  0  0
   21.2186   17.5772   22.4999 H   0  0  0  0  0  0  0  0  0  0  0  0
   21.4185   16.9616   20.8591 H   0  0  0  0  0  0  0  0  0  0  0  0
   19.9427   18.7625   19.5241 N   0  3  0  0  0  0  0  0  0  0  0  0
   19.7584   19.6799   19.1083 H   0  0  0  0  0  0  0  0  0  0  0  0
   20.6546   18.3050   18.9477 H   0  0  0  0  0  0  0  0  0  0  0  0
   19.0845   18.2107   19.4443 H   0  0  0  0  0  0  0  0  0  0  0  0
  1  2  1  0  0  0  0
  1  3  1  0  0  0  0
  1  4  1  0  0  0  0
  1  5  1  0  0  0  0
  5  6  1  0  0  0  0
  5  7  1  0  0  0  0
  5  8  1  0  0  0  0
  8  9  1  0  0  0  0
  8 10  1  0  0  0  0
  8 11  1  0  0  0  0
 11 12  1  0  0  0  0
 11 13  1  0  0  0  0
 11 14  1  0  0  0  0
 14 15  1  0  0  0  0
 14 16  1  0  0  0  0
 14 17  1  0  0  0  0
 17 18  1  0  0  0  0
 17 19  1  0  0  0  0
 19 20  1  0  0  0  0
 19 21  1  0  0  0  0
 19 22  1  0  0  0  0
 17 23  1  0  0  0  0
 23 24  1  0  0  0  0
 23 25  1  0  0  0  0
 23 26  1  0  0  0  0
M  END
> <VConfSearch Rank>
444

> <Conf_Id>
34

> <Delta U+W>
3.568

> <U+W>
-26.731

> <U>
27.221

> <W>
-53.952

> <W(PB)>
-56.213

> <W(SA)>
2.261

> <Valence>
6.368

> <Coulomb>
19.698

> <VdW>
1.155

> <VdW6>
-8.532

> <VdW12>
9.687

> <Bond>
0.272

> <Angle>
1.847

> <Pdih>
4.248

> <Idih>
0.000

> <Tether>
0.000

$$$$
VeraChem MOL file


 26 25  0  0  0  0  0  0  0  0999 V2000     
   20.0004   16.3246   25.9138 C   0  0  0  0  0  0  0  0  0  0  0  0
   20.6772   15.6082   25.4302 H   0  0  0  0  0  0  0  0  0  0  0  0
   20.5822   16.9093   26.6382 H   0  0  0  0  0  0  0  0  0  0  0  0
   19.2464   15.7528   26.4703 H   0  0  0  0  0  0  0  0  0  0  0  0
   19.3280   17.2432   24.8716 C   0  0  0  0  0  0  0  0  0  0  0  0
   18.6326   17.9247   25.3813 H   0  0  0  0  0  0  0  0  0  0  0  0
   18.7268   16.6335   24.1825 H   0  0  0  0  0  0  0  0  0  0  0  0
   20.3683   18.0601   24.0735 C   0  0  0  0  0  0  0  0  0  0  0  0
   20.9681   18.6655   24.7671 H   0  0  0  0  0  0  0  0  0  0  0  0
   21.0625   17.3744   23.5682 H   0  0  0  0  0  0  0  0  0  0  0  0
   19.6990   18.9812   23.0284 C   0  0  0  0  0  0  0  0  0  0  0  0
   19.0058   19.6619   23.5399 H   0  0  0  0  0  0  0  0  0  0  0  0
   19.0989   18.3675   22.3438 H   0  0  0  0  0  0  0  0  0  0  0  0
   20.7489   19.7961   22.2288 C   0  0  0  0  0  0  0  0  0  0  0  0
   21.3729   20.3660   22.9297 H   0  0  0  0  0  0  0  0  0  0  0  0
   21.4287   19.1049   21.7131 H   0  0  0  0  0  0  0  0  0  0  0  0
   20.1584   20.7792   21.1904 C   0  0  1  0  0  0  0  0  0  0  0  0
   20.9988   21.3043   20.7258 H   0  0  0  0  0  0  0  0  0  0  0  0
   19.3917   20.0497   20.0733 C   0  0  0  0  0  0  0  0  0  0  0  0
   18.4768   19.5775   20.4504 H   0  0  0  0  0  0  0  0  0  0  0  0
   20.0162   19.2730   19.6147 H   0  0  0  0  0  0  0  0  0  0  0  0
   19.1036   20.7539   19.2832 H   0  0  0  0  0  0  0  0  0  0  0  0
   19.3038   21.8413   21.8258 N   0  3  0  0  0  0  0  0  0  0  0  0
   18.9732   22.5193   21.1334 H   0  0  0  0  0  0  0  0  0  0  0  0
   18.4795   21.4355   22.2755 H   0  0  0  0  0  0  0  0  0  0  0  0
   19.8206   22.3616   22.5404 H   0  0  0  0  0  0  0  0  0  0  0  0
  1  2  1  0  0  0  0
  1  3  1  0  0  0  0
  1  4  1  0  0  0  0
  1  5  1  0  0  0  0
  5  6  1  0  0  0  0
  5  7  1  0  0  0  0
  5  8  1  0  0  0  0
  8  9  1  0  0  0  0
  8 10  1  0  0  0  0
  8 11  1  0  0  0  0
 11 12  1  0  0  0  0
 11 13  1  0  0  0  0
 11 14  1  0  0  0  0
 14 15  1  0  0  0  0
 14 16  1  0  0  0  0
 14 17  1  0  0  0  0
 17 18  1  0  0  0  0
 17 19  1  0  0  0  0
 19 20  1  0  0  0  0
 19 21  1  0  0  0  0
 19 22  1  0  0  0  0
 17 23  1  0  0  0  0
 23 24  1  0  0  0  0
 23 25  1  0  0  0  0
 23 26  1  0  0  0  0
M  END
> <VConfSearch Rank>
445

> <Conf_Id>
132

> <Delta U+W>
0.363

> <U+W>
-29.936

> <U>
24.060

> <W>
-53.996

> <W(PB)>
-56.327

> <W(SA)>
2.332

> <Valence>
3.249

> <Coulomb>
19.781

> <VdW>
1.030

> <VdW6>
-7.421

> <VdW12>
8.451

> <Bond>
0.207

> <Angle>
1.205

> <Pdih>
1.837

> <Idih>
0.000

> <Tether>
0.000

$$$$
VeraChem MOL file


 26 25  0  0  0  0  0  0  0  0999 V2000     
   18.1246   16.2928   20.8266 C   0  0  0  0  0  0  0  0  0  0  0  0
   17.0507   16.0663   20.8494 H   0  0  0  0  0  0  0  0  0  0  0  0
   18.4180   16.4273   19.7773 H   0  0  0  0  0  0  0  0  0  0  0  0
   18.6614   15.4210   21.2228 H   0  0  0  0  0  0  0  0  0  0  0  0
   18.4325   17.5575   21.6562 C   0  0  0  0  0  0  0  0  0  0  0  0
   18.0874   17.3991   22.6863 H   0  0  0  0  0  0  0  0  0  0  0  0
   17.8595   18.4047   21.2542 H   0  0  0  0  0  0  0  0  0  0  0  0
   19.9425   17.8940   21.6424 C   0  0  0  0  0  0  0  0  0  0  0  0
   20.5104   17.0695   22.0950 H   0  0  0  0  0  0  0  0  0  0  0  0
   20.2814   17.9645   20.5995 H   0  0  0  0  0  0  0  0  0  0  0  0
   20.2909   19.2211   22.3606 C   0  0  0  0  0  0  0  0  0  0  0  0
   19.7250   20.0407   21.8983 H   0  0  0  0  0  0  0  0  0  0  0  0
   21.3518   19.4345   22.1775 H   0  0  0  0  0  0  0  0  0  0  0  0
   20.0248   19.1825   23.8906 C   0  0  0  0  0  0  0  0  0  0  0  0
   18.9590   19.0008   24.0744 H   0  0  0  0  0  0  0  0  0  0  0  0
   20.5582   18.3298   24.3311 H   0  0  0  0  0  0  0  0  0  0  0  0
   20.4251   20.4677   24.6533 C   0  0  1  0  0  0  0  0  0  0  0  0
   20.1348   20.3273   25.6992 H   0  0  0  0  0  0  0  0  0  0  0  0
   21.9441   20.7122   24.6239 C   0  0  0  0  0  0  0  0  0  0  0  0
   22.2965   20.9640   23.6168 H   0  0  0  0  0  0  0  0  0  0  0  0
   22.4890   19.8242   24.9676 H   0  0  0  0  0  0  0  0  0  0  0  0
   22.2110   21.5431   25.2884 H   0  0  0  0  0  0  0  0  0  0  0  0
   19.6744   21.6787   24.1716 N   0  3  0  0  0  0  0  0  0  0  0  0
   18.6615   21.5415   24.2321 H   0  0  0  0  0  0  0  0  0  0  0  0
   19.9045   22.5072   24.7275 H   0  0  0  0  0  0  0  0  0  0  0  0
   19.8991   21.8914   23.1966 H   0  0  0  0  0  0  0  0  0  0  0  0
  1  2  1  0  0  0  0
  1  3  1  0  0  0  0
  1  4  1  0  0  0  0
  1  5  1  0  0  0  0
  5  6  1  0  0  0  0
  5  7  1  0  0  0  0
  5  8  1  0  0  0  0
  8  9  1  0  0  0  0
  8 10  1  0  0  0  0
  8 11  1  0  0  0  0
 11 12  1  0  0  0  0
 11 13  1  0  0  0  0
 11 14  1  0  0  0  0
 14 15  1  0  0  0  0
 14 16  1  0  0  0  0
 14 17  1  0  0  0  0
 17 18  1  0  0  0  0
 17 19  1  0  0  0  0
 19 20  1  0  0  0  0
 19 21  1  0  0  0  0
 19 22  1  0  0  0  0
 17 23  1  0  0  0  0
 23 24  1  0  0  0  0
 23 25  1  0  0  0  0
 23 26  1  0  0  0  0
M  END
> <VConfSearch Rank>
446

> <Conf_Id>
46

> <Delta U+W>
1.114

> <U+W>
-29.185

> <U>
24.990

> <W>
-54.175

> <W(PB)>
-56.455

> <W(SA)>
2.279

> <Valence>
3.862

> <Coulomb>
19.956

> <VdW>
1.172

> <VdW6>
-8.054

> <VdW12>
9.226

> <Bond>
0.258

> <Angle>
1.499

> <Pdih>
2.106

> <Idih>
0.000

> <Tether>
0.000

$$$$
VeraChem MOL file


 26 25  0  0  0  0  0  0  0  0999 V2000     
   21.2890   21.8416   20.9532 C   0  0  0  0  0  0  0  0  0  0  0  0
   20.2725   22.2242   21.1072 H   0  0  0  0  0  0  0  0  0  0  0  0
   21.9333   22.2470   21.7441 H   0  0  0  0  0  0  0  0  0  0  0  0
   21.6472   22.2364   19.9936 H   0  0  0  0  0  0  0  0  0  0  0  0
   21.3209   20.2963   20.9474 C   0  0  0  0  0  0  0  0  0  0  0  0
   22.3298   19.9656   20.6636 H   0  0  0  0  0  0  0  0  0  0  0  0
   20.6432   19.9153   20.1708 H   0  0  0  0  0  0  0  0  0  0  0  0
   20.9594   19.6659   22.3142 C   0  0  0  0  0  0  0  0  0  0  0  0
   21.1354   18.5844   22.2465 H   0  0  0  0  0  0  0  0  0  0  0  0
   21.6462   20.0434   23.0843 H   0  0  0  0  0  0  0  0  0  0  0  0
   19.4945   19.9296   22.7462 C   0  0  0  0  0  0  0  0  0  0  0  0
   18.8071   19.5793   21.9649 H   0  0  0  0  0  0  0  0  0  0  0  0
   19.3281   21.0110   22.8345 H   0  0  0  0  0  0  0  0  0  0  0  0
   19.1313   19.2777   24.1054 C   0  0  0  0  0  0  0  0  0  0  0  0
   19.7718   19.7094   24.8860 H   0  0  0  0  0  0  0  0  0  0  0  0
   18.1011   19.5519   24.3686 H   0  0  0  0  0  0  0  0  0  0  0  0
   19.2715   17.7389   24.1331 C   0  0  1  0  0  0  0  0  0  0  0  0
   20.3078   17.4821   23.8948 H   0  0  0  0  0  0  0  0  0  0  0  0
   18.9566   17.1987   25.5371 C   0  0  0  0  0  0  0  0  0  0  0  0
   19.0930   16.1109   25.5742 H   0  0  0  0  0  0  0  0  0  0  0  0
   17.9224   17.4235   25.8266 H   0  0  0  0  0  0  0  0  0  0  0  0
   19.6251   17.6436   26.2847 H   0  0  0  0  0  0  0  0  0  0  0  0
   18.4100   17.0652   23.1004 N   0  3  0  0  0  0  0  0  0  0  0  0
   18.6386   17.3897   22.1570 H   0  0  0  0  0  0  0  0  0  0  0  0
   18.5331   16.0489   23.1145 H   0  0  0  0  0  0  0  0  0  0  0  0
   17.4175   17.2562   23.2606 H   0  0  0  0  0  0  0  0  0  0  0  0
  1  2  1  0  0  0  0
  1  3  1  0  0  0  0
  1  4  1  0  0  0  0
  1  5  1  0  0  0  0
  5  6  1  0  0  0  0
  5  7  1  0  0  0  0
  5  8  1  0  0  0  0
  8  9  1  0  0  0  0
  8 10  1  0  0  0  0
  8 11  1  0  0  0  0
 11 12  1  0  0  0  0
 11 13  1  0  0  0  0
 11 14  1  0  0  0  0
 14 15  1  0  0  0  0
 14 16  1  0  0  0  0
 14 17  1  0  0  0  0
 17 18  1  0  0  0  0
 17 19  1  0  0  0  0
 19 20  1  0  0  0  0
 19 21  1  0  0  0  0
 19 22  1  0  0  0  0
 17 23  1  0  0  0  0
 23 24  1  0  0  0  0
 23 25  1  0  0  0  0
 23 26  1  0  0  0  0
M  END
> <VConfSearch Rank>
447

> <Conf_Id>
113

> <Delta U+W>
1.137

> <U+W>
-29.162

> <U>
24.833

> <W>
-53.995

> <W(PB)>
-56.288

> <W(SA)>
2.294

> <Valence>
3.589

> <Coulomb>
20.270

> <VdW>
0.974

> <VdW6>
-8.255

> <VdW12>
9.229

> <Bond>
0.244

> <Angle>
1.377

> <Pdih>
1.967

> <Idih>
0.000

> <Tether>
0.000

$$$$
VeraChem MOL file


 26 25  0  0  0  0  0  0  0  0999 V2000     
   21.3329   16.7383   20.2179 C   0  0  0  0  0  0  0  0  0  0  0  0
   22.3158   16.8708   19.7474 H   0  0  0  0  0  0  0  0  0  0  0  0
   21.3613   15.8093   20.8023 H   0  0  0  0  0  0  0  0  0  0  0  0
   20.5906   16.6166   19.4182 H   0  0  0  0  0  0  0  0  0  0  0  0
   20.9904   17.9470   21.1145 C   0  0  0  0  0  0  0  0  0  0  0  0
   20.9984   18.8637   20.5084 H   0  0  0  0  0  0  0  0  0  0  0  0
   21.7753   18.0600   21.8740 H   0  0  0  0  0  0  0  0  0  0  0  0
   19.6099   17.7806   21.7926 C   0  0  0  0  0  0  0  0  0  0  0  0
   18.8537   17.5883   21.0189 H   0  0  0  0  0  0  0  0  0  0  0  0
   19.6198   16.8931   22.4402 H   0  0  0  0  0  0  0  0  0  0  0  0
   19.1685   19.0179   22.6126 C   0  0  0  0  0  0  0  0  0  0  0  0
   18.1369   18.8531   22.9500 H   0  0  0  0  0  0  0  0  0  0  0  0
   19.1428   19.8947   21.9522 H   0  0  0  0  0  0  0  0  0  0  0  0
   20.0777   19.2990   23.8401 C   0  0  0  0  0  0  0  0  0  0  0  0
   20.1801   18.3802   24.4323 H   0  0  0  0  0  0  0  0  0  0  0  0
   21.0888   19.5556   23.5002 H   0  0  0  0  0  0  0  0  0  0  0  0
   19.5795   20.4291   24.7718 C   0  0  1  0  0  0  0  0  0  0  0  0
   20.2995   20.5153   25.5915 H   0  0  0  0  0  0  0  0  0  0  0  0
   19.5272   21.7888   24.0533 C   0  0  0  0  0  0  0  0  0  0  0  0
   18.7559   21.8061   23.2741 H   0  0  0  0  0  0  0  0  0  0  0  0
   20.4928   22.0208   23.5871 H   0  0  0  0  0  0  0  0  0  0  0  0
   19.3011   22.5910   24.7664 H   0  0  0  0  0  0  0  0  0  0  0  0
   18.2573   20.1066   25.4124 N   0  3  0  0  0  0  0  0  0  0  0  0
   18.2957   19.2232   25.9289 H   0  0  0  0  0  0  0  0  0  0  0  0
   17.9745   20.8351   26.0739 H   0  0  0  0  0  0  0  0  0  0  0  0
   17.5155   20.0228   24.7132 H   0  0  0  0  0  0  0  0  0  0  0  0
  1  2  1  0  0  0  0
  1  3  1  0  0  0  0
  1  4  1  0  0  0  0
  1  5  1  0  0  0  0
  5  6  1  0  0  0  0
  5  7  1  0  0  0  0
  5  8  1  0  0  0  0
  8  9  1  0  0  0  0
  8 10  1  0  0  0  0
  8 11  1  0  0  0  0
 11 12  1  0  0  0  0
 11 13  1  0  0  0  0
 11 14  1  0  0  0  0
 14 15  1  0  0  0  0
 14 16  1  0  0  0  0
 14 17  1  0  0  0  0
 17 18  1  0  0  0  0
 17 19  1  0  0  0  0
 19 20  1  0  0  0  0
 19 21  1  0  0  0  0
 19 22  1  0  0  0  0
 17 23  1  0  0  0  0
 23 24  1  0  0  0  0
 23 25  1  0  0  0  0
 23 26  1  0  0  0  0
M  END
> <VConfSearch Rank>
448

> <Conf_Id>
45

> <Delta U+W>
1.035

> <U+W>
-29.264

> <U>
24.725

> <W>
-53.989

> <W(PB)>
-56.298

> <W(SA)>
2.309

> <Valence>
3.780

> <Coulomb>
19.804

> <VdW>
1.141

> <VdW6>
-8.104

> <VdW12>
9.246

> <Bond>
0.254

> <Angle>
1.437

> <Pdih>
2.089

> <Idih>
0.000

> <Tether>
0.000

$$$$
VeraChem MOL file


 26 25  0  0  0  0  0  0  0  0999 V2000     
   18.0888   16.7044   25.5877 C   0  0  0  0  0  0  0  0  0  0  0  0
   18.6157   15.8873   26.0975 H   0  0  0  0  0  0  0  0  0  0  0  0
   17.5177   17.2597   26.3432 H   0  0  0  0  0  0  0  0  0  0  0  0
   17.3772   16.2576   24.8811 H   0  0  0  0  0  0  0  0  0  0  0  0
   19.0890   17.6266   24.8586 C   0  0  0  0  0  0  0  0  0  0  0  0
   19.6679   17.0274   24.1436 H   0  0  0  0  0  0  0  0  0  0  0  0
   19.8045   18.0347   25.5862 H   0  0  0  0  0  0  0  0  0  0  0  0
   18.3682   18.7844   24.1282 C   0  0  0  0  0  0  0  0  0  0  0  0
   17.6946   18.3770   23.3617 H   0  0  0  0  0  0  0  0  0  0  0  0
   17.7296   19.3153   24.8478 H   0  0  0  0  0  0  0  0  0  0  0  0
   19.3324   19.8093   23.4812 C   0  0  0  0  0  0  0  0  0  0  0  0
   20.0040   20.2171   24.2494 H   0  0  0  0  0  0  0  0  0  0  0  0
   18.7333   20.6533   23.1149 H   0  0  0  0  0  0  0  0  0  0  0  0
   20.1681   19.2222   22.3145 C   0  0  0  0  0  0  0  0  0  0  0  0
   20.7831   18.3949   22.6892 H   0  0  0  0  0  0  0  0  0  0  0  0
   19.4987   18.7979   21.5544 H   0  0  0  0  0  0  0  0  0  0  0  0
   21.1024   20.2633   21.6597 C   0  0  1  0  0  0  0  0  0  0  0  0
   21.7335   20.6971   22.4415 H   0  0  0  0  0  0  0  0  0  0  0  0
   22.0147   19.5858   20.6244 C   0  0  0  0  0  0  0  0  0  0  0  0
   21.4287   19.1328   19.8149 H   0  0  0  0  0  0  0  0  0  0  0  0
   22.6176   18.7975   21.0921 H   0  0  0  0  0  0  0  0  0  0  0  0
   22.7055   20.3132   20.1806 H   0  0  0  0  0  0  0  0  0  0  0  0
   20.3479   21.4023   21.0297 N   0  3  0  0  0  0  0  0  0  0  0  0
   19.7710   21.8950   21.7165 H   0  0  0  0  0  0  0  0  0  0  0  0
   20.9845   22.0895   20.6163 H   0  0  0  0  0  0  0  0  0  0  0  0
   19.7276   21.0729   20.2853 H   0  0  0  0  0  0  0  0  0  0  0  0
  1  2  1  0  0  0  0
  1  3  1  0  0  0  0
  1  4  1  0  0  0  0
  1  5  1  0  0  0  0
  5  6  1  0  0  0  0
  5  7  1  0  0  0  0
  5  8  1  0  0  0  0
  8  9  1  0  0  0  0
  8 10  1  0  0  0  0
  8 11  1  0  0  0  0
 11 12  1  0  0  0  0
 11 13  1  0  0  0  0
 11 14  1  0  0  0  0
 14 15  1  0  0  0  0
 14 16  1  0  0  0  0
 14 17  1  0  0  0  0
 17 18  1  0  0  0  0
 17 19  1  0  0  0  0
 19 20  1  0  0  0  0
 19 21  1  0  0  0  0
 19 22  1  0  0  0  0
 17 23  1  0  0  0  0
 23 24  1  0  0  0  0
 23 25  1  0  0  0  0
 23 26  1  0  0  0  0
M  END
> <VConfSearch Rank>
449

> <Conf_Id>
121

> <Delta U+W>
0.736

> <U+W>
-29.562

> <U>
24.282

> <W>
-53.844

> <W(PB)>
-56.205

> <W(SA)>
2.361

> <Valence>
3.311

> <Coulomb>
19.887

> <VdW>
1.083

> <VdW6>
-7.444

> <VdW12>
8.527

> <Bond>
0.219

> <Angle>
1.167

> <Pdih>
1.926

> <Idih>
0.000

> <Tether>
0.000

$$$$
VeraChem MOL file


 26 25  0  0  0  0  0  0  0  0999 V2000     
   20.2922   21.9618   20.6301 C   0  0  0  0  0  0  0  0  0  0  0  0
   20.9010   22.7787   20.2216 H   0  0  0  0  0  0  0  0  0  0  0  0
   19.7328   21.5126   19.7992 H   0  0  0  0  0  0  0  0  0  0  0  0
   19.5730   22.4057   21.3294 H   0  0  0  0  0  0  0  0  0  0  0  0
   21.1907   20.9142   21.3260 C   0  0  0  0  0  0  0  0  0  0  0  0
   21.7130   21.3793   22.1738 H   0  0  0  0  0  0  0  0  0  0  0  0
   21.9718   20.5960   20.6214 H   0  0  0  0  0  0  0  0  0  0  0  0
   20.4195   19.6621   21.8090 C   0  0  0  0  0  0  0  0  0  0  0  0
   19.9062   19.1964   20.9564 H   0  0  0  0  0  0  0  0  0  0  0  0
   21.1537   18.9285   22.1671 H   0  0  0  0  0  0  0  0  0  0  0  0
   19.3970   19.9639   22.9339 C   0  0  0  0  0  0  0  0  0  0  0  0
   18.6545   20.6858   22.5700 H   0  0  0  0  0  0  0  0  0  0  0  0
   19.9037   20.4513   23.7772 H   0  0  0  0  0  0  0  0  0  0  0  0
   18.6372   18.7039   23.4241 C   0  0  0  0  0  0  0  0  0  0  0  0
   17.9153   19.0016   24.1962 H   0  0  0  0  0  0  0  0  0  0  0  0
   18.0433   18.3109   22.5883 H   0  0  0  0  0  0  0  0  0  0  0  0
   19.5304   17.5669   23.9747 C   0  0  1  0  0  0  0  0  0  0  0  0
   20.2357   17.2714   23.1925 H   0  0  0  0  0  0  0  0  0  0  0  0
   20.3324   18.0082   25.2120 C   0  0  0  0  0  0  0  0  0  0  0  0
   19.6685   18.3691   26.0073 H   0  0  0  0  0  0  0  0  0  0  0  0
   21.0383   18.8092   24.9633 H   0  0  0  0  0  0  0  0  0  0  0  0
   20.9186   17.1715   25.6114 H   0  0  0  0  0  0  0  0  0  0  0  0
   18.7161   16.3430   24.2903 N   0  3  0  0  0  0  0  0  0  0  0  0
   18.2065   16.0064   23.4684 H   0  0  0  0  0  0  0  0  0  0  0  0
   19.3076   15.5738   24.6173 H   0  0  0  0  0  0  0  0  0  0  0  0
   18.0271   16.5306   25.0235 H   0  0  0  0  0  0  0  0  0  0  0  0
  1  2  1  0  0  0  0
  1  3  1  0  0  0  0
  1  4  1  0  0  0  0
  1  5  1  0  0  0  0
  5  6  1  0  0  0  0
  5  7  1  0  0  0  0
  5  8  1  0  0  0  0
  8  9  1  0  0  0  0
  8 10  1  0  0  0  0
  8 11  1  0  0  0  0
 11 12  1  0  0  0  0
 11 13  1  0  0  0  0
 11 14  1  0  0  0  0
 14 15  1  0  0  0  0
 14 16  1  0  0  0  0
 14 17  1  0  0  0  0
 17 18  1  0  0  0  0
 17 19  1  0  0  0  0
 19 20  1  0  0  0  0
 19 21  1  0  0  0  0
 19 22  1  0  0  0  0
 17 23  1  0  0  0  0
 23 24  1  0  0  0  0
 23 25  1  0  0  0  0
 23 26  1  0  0  0  0
M  END
> <VConfSearch Rank>
450

> <Conf_Id>
5

> <Delta U+W>
1.233

> <U+W>
-29.065

> <U>
25.023

> <W>
-54.088

> <W(PB)>
-56.383

> <W(SA)>
2.296

> <Valence>
4.083

> <Coulomb>
19.893

> <VdW>
1.047

> <VdW6>
-8.479

> <VdW12>
9.527

> <Bond>
0.256

> <Angle>
1.716

> <Pdih>
2.112

> <Idih>
0.000

> <Tether>
0.000

$$$$
VeraChem MOL file


 26 25  0  0  0  0  0  0  0  0999 V2000     
   17.3690   16.7457   21.6472 C   0  0  0  0  0  0  0  0  0  0  0  0
   16.3485   16.3787   21.4778 H   0  0  0  0  0  0  0  0  0  0  0  0
   17.7430   17.1297   20.6902 H   0  0  0  0  0  0  0  0  0  0  0  0
   17.9891   15.8887   21.9406 H   0  0  0  0  0  0  0  0  0  0  0  0
   17.3756   17.8375   22.7414 C   0  0  0  0  0  0  0  0  0  0  0  0
   16.8745   17.4417   23.6359 H   0  0  0  0  0  0  0  0  0  0  0  0
   16.7776   18.6979   22.4100 H   0  0  0  0  0  0  0  0  0  0  0  0
   18.7963   18.3075   23.1375 C   0  0  0  0  0  0  0  0  0  0  0  0
   18.7012   18.9694   24.0080 H   0  0  0  0  0  0  0  0  0  0  0  0
   19.3909   17.4428   23.4629 H   0  0  0  0  0  0  0  0  0  0  0  0
   19.5371   19.0572   22.0022 C   0  0  0  0  0  0  0  0  0  0  0  0
   18.9510   19.9368   21.7020 H   0  0  0  0  0  0  0  0  0  0  0  0
   19.6001   18.4124   21.1164 H   0  0  0  0  0  0  0  0  0  0  0  0
   20.9754   19.5010   22.3720 C   0  0  0  0  0  0  0  0  0  0  0  0
   21.5956   18.6213   22.5905 H   0  0  0  0  0  0  0  0  0  0  0  0
   21.4181   19.9587   21.4774 H   0  0  0  0  0  0  0  0  0  0  0  0
   21.0365   20.5113   23.5435 C   0  0  1  0  0  0  0  0  0  0  0  0
   20.0410   20.9476   23.6701 H   0  0  0  0  0  0  0  0  0  0  0  0
   21.4471   19.8275   24.8604 C   0  0  0  0  0  0  0  0  0  0  0  0
   22.4646   19.4221   24.7942 H   0  0  0  0  0  0  0  0  0  0  0  0
   20.7721   19.0021   25.1124 H   0  0  0  0  0  0  0  0  0  0  0  0
   21.4209   20.5428   25.6916 H   0  0  0  0  0  0  0  0  0  0  0  0
   21.9621   21.6597   23.2482 N   0  3  0  0  0  0  0  0  0  0  0  0
   21.6814   22.1614   22.4007 H   0  0  0  0  0  0  0  0  0  0  0  0
   21.9717   22.3390   24.0144 H   0  0  0  0  0  0  0  0  0  0  0  0
   22.9247   21.3396   23.1122 H   0  0  0  0  0  0  0  0  0  0  0  0
  1  2  1  0  0  0  0
  1  3  1  0  0  0  0
  1  4  1  0  0  0  0
  1  5  1  0  0  0  0
  5  6  1  0  0  0  0
  5  7  1  0  0  0  0
  5  8  1  0  0  0  0
  8  9  1  0  0  0  0
  8 10  1  0  0  0  0
  8 11  1  0  0  0  0
 11 12  1  0  0  0  0
 11 13  1  0  0  0  0
 11 14  1  0  0  0  0
 14 15  1  0  0  0  0
 14 16  1  0  0  0  0
 14 17  1  0  0  0  0
 17 18  1  0  0  0  0
 17 19  1  0  0  0  0
 19 20  1  0  0  0  0
 19 21  1  0  0  0  0
 19 22  1  0  0  0  0
 17 23  1  0  0  0  0
 23 24  1  0  0  0  0
 23 25  1  0  0  0  0
 23 26  1  0  0  0  0
M  END
> <VConfSearch Rank>
451

> <Conf_Id>
100

> <Delta U+W>
3.818

> <U+W>
-26.481

> <U>
27.496

> <W>
-53.977

> <W(PB)>
-56.267

> <W(SA)>
2.290

> <Valence>
6.472

> <Coulomb>
19.839

> <VdW>
1.185

> <VdW6>
-8.405

> <VdW12>
9.590

> <Bond>
0.248

> <Angle>
1.619

> <Pdih>
4.604

> <Idih>
0.000

> <Tether>
0.000

$$$$
VeraChem MOL file


 26 25  0  0  0  0  0  0  0  0999 V2000     
   22.1617   16.5518   24.3185 C   0  0  0  0  0  0  0  0  0  0  0  0
   22.9091   15.8192   23.9872 H   0  0  0  0  0  0  0  0  0  0  0  0
   22.6976   17.4283   24.7057 H   0  0  0  0  0  0  0  0  0  0  0  0
   21.5950   16.1046   25.1456 H   0  0  0  0  0  0  0  0  0  0  0  0
   21.2279   16.9424   23.1534 C   0  0  0  0  0  0  0  0  0  0  0  0
   20.7331   16.0411   22.7651 H   0  0  0  0  0  0  0  0  0  0  0  0
   21.8266   17.3553   22.3294 H   0  0  0  0  0  0  0  0  0  0  0  0
   20.1649   17.9734   23.5931 C   0  0  0  0  0  0  0  0  0  0  0  0
   19.5713   17.5538   24.4171 H   0  0  0  0  0  0  0  0  0  0  0  0
   20.6690   18.8616   23.9916 H   0  0  0  0  0  0  0  0  0  0  0  0
   19.2233   18.3605   22.4262 C   0  0  0  0  0  0  0  0  0  0  0  0
   18.7240   17.4465   22.0758 H   0  0  0  0  0  0  0  0  0  0  0  0
   19.8078   18.7291   21.5734 H   0  0  0  0  0  0  0  0  0  0  0  0
   18.1291   19.3893   22.8267 C   0  0  0  0  0  0  0  0  0  0  0  0
   17.2099   19.1453   22.2781 H   0  0  0  0  0  0  0  0  0  0  0  0
   17.8723   19.2681   23.8873 H   0  0  0  0  0  0  0  0  0  0  0  0
   18.4562   20.8768   22.5439 C   0  0  1  0  0  0  0  0  0  0  0  0
   17.6000   21.4646   22.8894 H   0  0  0  0  0  0  0  0  0  0  0  0
   19.6945   21.3738   23.3073 C   0  0  0  0  0  0  0  0  0  0  0  0
   20.6136   20.9151   22.9241 H   0  0  0  0  0  0  0  0  0  0  0  0
   19.6104   21.1477   24.3774 H   0  0  0  0  0  0  0  0  0  0  0  0
   19.7966   22.4610   23.2044 H   0  0  0  0  0  0  0  0  0  0  0  0
   18.5847   21.1625   21.0725 N   0  3  0  0  0  0  0  0  0  0  0  0
   17.7418   20.8862   20.5611 H   0  0  0  0  0  0  0  0  0  0  0  0
   18.7349   22.1600   20.8971 H   0  0  0  0  0  0  0  0  0  0  0  0
   19.3733   20.6569   20.6620 H   0  0  0  0  0  0  0  0  0  0  0  0
  1  2  1  0  0  0  0
  1  3  1  0  0  0  0
  1  4  1  0  0  0  0
  1  5  1  0  0  0  0
  5  6  1  0  0  0  0
  5  7  1  0  0  0  0
  5  8  1  0  0  0  0
  8  9  1  0  0  0  0
  8 10  1  0  0  0  0
  8 11  1  0  0  0  0
 11 12  1  0  0  0  0
 11 13  1  0  0  0  0
 11 14  1  0  0  0  0
 14 15  1  0  0  0  0
 14 16  1  0  0  0  0
 14 17  1  0  0  0  0
 17 18  1  0  0  0  0
 17 19  1  0  0  0  0
 19 20  1  0  0  0  0
 19 21  1  0  0  0  0
 19 22  1  0  0  0  0
 17 23  1  0  0  0  0
 23 24  1  0  0  0  0
 23 25  1  0  0  0  0
 23 26  1  0  0  0  0
M  END
> <VConfSearch Rank>
452

> <Conf_Id>
142

> <Delta U+W>
2.978

> <U+W>
-27.320

> <U>
26.848

> <W>
-54.168

> <W(PB)>
-56.427

> <W(SA)>
2.259

> <Valence>
5.823

> <Coulomb>
20.057

> <VdW>
0.968

> <VdW6>
-8.367

> <VdW12>
9.335

> <Bond>
0.267

> <Angle>
1.799

> <Pdih>
3.758

> <Idih>
0.000

> <Tether>
0.000

$$$$
VeraChem MOL file


 26 25  0  0  0  0  0  0  0  0999 V2000     
   23.3022   18.7326   23.2076 C   0  0  0  0  0  0  0  0  0  0  0  0
   23.4236   19.5874   23.8855 H   0  0  0  0  0  0  0  0  0  0  0  0
   24.1841   18.0886   23.3193 H   0  0  0  0  0  0  0  0  0  0  0  0
   23.2987   19.1082   22.1771 H   0  0  0  0  0  0  0  0  0  0  0  0
   22.0132   17.9437   23.5328 C   0  0  0  0  0  0  0  0  0  0  0  0
   22.1261   17.4815   24.5235 H   0  0  0  0  0  0  0  0  0  0  0  0
   21.8949   17.1158   22.8198 H   0  0  0  0  0  0  0  0  0  0  0  0
   20.7360   18.8185   23.5384 C   0  0  0  0  0  0  0  0  0  0  0  0
   19.9172   18.2036   23.9295 H   0  0  0  0  0  0  0  0  0  0  0  0
   20.8692   19.6561   24.2368 H   0  0  0  0  0  0  0  0  0  0  0  0
   20.3503   19.3552   22.1369 C   0  0  0  0  0  0  0  0  0  0  0  0
   20.1557   18.5129   21.4598 H   0  0  0  0  0  0  0  0  0  0  0  0
   21.2077   19.8883   21.7074 H   0  0  0  0  0  0  0  0  0  0  0  0
   19.1453   20.3382   22.1263 C   0  0  0  0  0  0  0  0  0  0  0  0
   19.4016   21.2319   22.7101 H   0  0  0  0  0  0  0  0  0  0  0  0
   19.0155   20.6928   21.0953 H   0  0  0  0  0  0  0  0  0  0  0  0
   17.7739   19.7989   22.6077 C   0  0  1  0  0  0  0  0  0  0  0  0
   17.0237   20.5378   22.3094 H   0  0  0  0  0  0  0  0  0  0  0  0
   17.3957   18.4669   21.9367 C   0  0  0  0  0  0  0  0  0  0  0  0
   18.0507   17.6495   22.2610 H   0  0  0  0  0  0  0  0  0  0  0  0
   17.4625   18.5493   20.8448 H   0  0  0  0  0  0  0  0  0  0  0  0
   16.3644   18.1898   22.1871 H   0  0  0  0  0  0  0  0  0  0  0  0
   17.6645   19.7101   24.1053 N   0  3  0  0  0  0  0  0  0  0  0  0
   17.8455   20.6154   24.5482 H   0  0  0  0  0  0  0  0  0  0  0  0
   16.7285   19.4115   24.3940 H   0  0  0  0  0  0  0  0  0  0  0  0
   18.3336   19.0401   24.4892 H   0  0  0  0  0  0  0  0  0  0  0  0
  1  2  1  0  0  0  0
  1  3  1  0  0  0  0
  1  4  1  0  0  0  0
  1  5  1  0  0  0  0
  5  6  1  0  0  0  0
  5  7  1  0  0  0  0
  5  8  1  0  0  0  0
  8  9  1  0  0  0  0
  8 10  1  0  0  0  0
  8 11  1  0  0  0  0
 11 12  1  0  0  0  0
 11 13  1  0  0  0  0
 11 14  1  0  0  0  0
 14 15  1  0  0  0  0
 14 16  1  0  0  0  0
 14 17  1  0  0  0  0
 17 18  1  0  0  0  0
 17 19  1  0  0  0  0
 19 20  1  0  0  0  0
 19 21  1  0  0  0  0
 19 22  1  0  0  0  0
 17 23  1  0  0  0  0
 23 24  1  0  0  0  0
 23 25  1  0  0  0  0
 23 26  1  0  0  0  0
M  END
> <VConfSearch Rank>
453

> <Conf_Id>
119

> <Delta U+W>
3.538

> <U+W>
-26.761

> <U>
27.482

> <W>
-54.243

> <W(PB)>
-56.494

> <W(SA)>
2.251

> <Valence>
5.284

> <Coulomb>
21.247

> <VdW>
0.951

> <VdW6>
-9.416

> <VdW12>
10.367

> <Bond>
0.323

> <Angle>
2.522

> <Pdih>
2.439

> <Idih>
0.000

> <Tether>
0.000

$$$$
VeraChem MOL file


 26 25  0  0  0  0  0  0  0  0999 V2000     
   22.4827   21.0444   21.6595 C   0  0  0  0  0  0  0  0  0  0  0  0
   22.8904   21.5225   22.5596 H   0  0  0  0  0  0  0  0  0  0  0  0
   22.8502   20.0114   21.6217 H   0  0  0  0  0  0  0  0  0  0  0  0
   22.8891   21.5710   20.7863 H   0  0  0  0  0  0  0  0  0  0  0  0
   20.9381   21.0982   21.6527 C   0  0  0  0  0  0  0  0  0  0  0  0
   20.5546   20.5865   20.7590 H   0  0  0  0  0  0  0  0  0  0  0  0
   20.6210   22.1469   21.5660 H   0  0  0  0  0  0  0  0  0  0  0  0
   20.2941   20.4883   22.9212 C   0  0  0  0  0  0  0  0  0  0  0  0
   20.6613   21.0220   23.8086 H   0  0  0  0  0  0  0  0  0  0  0  0
   19.2144   20.6741   22.8810 H   0  0  0  0  0  0  0  0  0  0  0  0
   20.5663   18.9702   23.0804 C   0  0  0  0  0  0  0  0  0  0  0  0
   21.6434   18.8258   23.2369 H   0  0  0  0  0  0  0  0  0  0  0  0
   20.3226   18.4421   22.1497 H   0  0  0  0  0  0  0  0  0  0  0  0
   19.8185   18.3327   24.2848 C   0  0  0  0  0  0  0  0  0  0  0  0
   20.4740   17.5766   24.7367 H   0  0  0  0  0  0  0  0  0  0  0  0
   19.6631   19.0853   25.0691 H   0  0  0  0  0  0  0  0  0  0  0  0
   18.4704   17.6426   23.9593 C   0  0  1  0  0  0  0  0  0  0  0  0
   18.0705   17.2577   24.9025 H   0  0  0  0  0  0  0  0  0  0  0  0
   17.4279   18.6108   23.3771 C   0  0  0  0  0  0  0  0  0  0  0  0
   17.7132   18.9541   22.3755 H   0  0  0  0  0  0  0  0  0  0  0  0
   17.3048   19.4873   24.0251 H   0  0  0  0  0  0  0  0  0  0  0  0
   16.4512   18.1183   23.2957 H   0  0  0  0  0  0  0  0  0  0  0  0
   18.6448   16.4442   23.0667 N   0  3  0  0  0  0  0  0  0  0  0  0
   19.2962   15.7658   23.4715 H   0  0  0  0  0  0  0  0  0  0  0  0
   17.7559   15.9598   22.9132 H   0  0  0  0  0  0  0  0  0  0  0  0
   19.0102   16.7124   22.1498 H   0  0  0  0  0  0  0  0  0  0  0  0
  1  2  1  0  0  0  0
  1  3  1  0  0  0  0
  1  4  1  0  0  0  0
  1  5  1  0  0  0  0
  5  6  1  0  0  0  0
  5  7  1  0  0  0  0
  5  8  1  0  0  0  0
  8  9  1  0  0  0  0
  8 10  1  0  0  0  0
  8 11  1  0  0  0  0
 11 12  1  0  0  0  0
 11 13  1  0  0  0  0
 11 14  1  0  0  0  0
 14 15  1  0  0  0  0
 14 16  1  0  0  0  0
 14 17  1  0  0  0  0
 17 18  1  0  0  0  0
 17 19  1  0  0  0  0
 19 20  1  0  0  0  0
 19 21  1  0  0  0  0
 19 22  1  0  0  0  0
 17 23  1  0  0  0  0
 23 24  1  0  0  0  0
 23 25  1  0  0  0  0
 23 26  1  0  0  0  0
M  END
> <VConfSearch Rank>
454

> <Conf_Id>
127

> <Delta U+W>
3.544

> <U+W>
-26.754

> <U>
27.509

> <W>
-54.263

> <W(PB)>
-56.496

> <W(SA)>
2.232

> <Valence>
6.375

> <Coulomb>
20.014

> <VdW>
1.120

> <VdW6>
-8.976

> <VdW12>
10.096

> <Bond>
0.304

> <Angle>
1.986

> <Pdih>
4.086

> <Idih>
0.000

> <Tether>
0.000

$$$$
VeraChem MOL file


 26 25  0  0  0  0  0  0  0  0999 V2000     
   20.8756   20.8019   25.5305 C   0  0  0  0  0  0  0  0  0  0  0  0
   20.4495   21.1722   26.4719 H   0  0  0  0  0  0  0  0  0  0  0  0
   21.9162   21.1472   25.4779 H   0  0  0  0  0  0  0  0  0  0  0  0
   20.3233   21.2710   24.7090 H   0  0  0  0  0  0  0  0  0  0  0  0
   20.8037   19.2580   25.4748 C   0  0  0  0  0  0  0  0  0  0  0  0
   19.7665   18.9186   25.6036 H   0  0  0  0  0  0  0  0  0  0  0  0
   21.3596   18.8623   26.3364 H   0  0  0  0  0  0  0  0  0  0  0  0
   21.4105   18.6604   24.1791 C   0  0  0  0  0  0  0  0  0  0  0  0
   22.1999   19.3182   23.7902 H   0  0  0  0  0  0  0  0  0  0  0  0
   21.9134   17.7190   24.4405 H   0  0  0  0  0  0  0  0  0  0  0  0
   20.3818   18.3442   23.0626 C   0  0  0  0  0  0  0  0  0  0  0  0
   19.6633   17.6035   23.4378 H   0  0  0  0  0  0  0  0  0  0  0  0
   20.9221   17.8594   22.2397 H   0  0  0  0  0  0  0  0  0  0  0  0
   19.6231   19.5880   22.5279 C   0  0  0  0  0  0  0  0  0  0  0  0
   19.0088   20.0086   23.3330 H   0  0  0  0  0  0  0  0  0  0  0  0
   20.3460   20.3668   22.2515 H   0  0  0  0  0  0  0  0  0  0  0  0
   18.6949   19.3164   21.3201 C   0  0  1  0  0  0  0  0  0  0  0  0
   18.1696   20.2508   21.0993 H   0  0  0  0  0  0  0  0  0  0  0  0
   19.4827   18.9208   20.0586 C   0  0  0  0  0  0  0  0  0  0  0  0
   20.2647   19.6584   19.8397 H   0  0  0  0  0  0  0  0  0  0  0  0
   18.8154   18.8768   19.1892 H   0  0  0  0  0  0  0  0  0  0  0  0
   19.9566   17.9382   20.1652 H   0  0  0  0  0  0  0  0  0  0  0  0
   17.6288   18.3022   21.6311 N   0  3  0  0  0  0  0  0  0  0  0  0
   17.0685   18.5823   22.4410 H   0  0  0  0  0  0  0  0  0  0  0  0
   16.9870   18.1801   20.8426 H   0  0  0  0  0  0  0  0  0  0  0  0
   18.0364   17.3874   21.8394 H   0  0  0  0  0  0  0  0  0  0  0  0
  1  2  1  0  0  0  0
  1  3  1  0  0  0  0
  1  4  1  0  0  0  0
  1  5  1  0  0  0  0
  5  6  1  0  0  0  0
  5  7  1  0  0  0  0
  5  8  1  0  0  0  0
  8  9  1  0  0  0  0
  8 10  1  0  0  0  0
  8 11  1  0  0  0  0
 11 12  1  0  0  0  0
 11 13  1  0  0  0  0
 11 14  1  0  0  0  0
 14 15  1  0  0  0  0
 14 16  1  0  0  0  0
 14 17  1  0  0  0  0
 17 18  1  0  0  0  0
 17 19  1  0  0  0  0
 19 20  1  0  0  0  0
 19 21  1  0  0  0  0
 19 22  1  0  0  0  0
 17 23  1  0  0  0  0
 23 24  1  0  0  0  0
 23 25  1  0  0  0  0
 23 26  1  0  0  0  0
M  END
> <VConfSearch Rank>
455

> <Conf_Id>
131

> <Delta U+W>
3.589

> <U+W>
-26.710

> <U>
27.573

> <W>
-54.283

> <W(PB)>
-56.537

> <W(SA)>
2.254

> <Valence>
6.363

> <Coulomb>
20.026

> <VdW>
1.184

> <VdW6>
-8.939

> <VdW12>
10.123

> <Bond>
0.298

> <Angle>
2.018

> <Pdih>
4.047

> <Idih>
0.000

> <Tether>
0.000

$$$$
VeraChem MOL file


 26 25  0  0  0  0  0  0  0  0999 V2000     
   17.9224   20.5011   21.3824 C   0  0  0  0  0  0  0  0  0  0  0  0
   17.5859   19.5117   21.0467 H   0  0  0  0  0  0  0  0  0  0  0  0
   17.9727   20.5017   22.4781 H   0  0  0  0  0  0  0  0  0  0  0  0
   17.1582   21.2329   21.0899 H   0  0  0  0  0  0  0  0  0  0  0  0
   19.2865   20.8677   20.7585 C   0  0  0  0  0  0  0  0  0  0  0  0
   19.6287   21.8276   21.1699 H   0  0  0  0  0  0  0  0  0  0  0  0
   19.1482   21.0312   19.6806 H   0  0  0  0  0  0  0  0  0  0  0  0
   20.3888   19.7956   20.9547 C   0  0  0  0  0  0  0  0  0  0  0  0
   20.1027   18.8637   20.4482 H   0  0  0  0  0  0  0  0  0  0  0  0
   21.2894   20.1498   20.4343 H   0  0  0  0  0  0  0  0  0  0  0  0
   20.7652   19.5141   22.4331 C   0  0  0  0  0  0  0  0  0  0  0  0
   20.6105   20.4226   23.0293 H   0  0  0  0  0  0  0  0  0  0  0  0
   21.8412   19.2966   22.4817 H   0  0  0  0  0  0  0  0  0  0  0  0
   20.0029   18.3084   23.0439 C   0  0  0  0  0  0  0  0  0  0  0  0
   18.9223   18.4891   23.0371 H   0  0  0  0  0  0  0  0  0  0  0  0
   20.1713   17.4329   22.4030 H   0  0  0  0  0  0  0  0  0  0  0  0
   20.4536   17.9539   24.4793 C   0  0  1  0  0  0  0  0  0  0  0  0
   21.5409   17.8296   24.4774 H   0  0  0  0  0  0  0  0  0  0  0  0
   20.0897   19.0575   25.4890 C   0  0  0  0  0  0  0  0  0  0  0  0
   19.0118   19.2622   25.4819 H   0  0  0  0  0  0  0  0  0  0  0  0
   20.6182   19.9918   25.2680 H   0  0  0  0  0  0  0  0  0  0  0  0
   20.3721   18.7588   26.5060 H   0  0  0  0  0  0  0  0  0  0  0  0
   19.8773   16.6367   24.9197 N   0  3  0  0  0  0  0  0  0  0  0  0
   18.8548   16.6671   24.9516 H   0  0  0  0  0  0  0  0  0  0  0  0
   20.1430   15.8777   24.2857 H   0  0  0  0  0  0  0  0  0  0  0  0
   20.2044   16.3795   25.8552 H   0  0  0  0  0  0  0  0  0  0  0  0
  1  2  1  0  0  0  0
  1  3  1  0  0  0  0
  1  4  1  0  0  0  0
  1  5  1  0  0  0  0
  5  6  1  0  0  0  0
  5  7  1  0  0  0  0
  5  8  1  0  0  0  0
  8  9  1  0  0  0  0
  8 10  1  0  0  0  0
  8 11  1  0  0  0  0
 11 12  1  0  0  0  0
 11 13  1  0  0  0  0
 11 14  1  0  0  0  0
 14 15  1  0  0  0  0
 14 16  1  0  0  0  0
 14 17  1  0  0  0  0
 17 18  1  0  0  0  0
 17 19  1  0  0  0  0
 19 20  1  0  0  0  0
 19 21  1  0  0  0  0
 19 22  1  0  0  0  0
 17 23  1  0  0  0  0
 23 24  1  0  0  0  0
 23 25  1  0  0  0  0
 23 26  1  0  0  0  0
M  END
> <VConfSearch Rank>
456

> <Conf_Id>
80

> <Delta U+W>
3.351

> <U+W>
-26.948

> <U>
27.261

> <W>
-54.209

> <W(PB)>
-56.471

> <W(SA)>
2.263

> <Valence>
6.230

> <Coulomb>
19.945

> <VdW>
1.087

> <VdW6>
-8.618

> <VdW12>
9.704

> <Bond>
0.277

> <Angle>
1.928

> <Pdih>
4.025

> <Idih>
0.000

> <Tether>
0.000

$$$$
VeraChem MOL file


 26 25  0  0  0  0  0  0  0  0999 V2000     
   17.8448   16.5488   22.3649 C   0  0  0  0  0  0  0  0  0  0  0  0
   17.0979   15.9893   22.9429 H   0  0  0  0  0  0  0  0  0  0  0  0
   17.7100   16.2942   21.3057 H   0  0  0  0  0  0  0  0  0  0  0  0
   18.8355   16.1990   22.6809 H   0  0  0  0  0  0  0  0  0  0  0  0
   17.6814   18.0679   22.5967 C   0  0  0  0  0  0  0  0  0  0  0  0
   17.8470   18.3000   23.6567 H   0  0  0  0  0  0  0  0  0  0  0  0
   16.6376   18.3447   22.3926 H   0  0  0  0  0  0  0  0  0  0  0  0
   18.6021   18.9368   21.7008 C   0  0  0  0  0  0  0  0  0  0  0  0
   18.2988   18.7955   20.6544 H   0  0  0  0  0  0  0  0  0  0  0  0
   18.4067   19.9925   21.9206 H   0  0  0  0  0  0  0  0  0  0  0  0
   20.1245   18.6384   21.8079 C   0  0  0  0  0  0  0  0  0  0  0  0
   20.6673   19.2539   21.0774 H   0  0  0  0  0  0  0  0  0  0  0  0
   20.2970   17.6023   21.4882 H   0  0  0  0  0  0  0  0  0  0  0  0
   20.7565   18.8337   23.2147 C   0  0  0  0  0  0  0  0  0  0  0  0
   20.0370   18.5985   24.0068 H   0  0  0  0  0  0  0  0  0  0  0  0
   21.5580   18.0906   23.3193 H   0  0  0  0  0  0  0  0  0  0  0  0
   21.3876   20.2244   23.4668 C   0  0  1  0  0  0  0  0  0  0  0  0
   22.1469   20.3988   22.6982 H   0  0  0  0  0  0  0  0  0  0  0  0
   20.3646   21.3701   23.3976 C   0  0  0  0  0  0  0  0  0  0  0  0
   20.0020   21.5089   22.3731 H   0  0  0  0  0  0  0  0  0  0  0  0
   20.8227   22.3182   23.7053 H   0  0  0  0  0  0  0  0  0  0  0  0
   19.5054   21.1778   24.0522 H   0  0  0  0  0  0  0  0  0  0  0  0
   22.1100   20.2540   24.7854 N   0  3  0  0  0  0  0  0  0  0  0  0
   22.8312   19.5290   24.8371 H   0  0  0  0  0  0  0  0  0  0  0  0
   22.5728   21.1545   24.9382 H   0  0  0  0  0  0  0  0  0  0  0  0
   21.4670   20.1049   25.5676 H   0  0  0  0  0  0  0  0  0  0  0  0
  1  2  1  0  0  0  0
  1  3  1  0  0  0  0
  1  4  1  0  0  0  0
  1  5  1  0  0  0  0
  5  6  1  0  0  0  0
  5  7  1  0  0  0  0
  5  8  1  0  0  0  0
  8  9  1  0  0  0  0
  8 10  1  0  0  0  0
  8 11  1  0  0  0  0
 11 12  1  0  0  0  0
 11 13  1  0  0  0  0
 11 14  1  0  0  0  0
 14 15  1  0  0  0  0
 14 16  1  0  0  0  0
 14 17  1  0  0  0  0
 17 18  1  0  0  0  0
 17 19  1  0  0  0  0
 19 20  1  0  0  0  0
 19 21  1  0  0  0  0
 19 22  1  0  0  0  0
 17 23  1  0  0  0  0
 23 24  1  0  0  0  0
 23 25  1  0  0  0  0
 23 26  1  0  0  0  0
M  END
> <VConfSearch Rank>
457

> <Conf_Id>
136

> <Delta U+W>
4.272

> <U+W>
-26.026

> <U>
28.262

> <W>
-54.288

> <W(PB)>
-56.488

> <W(SA)>
2.200

> <Valence>
7.096

> <Coulomb>
19.990

> <VdW>
1.175

> <VdW6>
-9.404

> <VdW12>
10.580

> <Bond>
0.360

> <Angle>
2.785

> <Pdih>
3.951

> <Idih>
0.000

> <Tether>
0.000

$$$$
VeraChem MOL file


 26 25  0  0  0  0  0  0  0  0999 V2000     
   18.0807   20.1230   20.7449 C   0  0  0  0  0  0  0  0  0  0  0  0
   17.6898   19.7368   21.6944 H   0  0  0  0  0  0  0  0  0  0  0  0
   17.2265   20.5021   20.1691 H   0  0  0  0  0  0  0  0  0  0  0  0
   18.5215   19.2899   20.1823 H   0  0  0  0  0  0  0  0  0  0  0  0
   19.1144   21.2462   20.9789 C   0  0  0  0  0  0  0  0  0  0  0  0
   18.6599   22.0377   21.5911 H   0  0  0  0  0  0  0  0  0  0  0  0
   19.3550   21.7103   20.0122 H   0  0  0  0  0  0  0  0  0  0  0  0
   20.4346   20.7727   21.6391 C   0  0  0  0  0  0  0  0  0  0  0  0
   20.9481   20.0548   20.9848 H   0  0  0  0  0  0  0  0  0  0  0  0
   21.1018   21.6433   21.7040 H   0  0  0  0  0  0  0  0  0  0  0  0
   20.2705   20.1819   23.0638 C   0  0  0  0  0  0  0  0  0  0  0  0
   19.3950   20.6272   23.5564 H   0  0  0  0  0  0  0  0  0  0  0  0
   21.1423   20.4824   23.6600 H   0  0  0  0  0  0  0  0  0  0  0  0
   20.1696   18.6344   23.0781 C   0  0  0  0  0  0  0  0  0  0  0  0
   19.3698   18.3092   22.4034 H   0  0  0  0  0  0  0  0  0  0  0  0
   21.0988   18.2016   22.6843 H   0  0  0  0  0  0  0  0  0  0  0  0
   19.8897   18.0639   24.4854 C   0  0  1  0  0  0  0  0  0  0  0  0
   18.9745   18.5273   24.8668 H   0  0  0  0  0  0  0  0  0  0  0  0
   19.6663   16.5449   24.4118 C   0  0  0  0  0  0  0  0  0  0  0  0
   20.5588   16.0301   24.0347 H   0  0  0  0  0  0  0  0  0  0  0  0
   18.8272   16.3058   23.7466 H   0  0  0  0  0  0  0  0  0  0  0  0
   19.4306   16.1386   25.4032 H   0  0  0  0  0  0  0  0  0  0  0  0
   20.9816   18.3896   25.4678 N   0  3  0  0  0  0  0  0  0  0  0  0
   21.8773   17.9894   25.1766 H   0  0  0  0  0  0  0  0  0  0  0  0
   21.1111   19.4005   25.5615 H   0  0  0  0  0  0  0  0  0  0  0  0
   20.7694   18.0208   26.3991 H   0  0  0  0  0  0  0  0  0  0  0  0
  1  2  1  0  0  0  0
  1  3  1  0  0  0  0
  1  4  1  0  0  0  0
  1  5  1  0  0  0  0
  5  6  1  0  0  0  0
  5  7  1  0  0  0  0
  5  8  1  0  0  0  0
  8  9  1  0  0  0  0
  8 10  1  0  0  0  0
  8 11  1  0  0  0  0
 11 12  1  0  0  0  0
 11 13  1  0  0  0  0
 11 14  1  0  0  0  0
 14 15  1  0  0  0  0
 14 16  1  0  0  0  0
 14 17  1  0  0  0  0
 17 18  1  0  0  0  0
 17 19  1  0  0  0  0
 19 20  1  0  0  0  0
 19 21  1  0  0  0  0
 19 22  1  0  0  0  0
 17 23  1  0  0  0  0
 23 24  1  0  0  0  0
 23 25  1  0  0  0  0
 23 26  1  0  0  0  0
M  END
> <VConfSearch Rank>
458

> <Conf_Id>
124

> <Delta U+W>
3.001

> <U+W>
-27.298

> <U>
26.787

> <W>
-54.085

> <W(PB)>
-56.347

> <W(SA)>
2.262

> <Valence>
5.742

> <Coulomb>
20.023

> <VdW>
1.022

> <VdW6>
-8.392

> <VdW12>
9.414

> <Bond>
0.261

> <Angle>
1.576

> <Pdih>
3.904

> <Idih>
0.000

> <Tether>
0.000

$$$$
VeraChem MOL file


 26 25  0  0  0  0  0  0  0  0999 V2000     
   22.8165   20.3218   22.8731 C   0  0  0  0  0  0  0  0  0  0  0  0
   23.1654   20.5766   21.8639 H   0  0  0  0  0  0  0  0  0  0  0  0
   23.6487   20.4978   23.5669 H   0  0  0  0  0  0  0  0  0  0  0  0
   22.5911   19.2500   22.8913 H   0  0  0  0  0  0  0  0  0  0  0  0
   21.5932   21.1820   23.2674 C   0  0  0  0  0  0  0  0  0  0  0  0
   21.9041   22.2361   23.2562 H   0  0  0  0  0  0  0  0  0  0  0  0
   21.2924   20.9671   24.3022 H   0  0  0  0  0  0  0  0  0  0  0  0
   20.3860   21.0142   22.3088 C   0  0  0  0  0  0  0  0  0  0  0  0
   19.8824   21.9870   22.2216 H   0  0  0  0  0  0  0  0  0  0  0  0
   20.7354   20.7711   21.2959 H   0  0  0  0  0  0  0  0  0  0  0  0
   19.3257   19.9813   22.7707 C   0  0  0  0  0  0  0  0  0  0  0  0
   18.4897   20.0153   22.0601 H   0  0  0  0  0  0  0  0  0  0  0  0
   18.9186   20.2987   23.7399 H   0  0  0  0  0  0  0  0  0  0  0  0
   19.8586   18.5278   22.8752 C   0  0  0  0  0  0  0  0  0  0  0  0
   20.3961   18.2707   21.9532 H   0  0  0  0  0  0  0  0  0  0  0  0
   20.5925   18.4681   23.6884 H   0  0  0  0  0  0  0  0  0  0  0  0
   18.7734   17.4544   23.1272 C   0  0  1  0  0  0  0  0  0  0  0  0
   19.2809   16.4863   23.1831 H   0  0  0  0  0  0  0  0  0  0  0  0
   18.0425   17.6750   24.4631 C   0  0  0  0  0  0  0  0  0  0  0  0
   17.4358   18.5883   24.4468 H   0  0  0  0  0  0  0  0  0  0  0  0
   18.7582   17.7521   25.2910 H   0  0  0  0  0  0  0  0  0  0  0  0
   17.3742   16.8324   24.6787 H   0  0  0  0  0  0  0  0  0  0  0  0
   17.7960   17.3456   21.9891 N   0  3  0  0  0  0  0  0  0  0  0  0
   17.1247   16.5881   22.1437 H   0  0  0  0  0  0  0  0  0  0  0  0
   17.2614   18.2099   21.8736 H   0  0  0  0  0  0  0  0  0  0  0  0
   18.2716   17.1561   21.1024 H   0  0  0  0  0  0  0  0  0  0  0  0
  1  2  1  0  0  0  0
  1  3  1  0  0  0  0
  1  4  1  0  0  0  0
  1  5  1  0  0  0  0
  5  6  1  0  0  0  0
  5  7  1  0  0  0  0
  5  8  1  0  0  0  0
  8  9  1  0  0  0  0
  8 10  1  0  0  0  0
  8 11  1  0  0  0  0
 11 12  1  0  0  0  0
 11 13  1  0  0  0  0
 11 14  1  0  0  0  0
 14 15  1  0  0  0  0
 14 16  1  0  0  0  0
 14 17  1  0  0  0  0
 17 18  1  0  0  0  0
 17 19  1  0  0  0  0
 19 20  1  0  0  0  0
 19 21  1  0  0  0  0
 19 22  1  0  0  0  0
 17 23  1  0  0  0  0
 23 24  1  0  0  0  0
 23 25  1  0  0  0  0
 23 26  1  0  0  0  0
M  END
> <VConfSearch Rank>
459

> <Conf_Id>
105

> <Delta U+W>
3.442

> <U+W>
-26.857

> <U>
27.313

> <W>
-54.169

> <W(PB)>
-56.414

> <W(SA)>
2.245

> <Valence>
6.229

> <Coulomb>
19.943

> <VdW>
1.140

> <VdW6>
-9.001

> <VdW12>
10.140

> <Bond>
0.294

> <Angle>
1.969

> <Pdih>
3.967

> <Idih>
0.000

> <Tether>
0.000

$$$$
VeraChem MOL file


 26 25  0  0  0  0  0  0  0  0999 V2000     
   19.2568   16.3586   24.2684 C   0  0  0  0  0  0  0  0  0  0  0  0
   18.8175   15.5831   23.6276 H   0  0  0  0  0  0  0  0  0  0  0  0
   19.2703   15.9725   25.2958 H   0  0  0  0  0  0  0  0  0  0  0  0
   18.5908   17.2280   24.2505 H   0  0  0  0  0  0  0  0  0  0  0  0
   20.6896   16.7111   23.8049 C   0  0  0  0  0  0  0  0  0  0  0  0
   21.3027   15.8023   23.8835 H   0  0  0  0  0  0  0  0  0  0  0  0
   21.1435   17.4415   24.4889 H   0  0  0  0  0  0  0  0  0  0  0  0
   20.7573   17.2258   22.3439 C   0  0  0  0  0  0  0  0  0  0  0  0
   21.6979   16.8705   21.9005 H   0  0  0  0  0  0  0  0  0  0  0  0
   19.9577   16.7712   21.7430 H   0  0  0  0  0  0  0  0  0  0  0  0
   20.7268   18.7689   22.1949 C   0  0  0  0  0  0  0  0  0  0  0  0
   20.8569   19.0138   21.1316 H   0  0  0  0  0  0  0  0  0  0  0  0
   21.5930   19.1960   22.7176 H   0  0  0  0  0  0  0  0  0  0  0  0
   19.4243   19.4321   22.7069 C   0  0  0  0  0  0  0  0  0  0  0  0
   18.5626   18.8972   22.2862 H   0  0  0  0  0  0  0  0  0  0  0  0
   19.3611   19.3359   23.7980 H   0  0  0  0  0  0  0  0  0  0  0  0
   19.3209   20.9240   22.3237 C   0  0  1  0  0  0  0  0  0  0  0  0
   19.4031   21.0049   21.2354 H   0  0  0  0  0  0  0  0  0  0  0  0
   17.9567   21.4914   22.7479 C   0  0  0  0  0  0  0  0  0  0  0  0
   17.8244   21.4360   23.8357 H   0  0  0  0  0  0  0  0  0  0  0  0
   17.1386   20.9336   22.2754 H   0  0  0  0  0  0  0  0  0  0  0  0
   17.8617   22.5414   22.4450 H   0  0  0  0  0  0  0  0  0  0  0  0
   20.4391   21.7459   22.9045 N   0  3  0  0  0  0  0  0  0  0  0  0
   21.3531   21.4044   22.5957 H   0  0  0  0  0  0  0  0  0  0  0  0
   20.3678   22.7275   22.6222 H   0  0  0  0  0  0  0  0  0  0  0  0
   20.4294   21.7198   23.9275 H   0  0  0  0  0  0  0  0  0  0  0  0
  1  2  1  0  0  0  0
  1  3  1  0  0  0  0
  1  4  1  0  0  0  0
  1  5  1  0  0  0  0
  5  6  1  0  0  0  0
  5  7  1  0  0  0  0
  5  8  1  0  0  0  0
  8  9  1  0  0  0  0
  8 10  1  0  0  0  0
  8 11  1  0  0  0  0
 11 12  1  0  0  0  0
 11 13  1  0  0  0  0
 11 14  1  0  0  0  0
 14 15  1  0  0  0  0
 14 16  1  0  0  0  0
 14 17  1  0  0  0  0
 17 18  1  0  0  0  0
 17 19  1  0  0  0  0
 19 20  1  0  0  0  0
 19 21  1  0  0  0  0
 19 22  1  0  0  0  0
 17 23  1  0  0  0  0
 23 24  1  0  0  0  0
 23 25  1  0  0  0  0
 23 26  1  0  0  0  0
M  END
> <VConfSearch Rank>
460

> <Conf_Id>
107

> <Delta U+W>
2.995

> <U+W>
-27.304

> <U>
26.796

> <W>
-54.100

> <W(PB)>
-56.404

> <W(SA)>
2.304

> <Valence>
5.706

> <Coulomb>
20.107

> <VdW>
0.982

> <VdW6>
-8.396

> <VdW12>
9.378

> <Bond>
0.254

> <Angle>
1.644

> <Pdih>
3.808

> <Idih>
0.000

> <Tether>
0.000

$$$$
VeraChem MOL file


 26 25  0  0  0  0  0  0  0  0999 V2000     
   18.9651   15.2484   24.2982 C   0  0  0  0  0  0  0  0  0  0  0  0
   17.9343   15.4357   24.6260 H   0  0  0  0  0  0  0  0  0  0  0  0
   19.0139   14.2230   23.9094 H   0  0  0  0  0  0  0  0  0  0  0  0
   19.6196   15.3068   25.1776 H   0  0  0  0  0  0  0  0  0  0  0  0
   19.3964   16.2622   23.2172 C   0  0  0  0  0  0  0  0  0  0  0  0
   18.7454   16.1566   22.3380 H   0  0  0  0  0  0  0  0  0  0  0  0
   20.4178   16.0285   22.8854 H   0  0  0  0  0  0  0  0  0  0  0  0
   19.3366   17.7149   23.7391 C   0  0  0  0  0  0  0  0  0  0  0  0
   18.3145   17.9419   24.0726 H   0  0  0  0  0  0  0  0  0  0  0  0
   19.9875   17.8150   24.6188 H   0  0  0  0  0  0  0  0  0  0  0  0
   19.7671   18.7333   22.6592 C   0  0  0  0  0  0  0  0  0  0  0  0
   19.1132   18.6345   21.7815 H   0  0  0  0  0  0  0  0  0  0  0  0
   20.7864   18.4954   22.3269 H   0  0  0  0  0  0  0  0  0  0  0  0
   19.7075   20.1879   23.1857 C   0  0  0  0  0  0  0  0  0  0  0  0
   18.6957   20.3874   23.5631 H   0  0  0  0  0  0  0  0  0  0  0  0
   20.3886   20.3023   24.0395 H   0  0  0  0  0  0  0  0  0  0  0  0
   20.0503   21.2352   22.1039 C   0  0  1  0  0  0  0  0  0  0  0  0
   19.3751   21.0855   21.2557 H   0  0  0  0  0  0  0  0  0  0  0  0
   19.8334   22.6563   22.6481 C   0  0  0  0  0  0  0  0  0  0  0  0
   20.4910   22.8589   23.5027 H   0  0  0  0  0  0  0  0  0  0  0  0
   18.7953   22.7942   22.9755 H   0  0  0  0  0  0  0  0  0  0  0  0
   20.0396   23.4046   21.8730 H   0  0  0  0  0  0  0  0  0  0  0  0
   21.4504   21.0809   21.5753 N   0  3  0  0  0  0  0  0  0  0  0  0
   22.1451   21.2052   22.3164 H   0  0  0  0  0  0  0  0  0  0  0  0
   21.5965   20.1536   21.1677 H   0  0  0  0  0  0  0  0  0  0  0  0
   21.6532   21.7707   20.8464 H   0  0  0  0  0  0  0  0  0  0  0  0
  1  2  1  0  0  0  0
  1  3  1  0  0  0  0
  1  4  1  0  0  0  0
  1  5  1  0  0  0  0
  5  6  1  0  0  0  0
  5  7  1  0  0  0  0
  5  8  1  0  0  0  0
  8  9  1  0  0  0  0
  8 10  1  0  0  0  0
  8 11  1  0  0  0  0
 11 12  1  0  0  0  0
 11 13  1  0  0  0  0
 11 14  1  0  0  0  0
 14 15  1  0  0  0  0
 14 16  1  0  0  0  0
 14 17  1  0  0  0  0
 17 18  1  0  0  0  0
 17 19  1  0  0  0  0
 19 20  1  0  0  0  0
 19 21  1  0  0  0  0
 19 22  1  0  0  0  0
 17 23  1  0  0  0  0
 23 24  1  0  0  0  0
 23 25  1  0  0  0  0
 23 26  1  0  0  0  0
M  END
> <VConfSearch Rank>
461

> <Conf_Id>
122

> <Delta U+W>
0.000

> <U+W>
-30.299

> <U>
23.517

> <W>
-53.816

> <W(PB)>
-56.162

> <W(SA)>
2.346

> <Valence>
2.737

> <Coulomb>
19.862

> <VdW>
0.919

> <VdW6>
-6.793

> <VdW12>
7.712

> <Bond>
0.171

> <Angle>
0.873

> <Pdih>
1.693

> <Idih>
0.000

> <Tether>
0.000

$$$$
VeraChem MOL file


 26 25  0  0  0  0  0  0  0  0999 V2000     
   22.6309   21.8995   24.3834 C   0  0  0  0  0  0  0  0  0  0  0  0
   22.6332   22.8375   24.9537 H   0  0  0  0  0  0  0  0  0  0  0  0
   23.2729   21.1825   24.9116 H   0  0  0  0  0  0  0  0  0  0  0  0
   23.0788   22.1009   23.4016 H   0  0  0  0  0  0  0  0  0  0  0  0
   21.1943   21.3546   24.2367 C   0  0  0  0  0  0  0  0  0  0  0  0
   20.5687   22.1067   23.7359 H   0  0  0  0  0  0  0  0  0  0  0  0
   20.7613   21.1953   25.2342 H   0  0  0  0  0  0  0  0  0  0  0  0
   21.1626   20.0332   23.4371 C   0  0  0  0  0  0  0  0  0  0  0  0
   21.5981   20.1970   22.4416 H   0  0  0  0  0  0  0  0  0  0  0  0
   21.7922   19.2863   23.9404 H   0  0  0  0  0  0  0  0  0  0  0  0
   19.7255   19.4841   23.2883 C   0  0  0  0  0  0  0  0  0  0  0  0
   19.1039   20.2411   22.7925 H   0  0  0  0  0  0  0  0  0  0  0  0
   19.2925   19.3160   24.2842 H   0  0  0  0  0  0  0  0  0  0  0  0
   19.6966   18.1619   22.4826 C   0  0  0  0  0  0  0  0  0  0  0  0
   20.0681   18.3401   21.4647 H   0  0  0  0  0  0  0  0  0  0  0  0
   20.3943   17.4535   22.9487 H   0  0  0  0  0  0  0  0  0  0  0  0
   18.3003   17.5015   22.4184 C   0  0  1  0  0  0  0  0  0  0  0  0
   17.9342   17.3728   23.4417 H   0  0  0  0  0  0  0  0  0  0  0  0
   17.2862   18.3618   21.6429 C   0  0  0  0  0  0  0  0  0  0  0  0
   17.6403   18.5729   20.6261 H   0  0  0  0  0  0  0  0  0  0  0  0
   17.1035   19.3167   22.1488 H   0  0  0  0  0  0  0  0  0  0  0  0
   16.3210   17.8462   21.5665 H   0  0  0  0  0  0  0  0  0  0  0  0
   18.3788   16.1243   21.8201 N   0  3  0  0  0  0  0  0  0  0  0  0
   18.7133   16.1544   20.8533 H   0  0  0  0  0  0  0  0  0  0  0  0
   19.0154   15.5195   22.3471 H   0  0  0  0  0  0  0  0  0  0  0  0
   17.4626   15.6671   21.8119 H   0  0  0  0  0  0  0  0  0  0  0  0
  1  2  1  0  0  0  0
  1  3  1  0  0  0  0
  1  4  1  0  0  0  0
  1  5  1  0  0  0  0
  5  6  1  0  0  0  0
  5  7  1  0  0  0  0
  5  8  1  0  0  0  0
  8  9  1  0  0  0  0
  8 10  1  0  0  0  0
  8 11  1  0  0  0  0
 11 12  1  0  0  0  0
 11 13  1  0  0  0  0
 11 14  1  0  0  0  0
 14 15  1  0  0  0  0
 14 16  1  0  0  0  0
 14 17  1  0  0  0  0
 17 18  1  0  0  0  0
 17 19  1  0  0  0  0
 19 20  1  0  0  0  0
 19 21  1  0  0  0  0
 19 22  1  0  0  0  0
 17 23  1  0  0  0  0
 23 24  1  0  0  0  0
 23 25  1  0  0  0  0
 23 26  1  0  0  0  0
M  END
> <VConfSearch Rank>
462

> <Conf_Id>
54

> <Delta U+W>
0.453

> <U+W>
-29.845

> <U>
23.817

> <W>
-53.663

> <W(PB)>
-56.021

> <W(SA)>
2.358

> <Valence>
3.277

> <Coulomb>
19.492

> <VdW>
1.049

> <VdW6>
-6.949

> <VdW12>
7.998

> <Bond>
0.183

> <Angle>
1.152

> <Pdih>
1.942

> <Idih>
0.000

> <Tether>
0.000

$$$$
VeraChem MOL file


 26 25  0  0  0  0  0  0  0  0999 V2000     
   22.0360   21.4037   21.1504 C   0  0  0  0  0  0  0  0  0  0  0  0
   21.3993   21.3311   20.2592 H   0  0  0  0  0  0  0  0  0  0  0  0
   21.5866   22.1324   21.8360 H   0  0  0  0  0  0  0  0  0  0  0  0
   23.0079   21.8054   20.8357 H   0  0  0  0  0  0  0  0  0  0  0  0
   22.2147   20.0221   21.8204 C   0  0  0  0  0  0  0  0  0  0  0  0
   22.8261   20.1254   22.7278 H   0  0  0  0  0  0  0  0  0  0  0  0
   22.7839   19.3740   21.1393 H   0  0  0  0  0  0  0  0  0  0  0  0
   20.8771   19.3227   22.1649 C   0  0  0  0  0  0  0  0  0  0  0  0
   20.2589   19.2501   21.2594 H   0  0  0  0  0  0  0  0  0  0  0  0
   21.1129   18.2982   22.4762 H   0  0  0  0  0  0  0  0  0  0  0  0
   20.0844   20.0304   23.2928 C   0  0  0  0  0  0  0  0  0  0  0  0
   19.9596   21.0904   23.0388 H   0  0  0  0  0  0  0  0  0  0  0  0
   20.6715   20.0070   24.2213 H   0  0  0  0  0  0  0  0  0  0  0  0
   18.6715   19.4477   23.5613 C   0  0  0  0  0  0  0  0  0  0  0  0
   18.1907   20.1010   24.3016 H   0  0  0  0  0  0  0  0  0  0  0  0
   18.0545   19.5185   22.6558 H   0  0  0  0  0  0  0  0  0  0  0  0
   18.6558   17.9966   24.0985 C   0  0  1  0  0  0  0  0  0  0  0  0
   19.4955   17.8750   24.7898 H   0  0  0  0  0  0  0  0  0  0  0  0
   17.3540   17.7250   24.8708 C   0  0  0  0  0  0  0  0  0  0  0  0
   17.3434   16.7022   25.2674 H   0  0  0  0  0  0  0  0  0  0  0  0
   16.4759   17.8508   24.2250 H   0  0  0  0  0  0  0  0  0  0  0  0
   17.2539   18.4103   25.7218 H   0  0  0  0  0  0  0  0  0  0  0  0
   18.8218   16.9698   23.0113 N   0  3  0  0  0  0  0  0  0  0  0  0
   19.6847   17.1181   22.4834 H   0  0  0  0  0  0  0  0  0  0  0  0
   18.8536   16.0210   23.3950 H   0  0  0  0  0  0  0  0  0  0  0  0
   18.0447   17.0042   22.3463 H   0  0  0  0  0  0  0  0  0  0  0  0
  1  2  1  0  0  0  0
  1  3  1  0  0  0  0
  1  4  1  0  0  0  0
  1  5  1  0  0  0  0
  5  6  1  0  0  0  0
  5  7  1  0  0  0  0
  5  8  1  0  0  0  0
  8  9  1  0  0  0  0
  8 10  1  0  0  0  0
  8 11  1  0  0  0  0
 11 12  1  0  0  0  0
 11 13  1  0  0  0  0
 11 14  1  0  0  0  0
 14 15  1  0  0  0  0
 14 16  1  0  0  0  0
 14 17  1  0  0  0  0
 17 18  1  0  0  0  0
 17 19  1  0  0  0  0
 19 20  1  0  0  0  0
 19 21  1  0  0  0  0
 19 22  1  0  0  0  0
 17 23  1  0  0  0  0
 23 24  1  0  0  0  0
 23 25  1  0  0  0  0
 23 26  1  0  0  0  0
M  END
> <VConfSearch Rank>
463

> <Conf_Id>
110

> <Delta U+W>
3.764

> <U+W>
-26.535

> <U>
27.400

> <W>
-53.935

> <W(PB)>
-56.238

> <W(SA)>
2.303

> <Valence>
5.205

> <Coulomb>
21.096

> <VdW>
1.098

> <VdW6>
-8.389

> <VdW12>
9.488

> <Bond>
0.270

> <Angle>
1.912

> <Pdih>
3.023

> <Idih>
0.000

> <Tether>
0.000

$$$$
VeraChem MOL file


 26 25  0  0  0  0  0  0  0  0999 V2000     
   21.7200   17.5914   20.2122 C   0  0  0  0  0  0  0  0  0  0  0  0
   22.1823   17.6710   19.2197 H   0  0  0  0  0  0  0  0  0  0  0  0
   22.4962   17.8111   20.9557 H   0  0  0  0  0  0  0  0  0  0  0  0
   21.3961   16.5515   20.3491 H   0  0  0  0  0  0  0  0  0  0  0  0
   20.5265   18.5659   20.3326 C   0  0  0  0  0  0  0  0  0  0  0  0
   19.8370   18.3864   19.4958 H   0  0  0  0  0  0  0  0  0  0  0  0
   20.8814   19.6000   20.2217 H   0  0  0  0  0  0  0  0  0  0  0  0
   19.7444   18.4211   21.6603 C   0  0  0  0  0  0  0  0  0  0  0  0
   18.8569   19.0633   21.6094 H   0  0  0  0  0  0  0  0  0  0  0  0
   19.3689   17.3926   21.7517 H   0  0  0  0  0  0  0  0  0  0  0  0
   20.5868   18.7770   22.9125 C   0  0  0  0  0  0  0  0  0  0  0  0
   21.0821   19.7488   22.7795 H   0  0  0  0  0  0  0  0  0  0  0  0
   21.3917   18.0369   23.0123 H   0  0  0  0  0  0  0  0  0  0  0  0
   19.7630   18.7745   24.2276 C   0  0  0  0  0  0  0  0  0  0  0  0
   18.9064   18.0929   24.1396 H   0  0  0  0  0  0  0  0  0  0  0  0
   20.3977   18.3554   25.0196 H   0  0  0  0  0  0  0  0  0  0  0  0
   19.2903   20.1705   24.7004 C   0  0  1  0  0  0  0  0  0  0  0  0
   20.1735   20.8056   24.8197 H   0  0  0  0  0  0  0  0  0  0  0  0
   18.3426   20.8516   23.6986 C   0  0  0  0  0  0  0  0  0  0  0  0
   17.4755   20.2172   23.4768 H   0  0  0  0  0  0  0  0  0  0  0  0
   18.8596   21.0776   22.7589 H   0  0  0  0  0  0  0  0  0  0  0  0
   17.9740   21.8034   24.1006 H   0  0  0  0  0  0  0  0  0  0  0  0
   18.6431   20.0902   26.0553 N   0  3  0  0  0  0  0  0  0  0  0  0
   19.2744   19.6842   26.7518 H   0  0  0  0  0  0  0  0  0  0  0  0
   18.3708   21.0168   26.3953 H   0  0  0  0  0  0  0  0  0  0  0  0
   17.7981   19.5131   26.0328 H   0  0  0  0  0  0  0  0  0  0  0  0
  1  2  1  0  0  0  0
  1  3  1  0  0  0  0
  1  4  1  0  0  0  0
  1  5  1  0  0  0  0
  5  6  1  0  0  0  0
  5  7  1  0  0  0  0
  5  8  1  0  0  0  0
  8  9  1  0  0  0  0
  8 10  1  0  0  0  0
  8 11  1  0  0  0  0
 11 12  1  0  0  0  0
 11 13  1  0  0  0  0
 11 14  1  0  0  0  0
 14 15  1  0  0  0  0
 14 16  1  0  0  0  0
 14 17  1  0  0  0  0
 17 18  1  0  0  0  0
 17 19  1  0  0  0  0
 19 20  1  0  0  0  0
 19 21  1  0  0  0  0
 19 22  1  0  0  0  0
 17 23  1  0  0  0  0
 23 24  1  0  0  0  0
 23 25  1  0  0  0  0
 23 26  1  0  0  0  0
M  END
> <VConfSearch Rank>
464

> <Conf_Id>
34

> <Delta U+W>
3.568

> <U+W>
-26.731

> <U>
27.221

> <W>
-53.952

> <W(PB)>
-56.213

> <W(SA)>
2.261

> <Valence>
6.368

> <Coulomb>
19.698

> <VdW>
1.155

> <VdW6>
-8.532

> <VdW12>
9.687

> <Bond>
0.272

> <Angle>
1.847

> <Pdih>
4.248

> <Idih>
0.000

> <Tether>
0.000

$$$$
VeraChem MOL file


 26 25  0  0  0  0  0  0  0  0999 V2000     
   18.2224   17.2733   26.2022 C   0  0  0  0  0  0  0  0  0  0  0  0
   18.2185   18.1342   26.8834 H   0  0  0  0  0  0  0  0  0  0  0  0
   17.2032   17.1368   25.8177 H   0  0  0  0  0  0  0  0  0  0  0  0
   18.4841   16.3820   26.7871 H   0  0  0  0  0  0  0  0  0  0  0  0
   19.2269   17.4828   25.0492 C   0  0  0  0  0  0  0  0  0  0  0  0
   19.2330   16.5924   24.4050 H   0  0  0  0  0  0  0  0  0  0  0  0
   20.2404   17.5821   25.4625 H   0  0  0  0  0  0  0  0  0  0  0  0
   18.8811   18.7323   24.2093 C   0  0  0  0  0  0  0  0  0  0  0  0
   17.8662   18.6290   23.8008 H   0  0  0  0  0  0  0  0  0  0  0  0
   18.8737   19.6190   24.8583 H   0  0  0  0  0  0  0  0  0  0  0  0
   19.8849   18.9458   23.0537 C   0  0  0  0  0  0  0  0  0  0  0  0
   19.8883   18.0558   22.4107 H   0  0  0  0  0  0  0  0  0  0  0  0
   20.8954   19.0430   23.4718 H   0  0  0  0  0  0  0  0  0  0  0  0
   19.5337   20.2034   22.2164 C   0  0  0  0  0  0  0  0  0  0  0  0
   18.5038   20.1140   21.8464 H   0  0  0  0  0  0  0  0  0  0  0  0
   19.5447   21.0875   22.8675 H   0  0  0  0  0  0  0  0  0  0  0  0
   20.4654   20.4640   21.0091 C   0  0  1  0  0  0  0  0  0  0  0  0
   20.0893   21.3540   20.4949 H   0  0  0  0  0  0  0  0  0  0  0  0
   21.9114   20.7564   21.4464 C   0  0  0  0  0  0  0  0  0  0  0  0
   22.3893   19.8727   21.8857 H   0  0  0  0  0  0  0  0  0  0  0  0
   21.9390   21.5662   22.1859 H   0  0  0  0  0  0  0  0  0  0  0  0
   22.5156   21.0708   20.5866 H   0  0  0  0  0  0  0  0  0  0  0  0
   20.4224   19.3503   19.9992 N   0  3  0  0  0  0  0  0  0  0  0  0
   20.9948   19.5672   19.1784 H   0  0  0  0  0  0  0  0  0  0  0  0
   20.7738   18.4752   20.3955 H   0  0  0  0  0  0  0  0  0  0  0  0
   19.4683   19.1787   19.6695 H   0  0  0  0  0  0  0  0  0  0  0  0
  1  2  1  0  0  0  0
  1  3  1  0  0  0  0
  1  4  1  0  0  0  0
  1  5  1  0  0  0  0
  5  6  1  0  0  0  0
  5  7  1  0  0  0  0
  5  8  1  0  0  0  0
  8  9  1  0  0  0  0
  8 10  1  0  0  0  0
  8 11  1  0  0  0  0
 11 12  1  0  0  0  0
 11 13  1  0  0  0  0
 11 14  1  0  0  0  0
 14 15  1  0  0  0  0
 14 16  1  0  0  0  0
 14 17  1  0  0  0  0
 17 18  1  0  0  0  0
 17 19  1  0  0  0  0
 19 20  1  0  0  0  0
 19 21  1  0  0  0  0
 19 22  1  0  0  0  0
 17 23  1  0  0  0  0
 23 24  1  0  0  0  0
 23 25  1  0  0  0  0
 23 26  1  0  0  0  0
M  END
> <VConfSearch Rank>
465

> <Conf_Id>
132

> <Delta U+W>
0.363

> <U+W>
-29.936

> <U>
24.060

> <W>
-53.996

> <W(PB)>
-56.327

> <W(SA)>
2.332

> <Valence>
3.249

> <Coulomb>
19.781

> <VdW>
1.030

> <VdW6>
-7.421

> <VdW12>
8.451

> <Bond>
0.207

> <Angle>
1.205

> <Pdih>
1.837

> <Idih>
0.000

> <Tether>
0.000

$$$$
VeraChem MOL file


 26 25  0  0  0  0  0  0  0  0999 V2000     
   18.1456   15.6799   23.7842 C   0  0  0  0  0  0  0  0  0  0  0  0
   17.0645   15.4943   23.7417 H   0  0  0  0  0  0  0  0  0  0  0  0
   18.6444   14.9012   23.1925 H   0  0  0  0  0  0  0  0  0  0  0  0
   18.4652   15.5727   24.8291 H   0  0  0  0  0  0  0  0  0  0  0  0
   18.4788   17.0869   23.2441 C   0  0  0  0  0  0  0  0  0  0  0  0
   17.9299   17.8327   23.8340 H   0  0  0  0  0  0  0  0  0  0  0  0
   18.1215   17.1730   22.2085 H   0  0  0  0  0  0  0  0  0  0  0  0
   19.9982   17.3729   23.2986 C   0  0  0  0  0  0  0  0  0  0  0  0
   20.3445   17.3410   24.3409 H   0  0  0  0  0  0  0  0  0  0  0  0
   20.5304   16.5679   22.7731 H   0  0  0  0  0  0  0  0  0  0  0  0
   20.4004   18.7244   22.6581 C   0  0  0  0  0  0  0  0  0  0  0  0
   20.0571   18.7456   21.6154 H   0  0  0  0  0  0  0  0  0  0  0  0
   21.4966   18.7681   22.6250 H   0  0  0  0  0  0  0  0  0  0  0  0
   19.8537   19.9582   23.4275 C   0  0  0  0  0  0  0  0  0  0  0  0
   18.7573   19.9320   23.4338 H   0  0  0  0  0  0  0  0  0  0  0  0
   20.1645   19.8983   24.4789 H   0  0  0  0  0  0  0  0  0  0  0  0
   20.2919   21.3277   22.8564 C   0  0  1  0  0  0  0  0  0  0  0  0
   19.7960   22.1006   23.4519 H   0  0  0  0  0  0  0  0  0  0  0  0
   21.8094   21.5510   22.9805 C   0  0  0  0  0  0  0  0  0  0  0  0
   22.3750   20.8761   22.3274 H   0  0  0  0  0  0  0  0  0  0  0  0
   22.1441   21.3918   24.0131 H   0  0  0  0  0  0  0  0  0  0  0  0
   22.0689   22.5798   22.7023 H   0  0  0  0  0  0  0  0  0  0  0  0
   19.8306   21.5333   21.4397 N   0  3  0  0  0  0  0  0  0  0  0  0
   18.8150   21.4326   21.3570 H   0  0  0  0  0  0  0  0  0  0  0  0
   20.0740   22.4676   21.0987 H   0  0  0  0  0  0  0  0  0  0  0  0
   20.2604   20.8542   20.8070 H   0  0  0  0  0  0  0  0  0  0  0  0
  1  2  1  0  0  0  0
  1  3  1  0  0  0  0
  1  4  1  0  0  0  0
  1  5  1  0  0  0  0
  5  6  1  0  0  0  0
  5  7  1  0  0  0  0
  5  8  1  0  0  0  0
  8  9  1  0  0  0  0
  8 10  1  0  0  0  0
  8 11  1  0  0  0  0
 11 12  1  0  0  0  0
 11 13  1  0  0  0  0
 11 14  1  0  0  0  0
 14 15  1  0  0  0  0
 14 16  1  0  0  0  0
 14 17  1  0  0  0  0
 17 18  1  0  0  0  0
 17 19  1  0  0  0  0
 19 20  1  0  0  0  0
 19 21  1  0  0  0  0
 19 22  1  0  0  0  0
 17 23  1  0  0  0  0
 23 24  1  0  0  0  0
 23 25  1  0  0  0  0
 23 26  1  0  0  0  0
M  END
> <VConfSearch Rank>
466

> <Conf_Id>
46

> <Delta U+W>
1.114

> <U+W>
-29.185

> <U>
24.990

> <W>
-54.175

> <W(PB)>
-56.455

> <W(SA)>
2.279

> <Valence>
3.862

> <Coulomb>
19.956

> <VdW>
1.172

> <VdW6>
-8.054

> <VdW12>
9.226

> <Bond>
0.258

> <Angle>
1.499

> <Pdih>
2.106

> <Idih>
0.000

> <Tether>
0.000

$$$$
VeraChem MOL file


 26 25  0  0  0  0  0  0  0  0999 V2000     
   17.6246   20.8052   20.5688 C   0  0  0  0  0  0  0  0  0  0  0  0
   18.5755   20.8454   20.0235 H   0  0  0  0  0  0  0  0  0  0  0  0
   17.0850   19.9023   20.2548 H   0  0  0  0  0  0  0  0  0  0  0  0
   17.0310   21.6752   20.2595 H   0  0  0  0  0  0  0  0  0  0  0  0
   17.8446   20.8176   22.0987 C   0  0  0  0  0  0  0  0  0  0  0  0
   16.8678   20.9060   22.5946 H   0  0  0  0  0  0  0  0  0  0  0  0
   18.4152   21.7127   22.3830 H   0  0  0  0  0  0  0  0  0  0  0  0
   18.5571   19.5506   22.6305 C   0  0  0  0  0  0  0  0  0  0  0  0
   18.5503   19.5923   23.7275 H   0  0  0  0  0  0  0  0  0  0  0  0
   17.9771   18.6602   22.3513 H   0  0  0  0  0  0  0  0  0  0  0  0
   20.0145   19.4046   22.1235 C   0  0  0  0  0  0  0  0  0  0  0  0
   20.5886   20.3058   22.3761 H   0  0  0  0  0  0  0  0  0  0  0  0
   20.0160   19.3408   21.0277 H   0  0  0  0  0  0  0  0  0  0  0  0
   20.7308   18.1455   22.6766 C   0  0  0  0  0  0  0  0  0  0  0  0
   20.1887   17.2532   22.3361 H   0  0  0  0  0  0  0  0  0  0  0  0
   21.7335   18.0820   22.2334 H   0  0  0  0  0  0  0  0  0  0  0  0
   20.8513   18.1042   24.2167 C   0  0  1  0  0  0  0  0  0  0  0  0
   19.8446   18.1420   24.6431 H   0  0  0  0  0  0  0  0  0  0  0  0
   21.5111   16.7909   24.6663 C   0  0  0  0  0  0  0  0  0  0  0  0
   21.5635   16.7375   25.7607 H   0  0  0  0  0  0  0  0  0  0  0  0
   22.5307   16.7027   24.2706 H   0  0  0  0  0  0  0  0  0  0  0  0
   20.9334   15.9256   24.3181 H   0  0  0  0  0  0  0  0  0  0  0  0
   21.5989   19.2882   24.7660 N   0  3  0  0  0  0  0  0  0  0  0  0
   21.1453   20.1677   24.5046 H   0  0  0  0  0  0  0  0  0  0  0  0
   21.6481   19.2593   25.7883 H   0  0  0  0  0  0  0  0  0  0  0  0
   22.5591   19.3192   24.4134 H   0  0  0  0  0  0  0  0  0  0  0  0
  1  2  1  0  0  0  0
  1  3  1  0  0  0  0
  1  4  1  0  0  0  0
  1  5  1  0  0  0  0
  5  6  1  0  0  0  0
  5  7  1  0  0  0  0
  5  8  1  0  0  0  0
  8  9  1  0  0  0  0
  8 10  1  0  0  0  0
  8 11  1  0  0  0  0
 11 12  1  0  0  0  0
 11 13  1  0  0  0  0
 11 14  1  0  0  0  0
 14 15  1  0  0  0  0
 14 16  1  0  0  0  0
 14 17  1  0  0  0  0
 17 18  1  0  0  0  0
 17 19  1  0  0  0  0
 19 20  1  0  0  0  0
 19 21  1  0  0  0  0
 19 22  1  0  0  0  0
 17 23  1  0  0  0  0
 23 24  1  0  0  0  0
 23 25  1  0  0  0  0
 23 26  1  0  0  0  0
M  END
> <VConfSearch Rank>
467

> <Conf_Id>
113

> <Delta U+W>
1.137

> <U+W>
-29.162

> <U>
24.833

> <W>
-53.995

> <W(PB)>
-56.288

> <W(SA)>
2.294

> <Valence>
3.589

> <Coulomb>
20.270

> <VdW>
0.974

> <VdW6>
-8.255

> <VdW12>
9.229

> <Bond>
0.244

> <Angle>
1.377

> <Pdih>
1.967

> <Idih>
0.000

> <Tether>
0.000

$$$$
VeraChem MOL file


 26 25  0  0  0  0  0  0  0  0999 V2000     
   22.8099   21.6651   23.2260 C   0  0  0  0  0  0  0  0  0  0  0  0
   22.7382   22.7419   23.0251 H   0  0  0  0  0  0  0  0  0  0  0  0
   23.0439   21.5358   24.2908 H   0  0  0  0  0  0  0  0  0  0  0  0
   23.6497   21.2686   22.6407 H   0  0  0  0  0  0  0  0  0  0  0  0
   21.4909   20.9531   22.8579 C   0  0  0  0  0  0  0  0  0  0  0  0
   21.2687   21.1248   21.7954 H   0  0  0  0  0  0  0  0  0  0  0  0
   20.6709   21.4042   23.4322 H   0  0  0  0  0  0  0  0  0  0  0  0
   21.5665   19.4333   23.1371 C   0  0  0  0  0  0  0  0  0  0  0  0
   22.4413   19.0186   22.6173 H   0  0  0  0  0  0  0  0  0  0  0  0
   21.7357   19.2615   24.2090 H   0  0  0  0  0  0  0  0  0  0  0  0
   20.3091   18.6549   22.6778 C   0  0  0  0  0  0  0  0  0  0  0  0
   20.5061   17.5825   22.8056 H   0  0  0  0  0  0  0  0  0  0  0  0
   20.1604   18.8172   21.6020 H   0  0  0  0  0  0  0  0  0  0  0  0
   19.0248   19.0437   23.4601 C   0  0  0  0  0  0  0  0  0  0  0  0
   19.2245   18.9799   24.5377 H   0  0  0  0  0  0  0  0  0  0  0  0
   18.7730   20.0925   23.2595 H   0  0  0  0  0  0  0  0  0  0  0  0
   17.7828   18.1786   23.1401 C   0  0  1  0  0  0  0  0  0  0  0  0
   16.9604   18.5492   23.7599 H   0  0  0  0  0  0  0  0  0  0  0  0
   17.3520   18.3087   21.6687 C   0  0  0  0  0  0  0  0  0  0  0  0
   18.0922   17.8697   20.9892 H   0  0  0  0  0  0  0  0  0  0  0  0
   17.2150   19.3621   21.3943 H   0  0  0  0  0  0  0  0  0  0  0  0
   16.3975   17.7948   21.5015 H   0  0  0  0  0  0  0  0  0  0  0  0
   17.9723   16.7358   23.5209 N   0  3  0  0  0  0  0  0  0  0  0  0
   18.2176   16.6375   24.5101 H   0  0  0  0  0  0  0  0  0  0  0  0
   17.1194   16.1919   23.3622 H   0  0  0  0  0  0  0  0  0  0  0  0
   18.7191   16.3013   22.9734 H   0  0  0  0  0  0  0  0  0  0  0  0
  1  2  1  0  0  0  0
  1  3  1  0  0  0  0
  1  4  1  0  0  0  0
  1  5  1  0  0  0  0
  5  6  1  0  0  0  0
  5  7  1  0  0  0  0
  5  8  1  0  0  0  0
  8  9  1  0  0  0  0
  8 10  1  0  0  0  0
  8 11  1  0  0  0  0
 11 12  1  0  0  0  0
 11 13  1  0  0  0  0
 11 14  1  0  0  0  0
 14 15  1  0  0  0  0
 14 16  1  0  0  0  0
 14 17  1  0  0  0  0
 17 18  1  0  0  0  0
 17 19  1  0  0  0  0
 19 20  1  0  0  0  0
 19 21  1  0  0  0  0
 19 22  1  0  0  0  0
 17 23  1  0  0  0  0
 23 24  1  0  0  0  0
 23 25  1  0  0  0  0
 23 26  1  0  0  0  0
M  END
> <VConfSearch Rank>
468

> <Conf_Id>
45

> <Delta U+W>
1.035

> <U+W>
-29.264

> <U>
24.725

> <W>
-53.989

> <W(PB)>
-56.298

> <W(SA)>
2.309

> <Valence>
3.780

> <Coulomb>
19.804

> <VdW>
1.141

> <VdW6>
-8.104

> <VdW12>
9.246

> <Bond>
0.254

> <Angle>
1.437

> <Pdih>
2.089

> <Idih>
0.000

> <Tether>
0.000

$$$$
VeraChem MOL file


 26 25  0  0  0  0  0  0  0  0999 V2000     
   17.4161   15.9596   22.8257 C   0  0  0  0  0  0  0  0  0  0  0  0
   17.7756   14.9302   22.6987 H   0  0  0  0  0  0  0  0  0  0  0  0
   16.6898   15.9633   23.6490 H   0  0  0  0  0  0  0  0  0  0  0  0
   16.8918   16.2495   21.9058 H   0  0  0  0  0  0  0  0  0  0  0  0
   18.5923   16.9154   23.1182 C   0  0  0  0  0  0  0  0  0  0  0  0
   19.3147   16.8516   22.2939 H   0  0  0  0  0  0  0  0  0  0  0  0
   19.1140   16.5830   24.0265 H   0  0  0  0  0  0  0  0  0  0  0  0
   18.1097   18.3745   23.2967 C   0  0  0  0  0  0  0  0  0  0  0  0
   17.6383   18.7253   22.3682 H   0  0  0  0  0  0  0  0  0  0  0  0
   17.3264   18.3978   24.0670 H   0  0  0  0  0  0  0  0  0  0  0  0
   19.2333   19.3560   23.7122 C   0  0  0  0  0  0  0  0  0  0  0  0
   19.7024   19.0047   24.6417 H   0  0  0  0  0  0  0  0  0  0  0  0
   18.7688   20.3227   23.9467 H   0  0  0  0  0  0  0  0  0  0  0  0
   20.3177   19.5534   22.6216 C   0  0  0  0  0  0  0  0  0  0  0  0
   20.7961   18.5899   22.4071 H   0  0  0  0  0  0  0  0  0  0  0  0
   19.8483   19.8870   21.6866 H   0  0  0  0  0  0  0  0  0  0  0  0
   21.4148   20.5576   23.0381 C   0  0  1  0  0  0  0  0  0  0  0  0
   21.8421   20.2237   23.9888 H   0  0  0  0  0  0  0  0  0  0  0  0
   22.5379   20.5873   21.9889 C   0  0  0  0  0  0  0  0  0  0  0  0
   22.1607   20.9173   21.0128 H   0  0  0  0  0  0  0  0  0  0  0  0
   22.9824   19.5920   21.8647 H   0  0  0  0  0  0  0  0  0  0  0  0
   23.3379   21.2724   22.2956 H   0  0  0  0  0  0  0  0  0  0  0  0
   20.8740   21.9426   23.2684 N   0  3  0  0  0  0  0  0  0  0  0  0
   20.1576   21.9484   23.9991 H   0  0  0  0  0  0  0  0  0  0  0  0
   21.6128   22.5889   23.5598 H   0  0  0  0  0  0  0  0  0  0  0  0
   20.4509   22.3243   22.4184 H   0  0  0  0  0  0  0  0  0  0  0  0
  1  2  1  0  0  0  0
  1  3  1  0  0  0  0
  1  4  1  0  0  0  0
  1  5  1  0  0  0  0
  5  6  1  0  0  0  0
  5  7  1  0  0  0  0
  5  8  1  0  0  0  0
  8  9  1  0  0  0  0
  8 10  1  0  0  0  0
  8 11  1  0  0  0  0
 11 12  1  0  0  0  0
 11 13  1  0  0  0  0
 11 14  1  0  0  0  0
 14 15  1  0  0  0  0
 14 16  1  0  0  0  0
 14 17  1  0  0  0  0
 17 18  1  0  0  0  0
 17 19  1  0  0  0  0
 19 20  1  0  0  0  0
 19 21  1  0  0  0  0
 19 22  1  0  0  0  0
 17 23  1  0  0  0  0
 23 24  1  0  0  0  0
 23 25  1  0  0  0  0
 23 26  1  0  0  0  0
M  END
> <VConfSearch Rank>
469

> <Conf_Id>
121

> <Delta U+W>
0.736

> <U+W>
-29.562

> <U>
24.282

> <W>
-53.844

> <W(PB)>
-56.205

> <W(SA)>
2.361

> <Valence>
3.311

> <Coulomb>
19.887

> <VdW>
1.083

> <VdW6>
-7.444

> <VdW12>
8.527

> <Bond>
0.219

> <Angle>
1.167

> <Pdih>
1.926

> <Idih>
0.000

> <Tether>
0.000

$$$$
VeraChem MOL file


 26 25  0  0  0  0  0  0  0  0999 V2000     
   19.7174   20.2613   26.4598 C   0  0  0  0  0  0  0  0  0  0  0  0
   20.2218   20.5663   27.3858 H   0  0  0  0  0  0  0  0  0  0  0  0
   18.8063   20.8653   26.3596 H   0  0  0  0  0  0  0  0  0  0  0  0
   19.4233   19.2110   26.5762 H   0  0  0  0  0  0  0  0  0  0  0  0
   20.6523   20.4595   25.2450 C   0  0  0  0  0  0  0  0  0  0  0  0
   21.5393   19.8196   25.3524 H   0  0  0  0  0  0  0  0  0  0  0  0
   21.0190   21.4955   25.2476 H   0  0  0  0  0  0  0  0  0  0  0  0
   19.9665   20.1804   23.8857 C   0  0  0  0  0  0  0  0  0  0  0  0
   19.0855   20.8284   23.7799 H   0  0  0  0  0  0  0  0  0  0  0  0
   20.6627   20.4713   23.0882 H   0  0  0  0  0  0  0  0  0  0  0  0
   19.5520   18.6990   23.6972 C   0  0  0  0  0  0  0  0  0  0  0  0
   18.8441   18.4135   24.4860 H   0  0  0  0  0  0  0  0  0  0  0  0
   20.4265   18.0479   23.8264 H   0  0  0  0  0  0  0  0  0  0  0  0
   18.8781   18.4218   22.3281 C   0  0  0  0  0  0  0  0  0  0  0  0
   18.5893   17.3634   22.2815 H   0  0  0  0  0  0  0  0  0  0  0  0
   17.9425   18.9945   22.2806 H   0  0  0  0  0  0  0  0  0  0  0  0
   19.7353   18.7698   21.0879 C   0  0  1  0  0  0  0  0  0  0  0  0
   20.0054   19.8285   21.1401 H   0  0  0  0  0  0  0  0  0  0  0  0
   21.0298   17.9395   21.0272 C   0  0  0  0  0  0  0  0  0  0  0  0
   20.8120   16.8642   21.0310 H   0  0  0  0  0  0  0  0  0  0  0  0
   21.6844   18.1609   21.8782 H   0  0  0  0  0  0  0  0  0  0  0  0
   21.5942   18.1694   20.1152 H   0  0  0  0  0  0  0  0  0  0  0  0
   18.9465   18.5996   19.8192 N   0  3  0  0  0  0  0  0  0  0  0  0
   18.1008   19.1771   19.8202 H   0  0  0  0  0  0  0  0  0  0  0  0
   19.4963   18.8670   18.9979 H   0  0  0  0  0  0  0  0  0  0  0  0
   18.6546   17.6276   19.6874 H   0  0  0  0  0  0  0  0  0  0  0  0
  1  2  1  0  0  0  0
  1  3  1  0  0  0  0
  1  4  1  0  0  0  0
  1  5  1  0  0  0  0
  5  6  1  0  0  0  0
  5  7  1  0  0  0  0
  5  8  1  0  0  0  0
  8  9  1  0  0  0  0
  8 10  1  0  0  0  0
  8 11  1  0  0  0  0
 11 12  1  0  0  0  0
 11 13  1  0  0  0  0
 11 14  1  0  0  0  0
 14 15  1  0  0  0  0
 14 16  1  0  0  0  0
 14 17  1  0  0  0  0
 17 18  1  0  0  0  0
 17 19  1  0  0  0  0
 19 20  1  0  0  0  0
 19 21  1  0  0  0  0
 19 22  1  0  0  0  0
 17 23  1  0  0  0  0
 23 24  1  0  0  0  0
 23 25  1  0  0  0  0
 23 26  1  0  0  0  0
M  END
> <VConfSearch Rank>
470

> <Conf_Id>
5

> <Delta U+W>
1.233

> <U+W>
-29.065

> <U>
25.023

> <W>
-54.088

> <W(PB)>
-56.383

> <W(SA)>
2.296

> <Valence>
4.083

> <Coulomb>
19.893

> <VdW>
1.047

> <VdW6>
-8.479

> <VdW12>
9.527

> <Bond>
0.256

> <Angle>
1.716

> <Pdih>
2.112

> <Idih>
0.000

> <Tether>
0.000

$$$$
VeraChem MOL file


 26 25  0  0  0  0  0  0  0  0999 V2000     
   21.9774   21.8505   21.7031 C   0  0  0  0  0  0  0  0  0  0  0  0
   22.3950   22.8653   21.7309 H   0  0  0  0  0  0  0  0  0  0  0  0
   22.7603   21.1637   22.0474 H   0  0  0  0  0  0  0  0  0  0  0  0
   21.7453   21.6120   20.6571 H   0  0  0  0  0  0  0  0  0  0  0  0
   20.7126   21.7626   22.5873 C   0  0  0  0  0  0  0  0  0  0  0  0
   20.0152   22.5557   22.2831 H   0  0  0  0  0  0  0  0  0  0  0  0
   20.9767   21.9709   23.6336 H   0  0  0  0  0  0  0  0  0  0  0  0
   19.9844   20.4000   22.4914 C   0  0  0  0  0  0  0  0  0  0  0  0
   19.0356   20.4864   23.0367 H   0  0  0  0  0  0  0  0  0  0  0  0
   19.7275   20.1948   21.4431 H   0  0  0  0  0  0  0  0  0  0  0  0
   20.8036   19.2204   23.0722 C   0  0  0  0  0  0  0  0  0  0  0  0
   21.0317   19.4190   24.1285 H   0  0  0  0  0  0  0  0  0  0  0  0
   21.7697   19.1547   22.5557 H   0  0  0  0  0  0  0  0  0  0  0  0
   20.1026   17.8435   22.9489 C   0  0  0  0  0  0  0  0  0  0  0  0
   19.9471   17.5944   21.8907 H   0  0  0  0  0  0  0  0  0  0  0  0
   20.7988   17.0852   23.3308 H   0  0  0  0  0  0  0  0  0  0  0  0
   18.7689   17.7485   23.7293 C   0  0  1  0  0  0  0  0  0  0  0  0
   18.7434   18.5613   24.4617 H   0  0  0  0  0  0  0  0  0  0  0  0
   17.5540   17.8886   22.7939 C   0  0  0  0  0  0  0  0  0  0  0  0
   17.5113   17.0602   22.0756 H   0  0  0  0  0  0  0  0  0  0  0  0
   17.5897   18.8248   22.2258 H   0  0  0  0  0  0  0  0  0  0  0  0
   16.6205   17.8859   23.3700 H   0  0  0  0  0  0  0  0  0  0  0  0
   18.6682   16.4715   24.5179 N   0  3  0  0  0  0  0  0  0  0  0  0
   19.4413   16.3775   25.1829 H   0  0  0  0  0  0  0  0  0  0  0  0
   17.7978   16.4317   25.0559 H   0  0  0  0  0  0  0  0  0  0  0  0
   18.6865   15.6511   23.9061 H   0  0  0  0  0  0  0  0  0  0  0  0
  1  2  1  0  0  0  0
  1  3  1  0  0  0  0
  1  4  1  0  0  0  0
  1  5  1  0  0  0  0
  5  6  1  0  0  0  0
  5  7  1  0  0  0  0
  5  8  1  0  0  0  0
  8  9  1  0  0  0  0
  8 10  1  0  0  0  0
  8 11  1  0  0  0  0
 11 12  1  0  0  0  0
 11 13  1  0  0  0  0
 11 14  1  0  0  0  0
 14 15  1  0  0  0  0
 14 16  1  0  0  0  0
 14 17  1  0  0  0  0
 17 18  1  0  0  0  0
 17 19  1  0  0  0  0
 19 20  1  0  0  0  0
 19 21  1  0  0  0  0
 19 22  1  0  0  0  0
 17 23  1  0  0  0  0
 23 24  1  0  0  0  0
 23 25  1  0  0  0  0
 23 26  1  0  0  0  0
M  END
> <VConfSearch Rank>
471

> <Conf_Id>
100

> <Delta U+W>
3.818

> <U+W>
-26.481

> <U>
27.496

> <W>
-53.977

> <W(PB)>
-56.267

> <W(SA)>
2.290

> <Valence>
6.472

> <Coulomb>
19.839

> <VdW>
1.185

> <VdW6>
-8.405

> <VdW12>
9.590

> <Bond>
0.248

> <Angle>
1.619

> <Pdih>
4.604

> <Idih>
0.000

> <Tether>
0.000

$$$$
VeraChem MOL file


 26 25  0  0  0  0  0  0  0  0999 V2000     
   22.0769   20.0786   25.7025 C   0  0  0  0  0  0  0  0  0  0  0  0
   23.0915   20.4638   25.8671 H   0  0  0  0  0  0  0  0  0  0  0  0
   21.3747   20.9125   25.8322 H   0  0  0  0  0  0  0  0  0  0  0  0
   21.8693   19.3326   26.4807 H   0  0  0  0  0  0  0  0  0  0  0  0
   21.9505   19.4606   24.2938 C   0  0  0  0  0  0  0  0  0  0  0  0
   22.6881   18.6535   24.1825 H   0  0  0  0  0  0  0  0  0  0  0  0
   22.1961   20.2209   23.5392 H   0  0  0  0  0  0  0  0  0  0  0  0
   20.5306   18.9097   24.0360 C   0  0  0  0  0  0  0  0  0  0  0  0
   20.2922   18.1512   24.7944 H   0  0  0  0  0  0  0  0  0  0  0  0
   19.8024   19.7192   24.1638 H   0  0  0  0  0  0  0  0  0  0  0  0
   20.4052   18.2834   22.6253 C   0  0  0  0  0  0  0  0  0  0  0  0
   21.1345   17.4648   22.5516 H   0  0  0  0  0  0  0  0  0  0  0  0
   20.6950   19.0138   21.8589 H   0  0  0  0  0  0  0  0  0  0  0  0
   18.9935   17.7055   22.3261 C   0  0  0  0  0  0  0  0  0  0  0  0
   19.1143   16.8001   21.7169 H   0  0  0  0  0  0  0  0  0  0  0  0
   18.5237   17.3650   23.2582 H   0  0  0  0  0  0  0  0  0  0  0  0
   18.0187   18.6441   21.5722 C   0  0  1  0  0  0  0  0  0  0  0  0
   17.0777   18.0986   21.4512 H   0  0  0  0  0  0  0  0  0  0  0  0
   17.7071   19.9335   22.3491 C   0  0  0  0  0  0  0  0  0  0  0  0
   18.5818   20.5926   22.4011 H   0  0  0  0  0  0  0  0  0  0  0  0
   17.3802   19.7046   23.3709 H   0  0  0  0  0  0  0  0  0  0  0  0
   16.8992   20.4900   21.8585 H   0  0  0  0  0  0  0  0  0  0  0  0
   18.4934   18.9600   20.1801 N   0  3  0  0  0  0  0  0  0  0  0  0
   18.6510   18.1079   19.6345 H   0  0  0  0  0  0  0  0  0  0  0  0
   17.8087   19.5260   19.6710 H   0  0  0  0  0  0  0  0  0  0  0  0
   19.3725   19.4825   20.1955 H   0  0  0  0  0  0  0  0  0  0  0  0
  1  2  1  0  0  0  0
  1  3  1  0  0  0  0
  1  4  1  0  0  0  0
  1  5  1  0  0  0  0
  5  6  1  0  0  0  0
  5  7  1  0  0  0  0
  5  8  1  0  0  0  0
  8  9  1  0  0  0  0
  8 10  1  0  0  0  0
  8 11  1  0  0  0  0
 11 12  1  0  0  0  0
 11 13  1  0  0  0  0
 11 14  1  0  0  0  0
 14 15  1  0  0  0  0
 14 16  1  0  0  0  0
 14 17  1  0  0  0  0
 17 18  1  0  0  0  0
 17 19  1  0  0  0  0
 19 20  1  0  0  0  0
 19 21  1  0  0  0  0
 19 22  1  0  0  0  0
 17 23  1  0  0  0  0
 23 24  1  0  0  0  0
 23 25  1  0  0  0  0
 23 26  1  0  0  0  0
M  END
> <VConfSearch Rank>
472

> <Conf_Id>
142

> <Delta U+W>
2.978

> <U+W>
-27.320

> <U>
26.848

> <W>
-54.168

> <W(PB)>
-56.427

> <W(SA)>
2.259

> <Valence>
5.823

> <Coulomb>
20.057

> <VdW>
0.968

> <VdW6>
-8.367

> <VdW12>
9.335

> <Bond>
0.267

> <Angle>
1.799

> <Pdih>
3.758

> <Idih>
0.000

> <Tether>
0.000

$$$$
VeraChem MOL file


 26 25  0  0  0  0  0  0  0  0999 V2000     
   21.2463   22.1915   23.7772 C   0  0  0  0  0  0  0  0  0  0  0  0
   20.4104   22.4912   24.4225 H   0  0  0  0  0  0  0  0  0  0  0  0
   22.1202   22.7923   24.0605 H   0  0  0  0  0  0  0  0  0  0  0  0
   20.9921   22.4501   22.7422 H   0  0  0  0  0  0  0  0  0  0  0  0
   21.5547   20.6845   23.9307 C   0  0  0  0  0  0  0  0  0  0  0  0
   21.9290   20.5055   24.9484 H   0  0  0  0  0  0  0  0  0  0  0  0
   22.3696   20.4012   23.2500 H   0  0  0  0  0  0  0  0  0  0  0  0
   20.3272   19.7729   23.6884 C   0  0  0  0  0  0  0  0  0  0  0  0
   20.6124   18.7536   23.9734 H   0  0  0  0  0  0  0  0  0  0  0  0
   19.5091   20.0752   24.3566 H   0  0  0  0  0  0  0  0  0  0  0  0
   19.8374   19.7765   22.2183 C   0  0  0  0  0  0  0  0  0  0  0  0
   20.6384   19.4122   21.5615 H   0  0  0  0  0  0  0  0  0  0  0  0
   19.6454   20.8105   21.9056 H   0  0  0  0  0  0  0  0  0  0  0  0
   18.5320   18.9698   21.9661 C   0  0  0  0  0  0  0  0  0  0  0  0
   17.7109   19.4212   22.5383 H   0  0  0  0  0  0  0  0  0  0  0  0
   18.2579   19.1034   20.9113 H   0  0  0  0  0  0  0  0  0  0  0  0
   18.5634   17.4457   22.2480 C   0  0  1  0  0  0  0  0  0  0  0  0
   17.6596   17.0243   21.7971 H   0  0  0  0  0  0  0  0  0  0  0  0
   19.7687   16.7496   21.5921 C   0  0  0  0  0  0  0  0  0  0  0  0
   20.7142   17.0528   22.0573 H   0  0  0  0  0  0  0  0  0  0  0  0
   19.8194   16.9870   20.5223 H   0  0  0  0  0  0  0  0  0  0  0  0
   19.6819   15.6603   21.6876 H   0  0  0  0  0  0  0  0  0  0  0  0
   18.4653   17.1114   23.7113 N   0  3  0  0  0  0  0  0  0  0  0  0
   17.6236   17.5152   24.1319 H   0  0  0  0  0  0  0  0  0  0  0  0
   18.4251   16.0992   23.8609 H   0  0  0  0  0  0  0  0  0  0  0  0
   19.2702   17.4677   24.2302 H   0  0  0  0  0  0  0  0  0  0  0  0
  1  2  1  0  0  0  0
  1  3  1  0  0  0  0
  1  4  1  0  0  0  0
  1  5  1  0  0  0  0
  5  6  1  0  0  0  0
  5  7  1  0  0  0  0
  5  8  1  0  0  0  0
  8  9  1  0  0  0  0
  8 10  1  0  0  0  0
  8 11  1  0  0  0  0
 11 12  1  0  0  0  0
 11 13  1  0  0  0  0
 11 14  1  0  0  0  0
 14 15  1  0  0  0  0
 14 16  1  0  0  0  0
 14 17  1  0  0  0  0
 17 18  1  0  0  0  0
 17 19  1  0  0  0  0
 19 20  1  0  0  0  0
 19 21  1  0  0  0  0
 19 22  1  0  0  0  0
 17 23  1  0  0  0  0
 23 24  1  0  0  0  0
 23 25  1  0  0  0  0
 23 26  1  0  0  0  0
M  END
> <VConfSearch Rank>
473

> <Conf_Id>
119

> <Delta U+W>
3.538

> <U+W>
-26.761

> <U>
27.482

> <W>
-54.243

> <W(PB)>
-56.494

> <W(SA)>
2.251

> <Valence>
5.284

> <Coulomb>
21.247

> <VdW>
0.951

> <VdW6>
-9.416

> <VdW12>
10.367

> <Bond>
0.323

> <Angle>
2.522

> <Pdih>
2.439

> <Idih>
0.000

> <Tether>
0.000

$$$$
VeraChem MOL file


 26 25  0  0  0  0  0  0  0  0999 V2000     
   17.2739   21.2496   21.8834 C   0  0  0  0  0  0  0  0  0  0  0  0
   16.4322   20.5646   21.7181 H   0  0  0  0  0  0  0  0  0  0  0  0
   17.3690   21.4245   22.9622 H   0  0  0  0  0  0  0  0  0  0  0  0
   17.0222   22.2098   21.4148 H   0  0  0  0  0  0  0  0  0  0  0  0
   18.5796   20.6808   21.2830 C   0  0  0  0  0  0  0  0  0  0  0  0
   19.4112   21.3691   21.4888 H   0  0  0  0  0  0  0  0  0  0  0  0
   18.4779   20.6402   20.1895 H   0  0  0  0  0  0  0  0  0  0  0  0
   18.9315   19.2655   21.8016 C   0  0  0  0  0  0  0  0  0  0  0  0
   18.1076   18.5770   21.5687 H   0  0  0  0  0  0  0  0  0  0  0  0
   19.7994   18.9004   21.2400 H   0  0  0  0  0  0  0  0  0  0  0  0
   19.2273   19.2235   23.3230 C   0  0  0  0  0  0  0  0  0  0  0  0
   18.3059   19.4795   23.8623 H   0  0  0  0  0  0  0  0  0  0  0  0
   19.9581   19.9981   23.5883 H   0  0  0  0  0  0  0  0  0  0  0  0
   19.7008   17.8291   23.8208 C   0  0  0  0  0  0  0  0  0  0  0  0
   19.2747   17.6558   24.8178 H   0  0  0  0  0  0  0  0  0  0  0  0
   19.2760   17.0412   23.1849 H   0  0  0  0  0  0  0  0  0  0  0  0
   21.2332   17.6314   23.9307 C   0  0  1  0  0  0  0  0  0  0  0  0
   21.4009   16.6082   24.2810 H   0  0  0  0  0  0  0  0  0  0  0  0
   21.9541   17.7809   22.5812 C   0  0  0  0  0  0  0  0  0  0  0  0
   21.9207   18.8157   22.2200 H   0  0  0  0  0  0  0  0  0  0  0  0
   21.5007   17.1311   21.8226 H   0  0  0  0  0  0  0  0  0  0  0  0
   23.0086   17.4943   22.6764 H   0  0  0  0  0  0  0  0  0  0  0  0
   21.8503   18.5283   24.9691 N   0  3  0  0  0  0  0  0  0  0  0  0
   21.4140   18.3969   25.8861 H   0  0  0  0  0  0  0  0  0  0  0  0
   22.8511   18.3412   25.0776 H   0  0  0  0  0  0  0  0  0  0  0  0
   21.7480   19.5144   24.7181 H   0  0  0  0  0  0  0  0  0  0  0  0
  1  2  1  0  0  0  0
  1  3  1  0  0  0  0
  1  4  1  0  0  0  0
  1  5  1  0  0  0  0
  5  6  1  0  0  0  0
  5  7  1  0  0  0  0
  5  8  1  0  0  0  0
  8  9  1  0  0  0  0
  8 10  1  0  0  0  0
  8 11  1  0  0  0  0
 11 12  1  0  0  0  0
 11 13  1  0  0  0  0
 11 14  1  0  0  0  0
 14 15  1  0  0  0  0
 14 16  1  0  0  0  0
 14 17  1  0  0  0  0
 17 18  1  0  0  0  0
 17 19  1  0  0  0  0
 19 20  1  0  0  0  0
 19 21  1  0  0  0  0
 19 22  1  0  0  0  0
 17 23  1  0  0  0  0
 23 24  1  0  0  0  0
 23 25  1  0  0  0  0
 23 26  1  0  0  0  0
M  END
> <VConfSearch Rank>
474

> <Conf_Id>
127

> <Delta U+W>
3.544

> <U+W>
-26.754

> <U>
27.509

> <W>
-54.263

> <W(PB)>
-56.496

> <W(SA)>
2.232

> <Valence>
6.375

> <Coulomb>
20.014

> <VdW>
1.120

> <VdW6>
-8.976

> <VdW12>
10.096

> <Bond>
0.304

> <Angle>
1.986

> <Pdih>
4.086

> <Idih>
0.000

> <Tether>
0.000

$$$$
VeraChem MOL file


 26 25  0  0  0  0  0  0  0  0999 V2000     
   21.3480   17.8498   20.4642 C   0  0  0  0  0  0  0  0  0  0  0  0
   21.9226   16.9372   20.2595 H   0  0  0  0  0  0  0  0  0  0  0  0
   21.3562   18.4597   19.5515 H   0  0  0  0  0  0  0  0  0  0  0  0
   21.8765   18.4064   21.2458 H   0  0  0  0  0  0  0  0  0  0  0  0
   19.9004   17.4959   20.8778 C   0  0  0  0  0  0  0  0  0  0  0  0
   19.9045   16.8241   21.7474 H   0  0  0  0  0  0  0  0  0  0  0  0
   19.4445   16.9242   20.0573 H   0  0  0  0  0  0  0  0  0  0  0  0
   19.0201   18.7404   21.1612 C   0  0  0  0  0  0  0  0  0  0  0  0
   19.3663   19.5953   20.5641 H   0  0  0  0  0  0  0  0  0  0  0  0
   18.0023   18.5262   20.8068 H   0  0  0  0  0  0  0  0  0  0  0  0
   18.9180   19.1406   22.6559 C   0  0  0  0  0  0  0  0  0  0  0  0
   18.4704   18.3106   23.2184 H   0  0  0  0  0  0  0  0  0  0  0  0
   18.2124   19.9778   22.7290 H   0  0  0  0  0  0  0  0  0  0  0  0
   20.2722   19.5415   23.2995 C   0  0  0  0  0  0  0  0  0  0  0  0
   20.9375   18.6698   23.3107 H   0  0  0  0  0  0  0  0  0  0  0  0
   20.7645   20.2983   22.6747 H   0  0  0  0  0  0  0  0  0  0  0  0
   20.1729   20.0767   24.7478 C   0  0  1  0  0  0  0  0  0  0  0  0
   21.1949   20.2443   25.1016 H   0  0  0  0  0  0  0  0  0  0  0  0
   19.4329   21.4242   24.8204 C   0  0  0  0  0  0  0  0  0  0  0  0
   19.8741   22.1495   24.1256 H   0  0  0  0  0  0  0  0  0  0  0  0
   19.5048   21.8461   25.8303 H   0  0  0  0  0  0  0  0  0  0  0  0
   18.3690   21.3188   24.5780 H   0  0  0  0  0  0  0  0  0  0  0  0
   19.5643   19.0751   25.6904 N   0  3  0  0  0  0  0  0  0  0  0  0
   20.0807   18.1910   25.6837 H   0  0  0  0  0  0  0  0  0  0  0  0
   19.5627   19.4211   26.6541 H   0  0  0  0  0  0  0  0  0  0  0  0
   18.5951   18.8683   25.4369 H   0  0  0  0  0  0  0  0  0  0  0  0
  1  2  1  0  0  0  0
  1  3  1  0  0  0  0
  1  4  1  0  0  0  0
  1  5  1  0  0  0  0
  5  6  1  0  0  0  0
  5  7  1  0  0  0  0
  5  8  1  0  0  0  0
  8  9  1  0  0  0  0
  8 10  1  0  0  0  0
  8 11  1  0  0  0  0
 11 12  1  0  0  0  0
 11 13  1  0  0  0  0
 11 14  1  0  0  0  0
 14 15  1  0  0  0  0
 14 16  1  0  0  0  0
 14 17  1  0  0  0  0
 17 18  1  0  0  0  0
 17 19  1  0  0  0  0
 19 20  1  0  0  0  0
 19 21  1  0  0  0  0
 19 22  1  0  0  0  0
 17 23  1  0  0  0  0
 23 24  1  0  0  0  0
 23 25  1  0  0  0  0
 23 26  1  0  0  0  0
M  END
> <VConfSearch Rank>
475

> <Conf_Id>
131

> <Delta U+W>
3.589

> <U+W>
-26.710

> <U>
27.573

> <W>
-54.283

> <W(PB)>
-56.537

> <W(SA)>
2.254

> <Valence>
6.363

> <Coulomb>
20.026

> <VdW>
1.184

> <VdW6>
-8.939

> <VdW12>
10.123

> <Bond>
0.298

> <Angle>
2.018

> <Pdih>
4.047

> <Idih>
0.000

> <Tether>
0.000

$$$$
VeraChem MOL file


 26 25  0  0  0  0  0  0  0  0999 V2000     
   19.1819   16.4649   23.8690 C   0  0  0  0  0  0  0  0  0  0  0  0
   20.2478   16.4062   24.1246 H   0  0  0  0  0  0  0  0  0  0  0  0
   18.7745   17.3988   24.2752 H   0  0  0  0  0  0  0  0  0  0  0  0
   18.6690   15.6370   24.3754 H   0  0  0  0  0  0  0  0  0  0  0  0
   18.9688   16.3778   22.3421 C   0  0  0  0  0  0  0  0  0  0  0  0
   17.9020   16.5128   22.1153 H   0  0  0  0  0  0  0  0  0  0  0  0
   19.2242   15.3624   22.0083 H   0  0  0  0  0  0  0  0  0  0  0  0
   19.8071   17.3900   21.5202 C   0  0  0  0  0  0  0  0  0  0  0  0
   20.8788   17.1887   21.6544 H   0  0  0  0  0  0  0  0  0  0  0  0
   19.6023   17.2011   20.4572 H   0  0  0  0  0  0  0  0  0  0  0  0
   19.4958   18.8810   21.8139 C   0  0  0  0  0  0  0  0  0  0  0  0
   18.4462   18.9825   22.1183 H   0  0  0  0  0  0  0  0  0  0  0  0
   19.5983   19.4476   20.8780 H   0  0  0  0  0  0  0  0  0  0  0  0
   20.4461   19.5131   22.8652 C   0  0  0  0  0  0  0  0  0  0  0  0
   20.3626   18.9928   23.8258 H   0  0  0  0  0  0  0  0  0  0  0  0
   21.4805   19.3681   22.5270 H   0  0  0  0  0  0  0  0  0  0  0  0
   20.2126   21.0258   23.0805 C   0  0  1  0  0  0  0  0  0  0  0  0
   20.2465   21.5211   22.1052 H   0  0  0  0  0  0  0  0  0  0  0  0
   18.8459   21.3139   23.7276 C   0  0  0  0  0  0  0  0  0  0  0  0
   18.7400   20.7857   24.6834 H   0  0  0  0  0  0  0  0  0  0  0  0
   18.0214   21.0086   23.0733 H   0  0  0  0  0  0  0  0  0  0  0  0
   18.7273   22.3877   23.9178 H   0  0  0  0  0  0  0  0  0  0  0  0
   21.3149   21.6337   23.9029 N   0  3  0  0  0  0  0  0  0  0  0  0
   21.3522   21.2247   24.8403 H   0  0  0  0  0  0  0  0  0  0  0  0
   22.2315   21.4924   23.4688 H   0  0  0  0  0  0  0  0  0  0  0  0
   21.1845   22.6431   24.0153 H   0  0  0  0  0  0  0  0  0  0  0  0
  1  2  1  0  0  0  0
  1  3  1  0  0  0  0
  1  4  1  0  0  0  0
  1  5  1  0  0  0  0
  5  6  1  0  0  0  0
  5  7  1  0  0  0  0
  5  8  1  0  0  0  0
  8  9  1  0  0  0  0
  8 10  1  0  0  0  0
  8 11  1  0  0  0  0
 11 12  1  0  0  0  0
 11 13  1  0  0  0  0
 11 14  1  0  0  0  0
 14 15  1  0  0  0  0
 14 16  1  0  0  0  0
 14 17  1  0  0  0  0
 17 18  1  0  0  0  0
 17 19  1  0  0  0  0
 19 20  1  0  0  0  0
 19 21  1  0  0  0  0
 19 22  1  0  0  0  0
 17 23  1  0  0  0  0
 23 24  1  0  0  0  0
 23 25  1  0  0  0  0
 23 26  1  0  0  0  0
M  END
> <VConfSearch Rank>
476

> <Conf_Id>
80

> <Delta U+W>
3.351

> <U+W>
-26.948

> <U>
27.261

> <W>
-54.209

> <W(PB)>
-56.471

> <W(SA)>
2.263

> <Valence>
6.230

> <Coulomb>
19.945

> <VdW>
1.087

> <VdW6>
-8.618

> <VdW12>
9.704

> <Bond>
0.277

> <Angle>
1.928

> <Pdih>
4.025

> <Idih>
0.000

> <Tether>
0.000

$$$$
VeraChem MOL file


 26 25  0  0  0  0  0  0  0  0999 V2000     
   19.5102   15.8513   22.5655 C   0  0  0  0  0  0  0  0  0  0  0  0
   18.8859   15.0681   23.0145 H   0  0  0  0  0  0  0  0  0  0  0  0
   19.9567   15.4419   21.6501 H   0  0  0  0  0  0  0  0  0  0  0  0
   20.3179   16.0750   23.2736 H   0  0  0  0  0  0  0  0  0  0  0  0
   18.6644   17.1075   22.2578 C   0  0  0  0  0  0  0  0  0  0  0  0
   18.2517   17.5129   23.1906 H   0  0  0  0  0  0  0  0  0  0  0  0
   17.7956   16.8077   21.6553 H   0  0  0  0  0  0  0  0  0  0  0  0
   19.4400   18.2061   21.4852 C   0  0  0  0  0  0  0  0  0  0  0  0
   19.6989   17.8127   20.4926 H   0  0  0  0  0  0  0  0  0  0  0  0
   18.7609   19.0455   21.2976 H   0  0  0  0  0  0  0  0  0  0  0  0
   20.7460   18.7120   22.1610 C   0  0  0  0  0  0  0  0  0  0  0  0
   21.2479   19.4251   21.4926 H   0  0  0  0  0  0  0  0  0  0  0  0
   21.4413   17.8664   22.2456 H   0  0  0  0  0  0  0  0  0  0  0  0
   20.5771   19.3560   23.5658 C   0  0  0  0  0  0  0  0  0  0  0  0
   19.7521   18.8908   24.1167 H   0  0  0  0  0  0  0  0  0  0  0  0
   21.4812   19.1226   24.1434 H   0  0  0  0  0  0  0  0  0  0  0  0
   20.4170   20.8955   23.5704 C   0  0  1  0  0  0  0  0  0  0  0  0
   21.2887   21.3306   23.0719 H   0  0  0  0  0  0  0  0  0  0  0  0
   19.1557   21.3709   22.8306 C   0  0  0  0  0  0  0  0  0  0  0  0
   19.2440   21.1923   21.7533 H   0  0  0  0  0  0  0  0  0  0  0  0
   19.0111   22.4499   22.9646 H   0  0  0  0  0  0  0  0  0  0  0  0
   18.2592   20.8578   23.2003 H   0  0  0  0  0  0  0  0  0  0  0  0
   20.4258   21.4309   24.9757 N   0  3  0  0  0  0  0  0  0  0  0  0
   21.2803   21.1675   25.4747 H   0  0  0  0  0  0  0  0  0  0  0  0
   20.3704   22.4533   24.9867 H   0  0  0  0  0  0  0  0  0  0  0  0
   19.6322   21.0765   25.5160 H   0  0  0  0  0  0  0  0  0  0  0  0
  1  2  1  0  0  0  0
  1  3  1  0  0  0  0
  1  4  1  0  0  0  0
  1  5  1  0  0  0  0
  5  6  1  0  0  0  0
  5  7  1  0  0  0  0
  5  8  1  0  0  0  0
  8  9  1  0  0  0  0
  8 10  1  0  0  0  0
  8 11  1  0  0  0  0
 11 12  1  0  0  0  0
 11 13  1  0  0  0  0
 11 14  1  0  0  0  0
 14 15  1  0  0  0  0
 14 16  1  0  0  0  0
 14 17  1  0  0  0  0
 17 18  1  0  0  0  0
 17 19  1  0  0  0  0
 19 20  1  0  0  0  0
 19 21  1  0  0  0  0
 19 22  1  0  0  0  0
 17 23  1  0  0  0  0
 23 24  1  0  0  0  0
 23 25  1  0  0  0  0
 23 26  1  0  0  0  0
M  END
> <VConfSearch Rank>
477

> <Conf_Id>
136

> <Delta U+W>
4.272

> <U+W>
-26.026

> <U>
28.262

> <W>
-54.288

> <W(PB)>
-56.488

> <W(SA)>
2.200

> <Valence>
7.096

> <Coulomb>
19.990

> <VdW>
1.175

> <VdW6>
-9.404

> <VdW12>
10.580

> <Bond>
0.360

> <Angle>
2.785

> <Pdih>
3.951

> <Idih>
0.000

> <Tether>
0.000

$$$$
VeraChem MOL file


 26 25  0  0  0  0  0  0  0  0999 V2000     
   19.0775   21.0588   20.7892 C   0  0  0  0  0  0  0  0  0  0  0  0
   18.5703   21.0345   21.7615 H   0  0  0  0  0  0  0  0  0  0  0  0
   18.6856   21.9227   20.2369 H   0  0  0  0  0  0  0  0  0  0  0  0
   18.8083   20.1531   20.2305 H   0  0  0  0  0  0  0  0  0  0  0  0
   20.6082   21.1755   20.9573 C   0  0  0  0  0  0  0  0  0  0  0  0
   20.8412   22.0596   21.5671 H   0  0  0  0  0  0  0  0  0  0  0  0
   21.0577   21.3593   19.9715 H   0  0  0  0  0  0  0  0  0  0  0  0
   21.2802   19.9244   21.5787 C   0  0  0  0  0  0  0  0  0  0  0  0
   21.1387   19.0543   20.9229 H   0  0  0  0  0  0  0  0  0  0  0  0
   22.3636   20.1070   21.5977 H   0  0  0  0  0  0  0  0  0  0  0  0
   20.8205   19.5921   23.0222 C   0  0  0  0  0  0  0  0  0  0  0  0
   20.5048   20.5104   23.5365 H   0  0  0  0  0  0  0  0  0  0  0  0
   21.6887   19.2136   23.5780 H   0  0  0  0  0  0  0  0  0  0  0  0
   19.6941   18.5274   23.0773 C   0  0  0  0  0  0  0  0  0  0  0  0
   18.8583   18.8394   22.4410 H   0  0  0  0  0  0  0  0  0  0  0  0
   20.0618   17.5809   22.6593 H   0  0  0  0  0  0  0  0  0  0  0  0
   19.1626   18.2890   24.5073 C   0  0  1  0  0  0  0  0  0  0  0  0
   18.8253   19.2485   24.9115 H   0  0  0  0  0  0  0  0  0  0  0  0
   17.9621   17.3294   24.4784 C   0  0  0  0  0  0  0  0  0  0  0  0
   18.2480   16.3477   24.0805 H   0  0  0  0  0  0  0  0  0  0  0  0
   17.1567   17.7310   23.8510 H   0  0  0  0  0  0  0  0  0  0  0  0
   17.5566   17.1843   25.4873 H   0  0  0  0  0  0  0  0  0  0  0  0
   20.2257   17.7760   25.4400 N   0  3  0  0  0  0  0  0  0  0  0  0
   20.5958   16.8754   25.1251 H   0  0  0  0  0  0  0  0  0  0  0  0
   21.0125   18.4273   25.5046 H   0  0  0  0  0  0  0  0  0  0  0  0
   19.8602   17.6429   26.3871 H   0  0  0  0  0  0  0  0  0  0  0  0
  1  2  1  0  0  0  0
  1  3  1  0  0  0  0
  1  4  1  0  0  0  0
  1  5  1  0  0  0  0
  5  6  1  0  0  0  0
  5  7  1  0  0  0  0
  5  8  1  0  0  0  0
  8  9  1  0  0  0  0
  8 10  1  0  0  0  0
  8 11  1  0  0  0  0
 11 12  1  0  0  0  0
 11 13  1  0  0  0  0
 11 14  1  0  0  0  0
 14 15  1  0  0  0  0
 14 16  1  0  0  0  0
 14 17  1  0  0  0  0
 17 18  1  0  0  0  0
 17 19  1  0  0  0  0
 19 20  1  0  0  0  0
 19 21  1  0  0  0  0
 19 22  1  0  0  0  0
 17 23  1  0  0  0  0
 23 24  1  0  0  0  0
 23 25  1  0  0  0  0
 23 26  1  0  0  0  0
M  END
> <VConfSearch Rank>
478

> <Conf_Id>
124

> <Delta U+W>
3.001

> <U+W>
-27.298

> <U>
26.787

> <W>
-54.085

> <W(PB)>
-56.347

> <W(SA)>
2.262

> <Valence>
5.742

> <Coulomb>
20.023

> <VdW>
1.022

> <VdW6>
-8.392

> <VdW12>
9.414

> <Bond>
0.261

> <Angle>
1.576

> <Pdih>
3.904

> <Idih>
0.000

> <Tether>
0.000

$$$$
VeraChem MOL file


 26 25  0  0  0  0  0  0  0  0999 V2000     
   18.0092   21.7086   23.6407 C   0  0  0  0  0  0  0  0  0  0  0  0
   17.9287   21.9318   24.7125 H   0  0  0  0  0  0  0  0  0  0  0  0
   17.3708   22.4220   23.1037 H   0  0  0  0  0  0  0  0  0  0  0  0
   17.5996   20.7065   23.4734 H   0  0  0  0  0  0  0  0  0  0  0  0
   19.4747   21.8275   23.1610 C   0  0  0  0  0  0  0  0  0  0  0  0
   19.8030   22.8623   23.3324 H   0  0  0  0  0  0  0  0  0  0  0  0
   19.5356   21.6675   22.0756 H   0  0  0  0  0  0  0  0  0  0  0  0
   20.4461   20.8731   23.9024 C   0  0  0  0  0  0  0  0  0  0  0  0
   21.4095   21.3890   24.0167 H   0  0  0  0  0  0  0  0  0  0  0  0
   20.0890   20.6853   24.9244 H   0  0  0  0  0  0  0  0  0  0  0  0
   20.7207   19.5304   23.1771 C   0  0  0  0  0  0  0  0  0  0  0  0
   21.4799   18.9851   23.7526 H   0  0  0  0  0  0  0  0  0  0  0  0
   21.1698   19.7407   22.1974 H   0  0  0  0  0  0  0  0  0  0  0  0
   19.4648   18.6368   22.9984 C   0  0  0  0  0  0  0  0  0  0  0  0
   18.9380   18.5545   23.9580 H   0  0  0  0  0  0  0  0  0  0  0  0
   18.7691   19.1235   22.3039 H   0  0  0  0  0  0  0  0  0  0  0  0
   19.7515   17.2108   22.4712 C   0  0  1  0  0  0  0  0  0  0  0  0
   18.7895   16.6955   22.3887 H   0  0  0  0  0  0  0  0  0  0  0  0
   20.3909   17.2305   21.0718 C   0  0  0  0  0  0  0  0  0  0  0  0
   21.4021   17.6541   21.0944 H   0  0  0  0  0  0  0  0  0  0  0  0
   19.7852   17.8229   20.3748 H   0  0  0  0  0  0  0  0  0  0  0  0
   20.4626   16.2131   20.6682 H   0  0  0  0  0  0  0  0  0  0  0  0
   20.5772   16.3977   23.4301 N   0  3  0  0  0  0  0  0  0  0  0  0
   20.7028   15.4383   23.0952 H   0  0  0  0  0  0  0  0  0  0  0  0
   21.5080   16.8026   23.5559 H   0  0  0  0  0  0  0  0  0  0  0  0
   20.1369   16.3440   24.3529 H   0  0  0  0  0  0  0  0  0  0  0  0
  1  2  1  0  0  0  0
  1  3  1  0  0  0  0
  1  4  1  0  0  0  0
  1  5  1  0  0  0  0
  5  6  1  0  0  0  0
  5  7  1  0  0  0  0
  5  8  1  0  0  0  0
  8  9  1  0  0  0  0
  8 10  1  0  0  0  0
  8 11  1  0  0  0  0
 11 12  1  0  0  0  0
 11 13  1  0  0  0  0
 11 14  1  0  0  0  0
 14 15  1  0  0  0  0
 14 16  1  0  0  0  0
 14 17  1  0  0  0  0
 17 18  1  0  0  0  0
 17 19  1  0  0  0  0
 19 20  1  0  0  0  0
 19 21  1  0  0  0  0
 19 22  1  0  0  0  0
 17 23  1  0  0  0  0
 23 24  1  0  0  0  0
 23 25  1  0  0  0  0
 23 26  1  0  0  0  0
M  END
> <VConfSearch Rank>
479

> <Conf_Id>
105

> <Delta U+W>
3.442

> <U+W>
-26.857

> <U>
27.313

> <W>
-54.169

> <W(PB)>
-56.414

> <W(SA)>
2.245

> <Valence>
6.229

> <Coulomb>
19.943

> <VdW>
1.140

> <VdW6>
-9.001

> <VdW12>
10.140

> <Bond>
0.294

> <Angle>
1.969

> <Pdih>
3.967

> <Idih>
0.000

> <Tether>
0.000

$$$$
VeraChem MOL file


 26 25  0  0  0  0  0  0  0  0999 V2000     
   20.4816   21.6879   24.4684 C   0  0  0  0  0  0  0  0  0  0  0  0
   19.6560   22.3800   24.6790 H   0  0  0  0  0  0  0  0  0  0  0  0
   21.4170   22.1938   24.7405 H   0  0  0  0  0  0  0  0  0  0  0  0
   20.5044   21.5090   23.3880 H   0  0  0  0  0  0  0  0  0  0  0  0
   20.3222   20.3774   25.2740 C   0  0  0  0  0  0  0  0  0  0  0  0
   20.3432   20.6335   26.3426 H   0  0  0  0  0  0  0  0  0  0  0  0
   21.1846   19.7176   25.1048 H   0  0  0  0  0  0  0  0  0  0  0  0
   19.0003   19.6245   24.9741 C   0  0  0  0  0  0  0  0  0  0  0  0
   18.6608   19.1481   25.9042 H   0  0  0  0  0  0  0  0  0  0  0  0
   18.2099   20.3376   24.7022 H   0  0  0  0  0  0  0  0  0  0  0  0
   19.1128   18.5146   23.8972 C   0  0  0  0  0  0  0  0  0  0  0  0
   18.1417   18.0051   23.8266 H   0  0  0  0  0  0  0  0  0  0  0  0
   19.8333   17.7585   24.2366 H   0  0  0  0  0  0  0  0  0  0  0  0
   19.5129   19.0290   22.4924 C   0  0  0  0  0  0  0  0  0  0  0  0
   18.8739   19.8826   22.2298 H   0  0  0  0  0  0  0  0  0  0  0  0
   20.5470   19.3950   22.5101 H   0  0  0  0  0  0  0  0  0  0  0  0
   19.3772   17.9489   21.3976 C   0  0  1  0  0  0  0  0  0  0  0  0
   18.3462   17.5818   21.4042 H   0  0  0  0  0  0  0  0  0  0  0  0
   19.6657   18.5518   20.0135 C   0  0  0  0  0  0  0  0  0  0  0  0
   20.6925   18.9339   19.9528 H   0  0  0  0  0  0  0  0  0  0  0  0
   18.9796   19.3804   19.7985 H   0  0  0  0  0  0  0  0  0  0  0  0
   19.5343   17.7986   19.2268 H   0  0  0  0  0  0  0  0  0  0  0  0
   20.2620   16.7589   21.6510 N   0  3  0  0  0  0  0  0  0  0  0  0
   20.0513   16.3218   22.5521 H   0  0  0  0  0  0  0  0  0  0  0  0
   20.1428   16.0433   20.9284 H   0  0  0  0  0  0  0  0  0  0  0  0
   21.2504   17.0237   21.6600 H   0  0  0  0  0  0  0  0  0  0  0  0
  1  2  1  0  0  0  0
  1  3  1  0  0  0  0
  1  4  1  0  0  0  0
  1  5  1  0  0  0  0
  5  6  1  0  0  0  0
  5  7  1  0  0  0  0
  5  8  1  0  0  0  0
  8  9  1  0  0  0  0
  8 10  1  0  0  0  0
  8 11  1  0  0  0  0
 11 12  1  0  0  0  0
 11 13  1  0  0  0  0
 11 14  1  0  0  0  0
 14 15  1  0  0  0  0
 14 16  1  0  0  0  0
 14 17  1  0  0  0  0
 17 18  1  0  0  0  0
 17 19  1  0  0  0  0
 19 20  1  0  0  0  0
 19 21  1  0  0  0  0
 19 22  1  0  0  0  0
 17 23  1  0  0  0  0
 23 24  1  0  0  0  0
 23 25  1  0  0  0  0
 23 26  1  0  0  0  0
M  END
> <VConfSearch Rank>
480

> <Conf_Id>
107

> <Delta U+W>
2.995

> <U+W>
-27.304

> <U>
26.796

> <W>
-54.100

> <W(PB)>
-56.404

> <W(SA)>
2.304

> <Valence>
5.706

> <Coulomb>
20.107

> <VdW>
0.982

> <VdW6>
-8.396

> <VdW12>
9.378

> <Bond>
0.254

> <Angle>
1.644

> <Pdih>
3.808

> <Idih>
0.000

> <Tether>
0.000

$$$$
VeraChem MOL file


 26 25  0  0  0  0  0  0  0  0999 V2000     
   22.9958   21.7250   23.8207 C   0  0  0  0  0  0  0  0  0  0  0  0
   22.4608   22.6675   23.6455 H   0  0  0  0  0  0  0  0  0  0  0  0
   23.7109   21.8902   24.6371 H   0  0  0  0  0  0  0  0  0  0  0  0
   23.5679   21.4832   22.9155 H   0  0  0  0  0  0  0  0  0  0  0  0
   22.0147   20.5881   24.1772 C   0  0  0  0  0  0  0  0  0  0  0  0
   21.4824   20.8434   25.1043 H   0  0  0  0  0  0  0  0  0  0  0  0
   22.5811   19.6683   24.3798 H   0  0  0  0  0  0  0  0  0  0  0  0
   20.9963   20.3350   23.0436 C   0  0  0  0  0  0  0  0  0  0  0  0
   20.4355   21.2584   22.8430 H   0  0  0  0  0  0  0  0  0  0  0  0
   21.5331   20.0819   22.1188 H   0  0  0  0  0  0  0  0  0  0  0  0
   20.0114   19.1976   23.3972 C   0  0  0  0  0  0  0  0  0  0  0  0
   19.4728   19.4535   24.3203 H   0  0  0  0  0  0  0  0  0  0  0  0
   20.5800   18.2808   23.6027 H   0  0  0  0  0  0  0  0  0  0  0  0
   18.9931   18.9454   22.2588 C   0  0  0  0  0  0  0  0  0  0  0  0
   18.4746   19.8865   22.0317 H   0  0  0  0  0  0  0  0  0  0  0  0
   19.5242   18.6516   21.3435 H   0  0  0  0  0  0  0  0  0  0  0  0
   17.9421   17.8722   22.6167 C   0  0  1  0  0  0  0  0  0  0  0  0
   17.4442   18.1755   23.5430 H   0  0  0  0  0  0  0  0  0  0  0  0
   16.8810   17.7731   21.5090 C   0  0  0  0  0  0  0  0  0  0  0  0
   17.3298   17.4690   20.5551 H   0  0  0  0  0  0  0  0  0  0  0  0
   16.3821   18.7387   21.3594 H   0  0  0  0  0  0  0  0  0  0  0  0
   16.1105   17.0385   21.7739 H   0  0  0  0  0  0  0  0  0  0  0  0
   18.5593   16.5253   22.8777 N   0  3  0  0  0  0  0  0  0  0  0  0
   19.0500   16.1730   22.0516 H   0  0  0  0  0  0  0  0  0  0  0  0
   19.2358   16.5659   23.6446 H   0  0  0  0  0  0  0  0  0  0  0  0
   17.8503   15.8317   23.1319 H   0  0  0  0  0  0  0  0  0  0  0  0
  1  2  1  0  0  0  0
  1  3  1  0  0  0  0
  1  4  1  0  0  0  0
  1  5  1  0  0  0  0
  5  6  1  0  0  0  0
  5  7  1  0  0  0  0
  5  8  1  0  0  0  0
  8  9  1  0  0  0  0
  8 10  1  0  0  0  0
  8 11  1  0  0  0  0
 11 12  1  0  0  0  0
 11 13  1  0  0  0  0
 11 14  1  0  0  0  0
 14 15  1  0  0  0  0
 14 16  1  0  0  0  0
 14 17  1  0  0  0  0
 17 18  1  0  0  0  0
 17 19  1  0  0  0  0
 19 20  1  0  0  0  0
 19 21  1  0  0  0  0
 19 22  1  0  0  0  0
 17 23  1  0  0  0  0
 23 24  1  0  0  0  0
 23 25  1  0  0  0  0
 23 26  1  0  0  0  0
M  END
> <VConfSearch Rank>
481

> <Conf_Id>
122

> <Delta U+W>
0.000

> <U+W>
-30.299

> <U>
23.517

> <W>
-53.816

> <W(PB)>
-56.162

> <W(SA)>
2.346

> <Valence>
2.737

> <Coulomb>
19.862

> <VdW>
0.919

> <VdW6>
-6.793

> <VdW12>
7.712

> <Bond>
0.171

> <Angle>
0.873

> <Pdih>
1.693

> <Idih>
0.000

> <Tether>
0.000

$$$$
VeraChem MOL file


 26 25  0  0  0  0  0  0  0  0999 V2000     
   20.9720   22.7138   21.0746 C   0  0  0  0  0  0  0  0  0  0  0  0
   20.4889   23.6029   20.6489 H   0  0  0  0  0  0  0  0  0  0  0  0
   21.6813   23.0505   21.8420 H   0  0  0  0  0  0  0  0  0  0  0  0
   21.5414   22.2238   20.2741 H   0  0  0  0  0  0  0  0  0  0  0  0
   19.9201   21.7562   21.6734 C   0  0  0  0  0  0  0  0  0  0  0  0
   19.2059   21.4641   20.8907 H   0  0  0  0  0  0  0  0  0  0  0  0
   19.3446   22.2843   22.4466 H   0  0  0  0  0  0  0  0  0  0  0  0
   20.5741   20.4950   22.2801 C   0  0  0  0  0  0  0  0  0  0  0  0
   21.1496   19.9716   21.5040 H   0  0  0  0  0  0  0  0  0  0  0  0
   21.2893   20.7931   23.0592 H   0  0  0  0  0  0  0  0  0  0  0  0
   19.5238   19.5335   22.8811 C   0  0  0  0  0  0  0  0  0  0  0  0
   18.8102   19.2493   22.0967 H   0  0  0  0  0  0  0  0  0  0  0  0
   18.9519   20.0563   23.6604 H   0  0  0  0  0  0  0  0  0  0  0  0
   20.1822   18.2683   23.4844 C   0  0  0  0  0  0  0  0  0  0  0  0
   20.7005   17.7081   22.6949 H   0  0  0  0  0  0  0  0  0  0  0  0
   20.9534   18.5833   24.1998 H   0  0  0  0  0  0  0  0  0  0  0  0
   19.1884   17.3372   24.2161 C   0  0  1  0  0  0  0  0  0  0  0  0
   18.6555   17.9273   24.9681 H   0  0  0  0  0  0  0  0  0  0  0  0
   18.1538   16.7229   23.2560 C   0  0  0  0  0  0  0  0  0  0  0  0
   18.6440   16.1719   22.4437 H   0  0  0  0  0  0  0  0  0  0  0  0
   17.5143   17.4942   22.8115 H   0  0  0  0  0  0  0  0  0  0  0  0
   17.4964   16.0264   23.7908 H   0  0  0  0  0  0  0  0  0  0  0  0
   19.9123   16.2520   24.9639 N   0  3  0  0  0  0  0  0  0  0  0  0
   20.4393   15.6468   24.3287 H   0  0  0  0  0  0  0  0  0  0  0  0
   20.5757   16.6385   25.6416 H   0  0  0  0  0  0  0  0  0  0  0  0
   19.2607   15.6564   25.4826 H   0  0  0  0  0  0  0  0  0  0  0  0
  1  2  1  0  0  0  0
  1  3  1  0  0  0  0
  1  4  1  0  0  0  0
  1  5  1  0  0  0  0
  5  6  1  0  0  0  0
  5  7  1  0  0  0  0
  5  8  1  0  0  0  0
  8  9  1  0  0  0  0
  8 10  1  0  0  0  0
  8 11  1  0  0  0  0
 11 12  1  0  0  0  0
 11 13  1  0  0  0  0
 11 14  1  0  0  0  0
 14 15  1  0  0  0  0
 14 16  1  0  0  0  0
 14 17  1  0  0  0  0
 17 18  1  0  0  0  0
 17 19  1  0  0  0  0
 19 20  1  0  0  0  0
 19 21  1  0  0  0  0
 19 22  1  0  0  0  0
 17 23  1  0  0  0  0
 23 24  1  0  0  0  0
 23 25  1  0  0  0  0
 23 26  1  0  0  0  0
M  END
> <VConfSearch Rank>
482

> <Conf_Id>
54

> <Delta U+W>
0.453

> <U+W>
-29.845

> <U>
23.817

> <W>
-53.663

> <W(PB)>
-56.021

> <W(SA)>
2.358

> <Valence>
3.277

> <Coulomb>
19.492

> <VdW>
1.049

> <VdW6>
-6.949

> <VdW12>
7.998

> <Bond>
0.183

> <Angle>
1.152

> <Pdih>
1.942

> <Idih>
0.000

> <Tether>
0.000

$$$$
VeraChem MOL file


 26 25  0  0  0  0  0  0  0  0999 V2000     
   22.4546   20.6078   20.8935 C   0  0  0  0  0  0  0  0  0  0  0  0
   23.1955   20.4325   21.6843 H   0  0  0  0  0  0  0  0  0  0  0  0
   22.3271   19.6763   20.3289 H   0  0  0  0  0  0  0  0  0  0  0  0
   22.8703   21.3546   20.2048 H   0  0  0  0  0  0  0  0  0  0  0  0
   21.1163   21.1059   21.4857 C   0  0  0  0  0  0  0  0  0  0  0  0
   20.3811   21.2412   20.6802 H   0  0  0  0  0  0  0  0  0  0  0  0
   21.2768   22.1006   21.9247 H   0  0  0  0  0  0  0  0  0  0  0  0
   20.5356   20.1727   22.5760 C   0  0  0  0  0  0  0  0  0  0  0  0
   21.2870   20.0179   23.3627 H   0  0  0  0  0  0  0  0  0  0  0  0
   19.6892   20.6946   23.0381 H   0  0  0  0  0  0  0  0  0  0  0  0
   20.0551   18.8063   22.0255 C   0  0  0  0  0  0  0  0  0  0  0  0
   20.8661   18.3405   21.4517 H   0  0  0  0  0  0  0  0  0  0  0  0
   19.2333   18.9680   21.3143 H   0  0  0  0  0  0  0  0  0  0  0  0
   19.6077   17.7881   23.1076 C   0  0  0  0  0  0  0  0  0  0  0  0
   19.3950   16.8431   22.5902 H   0  0  0  0  0  0  0  0  0  0  0  0
   20.4391   17.5728   23.7917 H   0  0  0  0  0  0  0  0  0  0  0  0
   18.3540   18.2027   23.9145 C   0  0  1  0  0  0  0  0  0  0  0  0
   17.6555   18.7014   23.2355 H   0  0  0  0  0  0  0  0  0  0  0  0
   17.6563   16.9618   24.4960 C   0  0  0  0  0  0  0  0  0  0  0  0
   16.7579   17.2480   25.0568 H   0  0  0  0  0  0  0  0  0  0  0  0
   18.3224   16.4131   25.1736 H   0  0  0  0  0  0  0  0  0  0  0  0
   17.3431   16.2787   23.6966 H   0  0  0  0  0  0  0  0  0  0  0  0
   18.6670   19.1719   25.0221 N   0  3  0  0  0  0  0  0  0  0  0  0
   19.1249   20.0137   24.6661 H   0  0  0  0  0  0  0  0  0  0  0  0
   17.8175   19.4661   25.5123 H   0  0  0  0  0  0  0  0  0  0  0  0
   19.2907   18.7529   25.7169 H   0  0  0  0  0  0  0  0  0  0  0  0
  1  2  1  0  0  0  0
  1  3  1  0  0  0  0
  1  4  1  0  0  0  0
  1  5  1  0  0  0  0
  5  6  1  0  0  0  0
  5  7  1  0  0  0  0
  5  8  1  0  0  0  0
  8  9  1  0  0  0  0
  8 10  1  0  0  0  0
  8 11  1  0  0  0  0
 11 12  1  0  0  0  0
 11 13  1  0  0  0  0
 11 14  1  0  0  0  0
 14 15  1  0  0  0  0
 14 16  1  0  0  0  0
 14 17  1  0  0  0  0
 17 18  1  0  0  0  0
 17 19  1  0  0  0  0
 19 20  1  0  0  0  0
 19 21  1  0  0  0  0
 19 22  1  0  0  0  0
 17 23  1  0  0  0  0
 23 24  1  0  0  0  0
 23 25  1  0  0  0  0
 23 26  1  0  0  0  0
M  END
> <VConfSearch Rank>
483

> <Conf_Id>
110

> <Delta U+W>
3.764

> <U+W>
-26.535

> <U>
27.400

> <W>
-53.935

> <W(PB)>
-56.238

> <W(SA)>
2.303

> <Valence>
5.205

> <Coulomb>
21.096

> <VdW>
1.098

> <VdW6>
-8.389

> <VdW12>
9.488

> <Bond>
0.270

> <Angle>
1.912

> <Pdih>
3.023

> <Idih>
0.000

> <Tether>
0.000

$$$$
VeraChem MOL file


 26 25  0  0  0  0  0  0  0  0999 V2000     
   22.4162   21.1719   21.2905 C   0  0  0  0  0  0  0  0  0  0  0  0
   22.9444   21.4568   20.3714 H   0  0  0  0  0  0  0  0  0  0  0  0
   21.6032   21.8931   21.4404 H   0  0  0  0  0  0  0  0  0  0  0  0
   23.1211   21.2685   22.1265 H   0  0  0  0  0  0  0  0  0  0  0  0
   21.8797   19.7267   21.1801 C   0  0  0  0  0  0  0  0  0  0  0  0
   22.7107   19.0602   20.9098 H   0  0  0  0  0  0  0  0  0  0  0  0
   21.1550   19.6637   20.3563 H   0  0  0  0  0  0  0  0  0  0  0  0
   21.2321   19.2082   22.4867 C   0  0  0  0  0  0  0  0  0  0  0  0
   20.9870   18.1478   22.3528 H   0  0  0  0  0  0  0  0  0  0  0  0
   21.9701   19.2479   23.2997 H   0  0  0  0  0  0  0  0  0  0  0  0
   19.9640   19.9987   22.9006 C   0  0  0  0  0  0  0  0  0  0  0  0
   19.2710   20.0857   22.0524 H   0  0  0  0  0  0  0  0  0  0  0  0
   20.2613   21.0244   23.1564 H   0  0  0  0  0  0  0  0  0  0  0  0
   19.2327   19.3883   24.1257 C   0  0  0  0  0  0  0  0  0  0  0  0
   19.9418   18.8364   24.7569 H   0  0  0  0  0  0  0  0  0  0  0  0
   18.8657   20.2180   24.7442 H   0  0  0  0  0  0  0  0  0  0  0  0
   18.0175   18.4949   23.7777 C   0  0  1  0  0  0  0  0  0  0  0  0
   17.3147   19.0921   23.1885 H   0  0  0  0  0  0  0  0  0  0  0  0
   18.4034   17.2564   22.9513 C   0  0  0  0  0  0  0  0  0  0  0  0
   19.1723   16.6623   23.4606 H   0  0  0  0  0  0  0  0  0  0  0  0
   18.7817   17.5444   21.9637 H   0  0  0  0  0  0  0  0  0  0  0  0
   17.5299   16.6136   22.7870 H   0  0  0  0  0  0  0  0  0  0  0  0
   17.2796   18.0806   25.0205 N   0  3  0  0  0  0  0  0  0  0  0  0
   16.9690   18.8916   25.5632 H   0  0  0  0  0  0  0  0  0  0  0  0
   16.4470   17.5290   24.7949 H   0  0  0  0  0  0  0  0  0  0  0  0
   17.8680   17.5086   25.6320 H   0  0  0  0  0  0  0  0  0  0  0  0
  1  2  1  0  0  0  0
  1  3  1  0  0  0  0
  1  4  1  0  0  0  0
  1  5  1  0  0  0  0
  5  6  1  0  0  0  0
  5  7  1  0  0  0  0
  5  8  1  0  0  0  0
  8  9  1  0  0  0  0
  8 10  1  0  0  0  0
  8 11  1  0  0  0  0
 11 12  1  0  0  0  0
 11 13  1  0  0  0  0
 11 14  1  0  0  0  0
 14 15  1  0  0  0  0
 14 16  1  0  0  0  0
 14 17  1  0  0  0  0
 17 18  1  0  0  0  0
 17 19  1  0  0  0  0
 19 20  1  0  0  0  0
 19 21  1  0  0  0  0
 19 22  1  0  0  0  0
 17 23  1  0  0  0  0
 23 24  1  0  0  0  0
 23 25  1  0  0  0  0
 23 26  1  0  0  0  0
M  END
> <VConfSearch Rank>
484

> <Conf_Id>
34

> <Delta U+W>
3.568

> <U+W>
-26.731

> <U>
27.221

> <W>
-53.952

> <W(PB)>
-56.213

> <W(SA)>
2.261

> <Valence>
6.368

> <Coulomb>
19.698

> <VdW>
1.155

> <VdW6>
-8.532

> <VdW12>
9.687

> <Bond>
0.272

> <Angle>
1.847

> <Pdih>
4.248

> <Idih>
0.000

> <Tether>
0.000

$$$$
VeraChem MOL file


 26 25  0  0  0  0  0  0  0  0999 V2000     
   22.9626   17.6152   20.7761 C   0  0  0  0  0  0  0  0  0  0  0  0
   23.7498   17.7318   21.5325 H   0  0  0  0  0  0  0  0  0  0  0  0
   22.6549   16.5615   20.7625 H   0  0  0  0  0  0  0  0  0  0  0  0
   23.3987   17.8516   19.7968 H   0  0  0  0  0  0  0  0  0  0  0  0
   21.7636   18.5395   21.0763 C   0  0  0  0  0  0  0  0  0  0  0  0
   21.0088   18.4257   20.2855 H   0  0  0  0  0  0  0  0  0  0  0  0
   22.0953   19.5870   21.0495 H   0  0  0  0  0  0  0  0  0  0  0  0
   21.1307   18.2275   22.4505 C   0  0  0  0  0  0  0  0  0  0  0  0
   20.8033   17.1788   22.4727 H   0  0  0  0  0  0  0  0  0  0  0  0
   21.8898   18.3401   23.2370 H   0  0  0  0  0  0  0  0  0  0  0  0
   19.9297   19.1512   22.7551 C   0  0  0  0  0  0  0  0  0  0  0  0
   19.1765   19.0348   21.9646 H   0  0  0  0  0  0  0  0  0  0  0  0
   20.2662   20.1959   22.7257 H   0  0  0  0  0  0  0  0  0  0  0  0
   19.3010   18.8346   24.1372 C   0  0  0  0  0  0  0  0  0  0  0  0
   19.0147   17.7751   24.1688 H   0  0  0  0  0  0  0  0  0  0  0  0
   20.0602   18.9654   24.9197 H   0  0  0  0  0  0  0  0  0  0  0  0
   18.0615   19.6863   24.5003 C   0  0  1  0  0  0  0  0  0  0  0  0
   17.7052   19.3417   25.4760 H   0  0  0  0  0  0  0  0  0  0  0  0
   18.4044   21.1806   24.6322 C   0  0  0  0  0  0  0  0  0  0  0  0
   18.6787   21.6210   23.6663 H   0  0  0  0  0  0  0  0  0  0  0  0
   19.2396   21.3291   25.3279 H   0  0  0  0  0  0  0  0  0  0  0  0
   17.5441   21.7383   25.0220 H   0  0  0  0  0  0  0  0  0  0  0  0
   16.9205   19.4777   23.5428 N   0  3  0  0  0  0  0  0  0  0  0  0
   16.0885   19.9992   23.8330 H   0  0  0  0  0  0  0  0  0  0  0  0
   17.1645   19.7897   22.5998 H   0  0  0  0  0  0  0  0  0  0  0  0
   16.6565   18.4902   23.4826 H   0  0  0  0  0  0  0  0  0  0  0  0
  1  2  1  0  0  0  0
  1  3  1  0  0  0  0
  1  4  1  0  0  0  0
  1  5  1  0  0  0  0
  5  6  1  0  0  0  0
  5  7  1  0  0  0  0
  5  8  1  0  0  0  0
  8  9  1  0  0  0  0
  8 10  1  0  0  0  0
  8 11  1  0  0  0  0
 11 12  1  0  0  0  0
 11 13  1  0  0  0  0
 11 14  1  0  0  0  0
 14 15  1  0  0  0  0
 14 16  1  0  0  0  0
 14 17  1  0  0  0  0
 17 18  1  0  0  0  0
 17 19  1  0  0  0  0
 19 20  1  0  0  0  0
 19 21  1  0  0  0  0
 19 22  1  0  0  0  0
 17 23  1  0  0  0  0
 23 24  1  0  0  0  0
 23 25  1  0  0  0  0
 23 26  1  0  0  0  0
M  END
> <VConfSearch Rank>
485

> <Conf_Id>
132

> <Delta U+W>
0.363

> <U+W>
-29.936

> <U>
24.060

> <W>
-53.996

> <W(PB)>
-56.327

> <W(SA)>
2.332

> <Valence>
3.249

> <Coulomb>
19.781

> <VdW>
1.030

> <VdW6>
-7.421

> <VdW12>
8.451

> <Bond>
0.207

> <Angle>
1.205

> <Pdih>
1.837

> <Idih>
0.000

> <Tether>
0.000

$$$$
VeraChem MOL file


 26 25  0  0  0  0  0  0  0  0999 V2000     
   23.1059   18.4042   25.0102 C   0  0  0  0  0  0  0  0  0  0  0  0
   23.7156   19.1774   25.4955 H   0  0  0  0  0  0  0  0  0  0  0  0
   22.8708   17.6397   25.7622 H   0  0  0  0  0  0  0  0  0  0  0  0
   23.7159   17.9366   24.2263 H   0  0  0  0  0  0  0  0  0  0  0  0
   21.8183   19.0167   24.4193 C   0  0  0  0  0  0  0  0  0  0  0  0
   22.0948   19.8032   23.7049 H   0  0  0  0  0  0  0  0  0  0  0  0
   21.2446   19.5015   25.2216 H   0  0  0  0  0  0  0  0  0  0  0  0
   20.9442   17.9453   23.7254 C   0  0  0  0  0  0  0  0  0  0  0  0
   21.4988   17.4995   22.8882 H   0  0  0  0  0  0  0  0  0  0  0  0
   20.7517   17.1293   24.4357 H   0  0  0  0  0  0  0  0  0  0  0  0
   19.5835   18.4845   23.2194 C   0  0  0  0  0  0  0  0  0  0  0  0
   19.0327   18.9218   24.0627 H   0  0  0  0  0  0  0  0  0  0  0  0
   18.9906   17.6287   22.8718 H   0  0  0  0  0  0  0  0  0  0  0  0
   19.7199   19.5230   22.0722 C   0  0  0  0  0  0  0  0  0  0  0  0
   20.2852   20.3927   22.4282 H   0  0  0  0  0  0  0  0  0  0  0  0
   20.3134   19.0885   21.2570 H   0  0  0  0  0  0  0  0  0  0  0  0
   18.3788   20.0336   21.4939 C   0  0  1  0  0  0  0  0  0  0  0  0
   18.6182   20.7919   20.7419 H   0  0  0  0  0  0  0  0  0  0  0  0
   17.5868   18.9179   20.7895 C   0  0  0  0  0  0  0  0  0  0  0  0
   17.2209   18.1675   21.5001 H   0  0  0  0  0  0  0  0  0  0  0  0
   18.2087   18.4101   20.0420 H   0  0  0  0  0  0  0  0  0  0  0  0
   16.7169   19.3364   20.2686 H   0  0  0  0  0  0  0  0  0  0  0  0
   17.5334   20.7248   22.5282 N   0  3  0  0  0  0  0  0  0  0  0  0
   18.0376   21.4993   22.9689 H   0  0  0  0  0  0  0  0  0  0  0  0
   16.6793   21.1110   22.1161 H   0  0  0  0  0  0  0  0  0  0  0  0
   17.2514   20.0787   23.2694 H   0  0  0  0  0  0  0  0  0  0  0  0
  1  2  1  0  0  0  0
  1  3  1  0  0  0  0
  1  4  1  0  0  0  0
  1  5  1  0  0  0  0
  5  6  1  0  0  0  0
  5  7  1  0  0  0  0
  5  8  1  0  0  0  0
  8  9  1  0  0  0  0
  8 10  1  0  0  0  0
  8 11  1  0  0  0  0
 11 12  1  0  0  0  0
 11 13  1  0  0  0  0
 11 14  1  0  0  0  0
 14 15  1  0  0  0  0
 14 16  1  0  0  0  0
 14 17  1  0  0  0  0
 17 18  1  0  0  0  0
 17 19  1  0  0  0  0
 19 20  1  0  0  0  0
 19 21  1  0  0  0  0
 19 22  1  0  0  0  0
 17 23  1  0  0  0  0
 23 24  1  0  0  0  0
 23 25  1  0  0  0  0
 23 26  1  0  0  0  0
M  END
> <VConfSearch Rank>
486

> <Conf_Id>
46

> <Delta U+W>
1.114

> <U+W>
-29.185

> <U>
24.990

> <W>
-54.175

> <W(PB)>
-56.455

> <W(SA)>
2.279

> <Valence>
3.862

> <Coulomb>
19.956

> <VdW>
1.172

> <VdW6>
-8.054

> <VdW12>
9.226

> <Bond>
0.258

> <Angle>
1.499

> <Pdih>
2.106

> <Idih>
0.000

> <Tether>
0.000

$$$$
VeraChem MOL file


 26 25  0  0  0  0  0  0  0  0999 V2000     
   19.4876   22.7832   22.9231 C   0  0  0  0  0  0  0  0  0  0  0  0
   18.5590   22.4949   23.4307 H   0  0  0  0  0  0  0  0  0  0  0  0
   20.2493   22.9864   23.6870 H   0  0  0  0  0  0  0  0  0  0  0  0
   19.2920   23.7208   22.3868 H   0  0  0  0  0  0  0  0  0  0  0  0
   19.9632   21.6884   21.9411 C   0  0  0  0  0  0  0  0  0  0  0  0
   20.8173   22.0757   21.3681 H   0  0  0  0  0  0  0  0  0  0  0  0
   19.1713   21.4795   21.2083 H   0  0  0  0  0  0  0  0  0  0  0  0
   20.3905   20.3751   22.6401 C   0  0  0  0  0  0  0  0  0  0  0  0
   20.8303   19.7143   21.8818 H   0  0  0  0  0  0  0  0  0  0  0  0
   21.1885   20.5889   23.3644 H   0  0  0  0  0  0  0  0  0  0  0  0
   19.2214   19.6469   23.3510 C   0  0  0  0  0  0  0  0  0  0  0  0
   18.4103   19.4579   22.6354 H   0  0  0  0  0  0  0  0  0  0  0  0
   18.7982   20.3018   24.1236 H   0  0  0  0  0  0  0  0  0  0  0  0
   19.6504   18.3210   24.0309 C   0  0  0  0  0  0  0  0  0  0  0  0
   20.3968   18.5465   24.8042 H   0  0  0  0  0  0  0  0  0  0  0  0
   18.7858   17.8932   24.5557 H   0  0  0  0  0  0  0  0  0  0  0  0
   20.2315   17.2658   23.0627 C   0  0  1  0  0  0  0  0  0  0  0  0
   21.1063   17.6965   22.5670 H   0  0  0  0  0  0  0  0  0  0  0  0
   20.6879   16.0210   23.8401 C   0  0  0  0  0  0  0  0  0  0  0  0
   21.1381   15.2842   23.1635 H   0  0  0  0  0  0  0  0  0  0  0  0
   19.8451   15.5426   24.3545 H   0  0  0  0  0  0  0  0  0  0  0  0
   21.4413   16.2861   24.5923 H   0  0  0  0  0  0  0  0  0  0  0  0
   19.2615   16.8868   21.9773 N   0  3  0  0  0  0  0  0  0  0  0  0
   18.9807   17.7037   21.4283 H   0  0  0  0  0  0  0  0  0  0  0  0
   19.6700   16.2067   21.3301 H   0  0  0  0  0  0  0  0  0  0  0  0
   18.4119   16.4688   22.3656 H   0  0  0  0  0  0  0  0  0  0  0  0
  1  2  1  0  0  0  0
  1  3  1  0  0  0  0
  1  4  1  0  0  0  0
  1  5  1  0  0  0  0
  5  6  1  0  0  0  0
  5  7  1  0  0  0  0
  5  8  1  0  0  0  0
  8  9  1  0  0  0  0
  8 10  1  0  0  0  0
  8 11  1  0  0  0  0
 11 12  1  0  0  0  0
 11 13  1  0  0  0  0
 11 14  1  0  0  0  0
 14 15  1  0  0  0  0
 14 16  1  0  0  0  0
 14 17  1  0  0  0  0
 17 18  1  0  0  0  0
 17 19  1  0  0  0  0
 19 20  1  0  0  0  0
 19 21  1  0  0  0  0
 19 22  1  0  0  0  0
 17 23  1  0  0  0  0
 23 24  1  0  0  0  0
 23 25  1  0  0  0  0
 23 26  1  0  0  0  0
M  END
> <VConfSearch Rank>
487

> <Conf_Id>
113

> <Delta U+W>
1.137

> <U+W>
-29.162

> <U>
24.833

> <W>
-53.995

> <W(PB)>
-56.288

> <W(SA)>
2.294

> <Valence>
3.589

> <Coulomb>
20.270

> <VdW>
0.974

> <VdW6>
-8.255

> <VdW12>
9.229

> <Bond>
0.244

> <Angle>
1.377

> <Pdih>
1.967

> <Idih>
0.000

> <Tether>
0.000

$$$$
VeraChem MOL file


 26 25  0  0  0  0  0  0  0  0999 V2000     
   20.6655   17.0540   26.1619 C   0  0  0  0  0  0  0  0  0  0  0  0
   20.4429   15.9870   26.2925 H   0  0  0  0  0  0  0  0  0  0  0  0
   21.7568   17.1731   26.1624 H   0  0  0  0  0  0  0  0  0  0  0  0
   20.2625   17.5907   27.0307 H   0  0  0  0  0  0  0  0  0  0  0  0
   20.0508   17.5822   24.8484 C   0  0  0  0  0  0  0  0  0  0  0  0
   18.9636   17.4227   24.8653 H   0  0  0  0  0  0  0  0  0  0  0  0
   20.4463   16.9948   24.0092 H   0  0  0  0  0  0  0  0  0  0  0  0
   20.3555   19.0846   24.6403 C   0  0  0  0  0  0  0  0  0  0  0  0
   20.0239   19.6417   25.5275 H   0  0  0  0  0  0  0  0  0  0  0  0
   21.4415   19.2361   24.5702 H   0  0  0  0  0  0  0  0  0  0  0  0
   19.6644   19.6909   23.3942 C   0  0  0  0  0  0  0  0  0  0  0  0
   19.8401   20.7745   23.4001 H   0  0  0  0  0  0  0  0  0  0  0  0
   18.5788   19.5519   23.4835 H   0  0  0  0  0  0  0  0  0  0  0  0
   20.1724   19.0898   22.0551 C   0  0  0  0  0  0  0  0  0  0  0  0
   21.2688   19.1387   22.0296 H   0  0  0  0  0  0  0  0  0  0  0  0
   19.9147   18.0245   22.0068 H   0  0  0  0  0  0  0  0  0  0  0  0
   19.6217   19.7786   20.7840 C   0  0  1  0  0  0  0  0  0  0  0  0
   20.0622   19.2686   19.9216 H   0  0  0  0  0  0  0  0  0  0  0  0
   18.0928   19.6464   20.6719 C   0  0  0  0  0  0  0  0  0  0  0  0
   17.5783   20.2145   21.4561 H   0  0  0  0  0  0  0  0  0  0  0  0
   17.7855   18.5962   20.7499 H   0  0  0  0  0  0  0  0  0  0  0  0
   17.7452   20.0234   19.7023 H   0  0  0  0  0  0  0  0  0  0  0  0
   20.0478   21.2172   20.6780 N   0  3  0  0  0  0  0  0  0  0  0  0
   21.0670   21.3104   20.7088 H   0  0  0  0  0  0  0  0  0  0  0  0
   19.7290   21.6382   19.8008 H   0  0  0  0  0  0  0  0  0  0  0  0
   19.6639   21.7765   21.4435 H   0  0  0  0  0  0  0  0  0  0  0  0
  1  2  1  0  0  0  0
  1  3  1  0  0  0  0
  1  4  1  0  0  0  0
  1  5  1  0  0  0  0
  5  6  1  0  0  0  0
  5  7  1  0  0  0  0
  5  8  1  0  0  0  0
  8  9  1  0  0  0  0
  8 10  1  0  0  0  0
  8 11  1  0  0  0  0
 11 12  1  0  0  0  0
 11 13  1  0  0  0  0
 11 14  1  0  0  0  0
 14 15  1  0  0  0  0
 14 16  1  0  0  0  0
 14 17  1  0  0  0  0
 17 18  1  0  0  0  0
 17 19  1  0  0  0  0
 19 20  1  0  0  0  0
 19 21  1  0  0  0  0
 19 22  1  0  0  0  0
 17 23  1  0  0  0  0
 23 24  1  0  0  0  0
 23 25  1  0  0  0  0
 23 26  1  0  0  0  0
M  END
> <VConfSearch Rank>
488

> <Conf_Id>
45

> <Delta U+W>
1.035

> <U+W>
-29.264

> <U>
24.725

> <W>
-53.989

> <W(PB)>
-56.298

> <W(SA)>
2.309

> <Valence>
3.780

> <Coulomb>
19.804

> <VdW>
1.141

> <VdW6>
-8.104

> <VdW12>
9.246

> <Bond>
0.254

> <Angle>
1.437

> <Pdih>
2.089

> <Idih>
0.000

> <Tether>
0.000

$$$$
VeraChem MOL file


 26 25  0  0  0  0  0  0  0  0999 V2000     
   21.8954   21.7092   20.7479 C   0  0  0  0  0  0  0  0  0  0  0  0
   21.5344   22.7067   20.4656 H   0  0  0  0  0  0  0  0  0  0  0  0
   22.9252   21.8148   21.1134 H   0  0  0  0  0  0  0  0  0  0  0  0
   21.9158   21.0893   19.8420 H   0  0  0  0  0  0  0  0  0  0  0  0
   20.9844   21.0850   21.8263 C   0  0  0  0  0  0  0  0  0  0  0  0
   19.9584   21.0352   21.4386 H   0  0  0  0  0  0  0  0  0  0  0  0
   20.9614   21.7413   22.7074 H   0  0  0  0  0  0  0  0  0  0  0  0
   21.4715   19.6751   22.2370 C   0  0  0  0  0  0  0  0  0  0  0  0
   21.4405   19.0041   21.3675 H   0  0  0  0  0  0  0  0  0  0  0  0
   22.5260   19.7379   22.5394 H   0  0  0  0  0  0  0  0  0  0  0  0
   20.6648   19.0523   23.4032 C   0  0  0  0  0  0  0  0  0  0  0  0
   20.6984   19.7236   24.2725 H   0  0  0  0  0  0  0  0  0  0  0  0
   21.1702   18.1265   23.7080 H   0  0  0  0  0  0  0  0  0  0  0  0
   19.1899   18.7416   23.0393 C   0  0  0  0  0  0  0  0  0  0  0  0
   18.6818   19.6723   22.7584 H   0  0  0  0  0  0  0  0  0  0  0  0
   19.1542   18.0855   22.1596 H   0  0  0  0  0  0  0  0  0  0  0  0
   18.4066   18.0933   24.2019 C   0  0  1  0  0  0  0  0  0  0  0  0
   18.4868   18.7471   25.0759 H   0  0  0  0  0  0  0  0  0  0  0  0
   16.9199   17.9592   23.8351 C   0  0  0  0  0  0  0  0  0  0  0  0
   16.7836   17.3104   22.9608 H   0  0  0  0  0  0  0  0  0  0  0  0
   16.4849   18.9396   23.6041 H   0  0  0  0  0  0  0  0  0  0  0  0
   16.3509   17.5318   24.6699 H   0  0  0  0  0  0  0  0  0  0  0  0
   18.9707   16.7582   24.6058 N   0  3  0  0  0  0  0  0  0  0  0  0
   19.9479   16.8376   24.8991 H   0  0  0  0  0  0  0  0  0  0  0  0
   18.4489   16.3529   25.3880 H   0  0  0  0  0  0  0  0  0  0  0  0
   18.9339   16.0881   23.8332 H   0  0  0  0  0  0  0  0  0  0  0  0
  1  2  1  0  0  0  0
  1  3  1  0  0  0  0
  1  4  1  0  0  0  0
  1  5  1  0  0  0  0
  5  6  1  0  0  0  0
  5  7  1  0  0  0  0
  5  8  1  0  0  0  0
  8  9  1  0  0  0  0
  8 10  1  0  0  0  0
  8 11  1  0  0  0  0
 11 12  1  0  0  0  0
 11 13  1  0  0  0  0
 11 14  1  0  0  0  0
 14 15  1  0  0  0  0
 14 16  1  0  0  0  0
 14 17  1  0  0  0  0
 17 18  1  0  0  0  0
 17 19  1  0  0  0  0
 19 20  1  0  0  0  0
 19 21  1  0  0  0  0
 19 22  1  0  0  0  0
 17 23  1  0  0  0  0
 23 24  1  0  0  0  0
 23 25  1  0  0  0  0
 23 26  1  0  0  0  0
M  END
> <VConfSearch Rank>
489

> <Conf_Id>
121

> <Delta U+W>
0.736

> <U+W>
-29.562

> <U>
24.282

> <W>
-53.844

> <W(PB)>
-56.205

> <W(SA)>
2.361

> <Valence>
3.311

> <Coulomb>
19.887

> <VdW>
1.083

> <VdW6>
-7.444

> <VdW12>
8.527

> <Bond>
0.219

> <Angle>
1.167

> <Pdih>
1.926

> <Idih>
0.000

> <Tether>
0.000

$$$$
VeraChem MOL file


 26 25  0  0  0  0  0  0  0  0999 V2000     
   16.2727   18.2389   22.7287 C   0  0  0  0  0  0  0  0  0  0  0  0
   15.3933   17.9435   22.1418 H   0  0  0  0  0  0  0  0  0  0  0  0
   16.2350   17.6996   23.6840 H   0  0  0  0  0  0  0  0  0  0  0  0
   16.1844   19.3125   22.9354 H   0  0  0  0  0  0  0  0  0  0  0  0
   17.5716   17.9127   21.9570 C   0  0  0  0  0  0  0  0  0  0  0  0
   17.6016   18.4898   21.0222 H   0  0  0  0  0  0  0  0  0  0  0  0
   17.5508   16.8538   21.6634 H   0  0  0  0  0  0  0  0  0  0  0  0
   18.8589   18.1743   22.7757 C   0  0  0  0  0  0  0  0  0  0  0  0
   18.8276   17.5887   23.7049 H   0  0  0  0  0  0  0  0  0  0  0  0
   19.7116   17.7939   22.1982 H   0  0  0  0  0  0  0  0  0  0  0  0
   19.0842   19.6712   23.1081 C   0  0  0  0  0  0  0  0  0  0  0  0
   18.2386   20.0467   23.6985 H   0  0  0  0  0  0  0  0  0  0  0  0
   19.0918   20.2615   22.1824 H   0  0  0  0  0  0  0  0  0  0  0  0
   20.3825   19.9296   23.9162 C   0  0  0  0  0  0  0  0  0  0  0  0
   20.4570   21.0029   24.1362 H   0  0  0  0  0  0  0  0  0  0  0  0
   20.2915   19.4260   24.8876 H   0  0  0  0  0  0  0  0  0  0  0  0
   21.6892   19.4586   23.2346 C   0  0  1  0  0  0  0  0  0  0  0  0
   21.6070   18.3867   23.0325 H   0  0  0  0  0  0  0  0  0  0  0  0
   21.9427   20.1871   21.9027 C   0  0  0  0  0  0  0  0  0  0  0  0
   21.9761   21.2744   22.0453 H   0  0  0  0  0  0  0  0  0  0  0  0
   21.1595   19.9601   21.1701 H   0  0  0  0  0  0  0  0  0  0  0  0
   22.8977   19.8715   21.4651 H   0  0  0  0  0  0  0  0  0  0  0  0
   22.8688   19.6239   24.1522 N   0  3  0  0  0  0  0  0  0  0  0  0
   22.7395   19.1112   25.0292 H   0  0  0  0  0  0  0  0  0  0  0  0
   23.7301   19.2765   23.7210 H   0  0  0  0  0  0  0  0  0  0  0  0
   23.0224   20.6072   24.3910 H   0  0  0  0  0  0  0  0  0  0  0  0
  1  2  1  0  0  0  0
  1  3  1  0  0  0  0
  1  4  1  0  0  0  0
  1  5  1  0  0  0  0
  5  6  1  0  0  0  0
  5  7  1  0  0  0  0
  5  8  1  0  0  0  0
  8  9  1  0  0  0  0
  8 10  1  0  0  0  0
  8 11  1  0  0  0  0
 11 12  1  0  0  0  0
 11 13  1  0  0  0  0
 11 14  1  0  0  0  0
 14 15  1  0  0  0  0
 14 16  1  0  0  0  0
 14 17  1  0  0  0  0
 17 18  1  0  0  0  0
 17 19  1  0  0  0  0
 19 20  1  0  0  0  0
 19 21  1  0  0  0  0
 19 22  1  0  0  0  0
 17 23  1  0  0  0  0
 23 24  1  0  0  0  0
 23 25  1  0  0  0  0
 23 26  1  0  0  0  0
M  END
> <VConfSearch Rank>
490

> <Conf_Id>
5

> <Delta U+W>
1.233

> <U+W>
-29.065

> <U>
25.023

> <W>
-54.088

> <W(PB)>
-56.383

> <W(SA)>
2.296

> <Valence>
4.083

> <Coulomb>
19.893

> <VdW>
1.047

> <VdW6>
-8.479

> <VdW12>
9.527

> <Bond>
0.256

> <Angle>
1.716

> <Pdih>
2.112

> <Idih>
0.000

> <Tether>
0.000

$$$$
VeraChem MOL file


 26 25  0  0  0  0  0  0  0  0999 V2000     
   20.2735   21.9502   20.6126 C   0  0  0  0  0  0  0  0  0  0  0  0
   20.5933   22.9669   20.3502 H   0  0  0  0  0  0  0  0  0  0  0  0
   21.0007   21.2544   20.1766 H   0  0  0  0  0  0  0  0  0  0  0  0
   19.2994   21.7724   20.1388 H   0  0  0  0  0  0  0  0  0  0  0  0
   20.1824   21.7920   22.1475 C   0  0  0  0  0  0  0  0  0  0  0  0
   19.5436   22.5926   22.5462 H   0  0  0  0  0  0  0  0  0  0  0  0
   21.1752   21.9401   22.5949 H   0  0  0  0  0  0  0  0  0  0  0  0
   19.6034   20.4281   22.5954 C   0  0  0  0  0  0  0  0  0  0  0  0
   19.4483   20.4686   23.6813 H   0  0  0  0  0  0  0  0  0  0  0  0
   18.6135   20.2833   22.1412 H   0  0  0  0  0  0  0  0  0  0  0  0
   20.5194   19.2266   22.2530 C   0  0  0  0  0  0  0  0  0  0  0  0
   21.4975   19.3639   22.7344 H   0  0  0  0  0  0  0  0  0  0  0  0
   20.7085   19.2051   21.1722 H   0  0  0  0  0  0  0  0  0  0  0  0
   19.9351   17.8504   22.6619 C   0  0  0  0  0  0  0  0  0  0  0  0
   18.9984   17.6637   22.1198 H   0  0  0  0  0  0  0  0  0  0  0  0
   20.6355   17.0797   22.3138 H   0  0  0  0  0  0  0  0  0  0  0  0
   19.7196   17.6904   24.1867 C   0  0  1  0  0  0  0  0  0  0  0  0
   20.3108   18.4569   24.6971 H   0  0  0  0  0  0  0  0  0  0  0  0
   18.2397   17.8705   24.5716 C   0  0  0  0  0  0  0  0  0  0  0  0
   17.6169   17.0867   24.1227 H   0  0  0  0  0  0  0  0  0  0  0  0
   17.8526   18.8398   24.2381 H   0  0  0  0  0  0  0  0  0  0  0  0
   18.1149   17.8204   25.6602 H   0  0  0  0  0  0  0  0  0  0  0  0
   20.2262   16.3667   24.6907 N   0  3  0  0  0  0  0  0  0  0  0  0
   21.2225   16.2431   24.4885 H   0  0  0  0  0  0  0  0  0  0  0  0
   20.1091   16.2828   25.7044 H   0  0  0  0  0  0  0  0  0  0  0  0
   19.7250   15.5852   24.2598 H   0  0  0  0  0  0  0  0  0  0  0  0
  1  2  1  0  0  0  0
  1  3  1  0  0  0  0
  1  4  1  0  0  0  0
  1  5  1  0  0  0  0
  5  6  1  0  0  0  0
  5  7  1  0  0  0  0
  5  8  1  0  0  0  0
  8  9  1  0  0  0  0
  8 10  1  0  0  0  0
  8 11  1  0  0  0  0
 11 12  1  0  0  0  0
 11 13  1  0  0  0  0
 11 14  1  0  0  0  0
 14 15  1  0  0  0  0
 14 16  1  0  0  0  0
 14 17  1  0  0  0  0
 17 18  1  0  0  0  0
 17 19  1  0  0  0  0
 19 20  1  0  0  0  0
 19 21  1  0  0  0  0
 19 22  1  0  0  0  0
 17 23  1  0  0  0  0
 23 24  1  0  0  0  0
 23 25  1  0  0  0  0
 23 26  1  0  0  0  0
M  END
> <VConfSearch Rank>
491

> <Conf_Id>
100

> <Delta U+W>
3.818

> <U+W>
-26.481

> <U>
27.496

> <W>
-53.977

> <W(PB)>
-56.267

> <W(SA)>
2.290

> <Valence>
6.472

> <Coulomb>
19.839

> <VdW>
1.185

> <VdW6>
-8.405

> <VdW12>
9.590

> <Bond>
0.248

> <Angle>
1.619

> <Pdih>
4.604

> <Idih>
0.000

> <Tether>
0.000

$$$$
VeraChem MOL file


 26 25  0  0  0  0  0  0  0  0999 V2000     
   19.0486   21.7083   25.4630 C   0  0  0  0  0  0  0  0  0  0  0  0
   18.5954   21.8184   26.4567 H   0  0  0  0  0  0  0  0  0  0  0  0
   20.1390   21.7472   25.5838 H   0  0  0  0  0  0  0  0  0  0  0  0
   18.7409   22.5693   24.8552 H   0  0  0  0  0  0  0  0  0  0  0  0
   18.6098   20.3815   24.8079 C   0  0  0  0  0  0  0  0  0  0  0  0
   17.5136   20.3574   24.7324 H   0  0  0  0  0  0  0  0  0  0  0  0
   18.9016   19.5421   25.4544 H   0  0  0  0  0  0  0  0  0  0  0  0
   19.2338   20.2017   23.4063 C   0  0  0  0  0  0  0  0  0  0  0  0
   18.9383   21.0446   22.7664 H   0  0  0  0  0  0  0  0  0  0  0  0
   20.3261   20.2417   23.4914 H   0  0  0  0  0  0  0  0  0  0  0  0
   18.7885   18.8738   22.7457 C   0  0  0  0  0  0  0  0  0  0  0  0
   17.6931   18.8884   22.6597 H   0  0  0  0  0  0  0  0  0  0  0  0
   19.0269   18.0256   23.4004 H   0  0  0  0  0  0  0  0  0  0  0  0
   19.3848   18.6558   21.3268 C   0  0  0  0  0  0  0  0  0  0  0  0
   18.6285   18.1540   20.7089 H   0  0  0  0  0  0  0  0  0  0  0  0
   19.5571   19.6251   20.8408 H   0  0  0  0  0  0  0  0  0  0  0  0
   20.6790   17.8075   21.2546 C   0  0  1  0  0  0  0  0  0  0  0  0
   20.9717   17.7585   20.2012 H   0  0  0  0  0  0  0  0  0  0  0  0
   21.8498   18.4332   22.0297 C   0  0  0  0  0  0  0  0  0  0  0  0
   21.6780   18.4010   23.1121 H   0  0  0  0  0  0  0  0  0  0  0  0
   22.0026   19.4775   21.7305 H   0  0  0  0  0  0  0  0  0  0  0  0
   22.7795   17.8889   21.8235 H   0  0  0  0  0  0  0  0  0  0  0  0
   20.4523   16.3840   21.6854 N   0  3  0  0  0  0  0  0  0  0  0  0
   19.7110   15.9390   21.1368 H   0  0  0  0  0  0  0  0  0  0  0  0
   21.2985   15.8192   21.5698 H   0  0  0  0  0  0  0  0  0  0  0  0
   20.1805   16.3312   22.6699 H   0  0  0  0  0  0  0  0  0  0  0  0
  1  2  1  0  0  0  0
  1  3  1  0  0  0  0
  1  4  1  0  0  0  0
  1  5  1  0  0  0  0
  5  6  1  0  0  0  0
  5  7  1  0  0  0  0
  5  8  1  0  0  0  0
  8  9  1  0  0  0  0
  8 10  1  0  0  0  0
  8 11  1  0  0  0  0
 11 12  1  0  0  0  0
 11 13  1  0  0  0  0
 11 14  1  0  0  0  0
 14 15  1  0  0  0  0
 14 16  1  0  0  0  0
 14 17  1  0  0  0  0
 17 18  1  0  0  0  0
 17 19  1  0  0  0  0
 19 20  1  0  0  0  0
 19 21  1  0  0  0  0
 19 22  1  0  0  0  0
 17 23  1  0  0  0  0
 23 24  1  0  0  0  0
 23 25  1  0  0  0  0
 23 26  1  0  0  0  0
M  END
> <VConfSearch Rank>
492

> <Conf_Id>
142

> <Delta U+W>
2.978

> <U+W>
-27.320

> <U>
26.848

> <W>
-54.168

> <W(PB)>
-56.427

> <W(SA)>
2.259

> <Valence>
5.823

> <Coulomb>
20.057

> <VdW>
0.968

> <VdW6>
-8.367

> <VdW12>
9.335

> <Bond>
0.267

> <Angle>
1.799

> <Pdih>
3.758

> <Idih>
0.000

> <Tether>
0.000

$$$$
VeraChem MOL file


 26 25  0  0  0  0  0  0  0  0999 V2000     
   21.5673   21.9513   21.8595 C   0  0  0  0  0  0  0  0  0  0  0  0
   20.9185   22.6523   22.4004 H   0  0  0  0  0  0  0  0  0  0  0  0
   22.5139   22.4656   21.6487 H   0  0  0  0  0  0  0  0  0  0  0  0
   21.0974   21.7211   20.8956 H   0  0  0  0  0  0  0  0  0  0  0  0
   21.8212   20.6734   22.6914 C   0  0  0  0  0  0  0  0  0  0  0  0
   22.4081   20.9449   23.5801 H   0  0  0  0  0  0  0  0  0  0  0  0
   22.4424   19.9731   22.1158 H   0  0  0  0  0  0  0  0  0  0  0  0
   20.5236   19.9668   23.1534 C   0  0  0  0  0  0  0  0  0  0  0  0
   20.8111   19.1768   23.8567 H   0  0  0  0  0  0  0  0  0  0  0  0
   19.8975   20.6782   23.7095 H   0  0  0  0  0  0  0  0  0  0  0  0
   19.7114   19.3462   21.9887 C   0  0  0  0  0  0  0  0  0  0  0  0
   20.3203   18.5895   21.4763 H   0  0  0  0  0  0  0  0  0  0  0  0
   19.5090   20.1209   21.2386 H   0  0  0  0  0  0  0  0  0  0  0  0
   18.3415   18.7380   22.4032 C   0  0  0  0  0  0  0  0  0  0  0  0
   17.6985   19.5327   22.8036 H   0  0  0  0  0  0  0  0  0  0  0  0
   17.8411   18.3936   21.4886 H   0  0  0  0  0  0  0  0  0  0  0  0
   18.3545   17.5510   23.4003 C   0  0  1  0  0  0  0  0  0  0  0  0
   17.3502   17.1164   23.3841 H   0  0  0  0  0  0  0  0  0  0  0  0
   19.3387   16.4434   22.9854 C   0  0  0  0  0  0  0  0  0  0  0  0
   20.3804   16.7760   23.0656 H   0  0  0  0  0  0  0  0  0  0  0  0
   19.1561   16.1294   21.9502 H   0  0  0  0  0  0  0  0  0  0  0  0
   19.2176   15.5619   23.6269 H   0  0  0  0  0  0  0  0  0  0  0  0
   18.5759   17.9768   24.8259 N   0  3  0  0  0  0  0  0  0  0  0  0
   17.8756   18.6613   25.1251 H   0  0  0  0  0  0  0  0  0  0  0  0
   18.5165   17.1803   25.4667 H   0  0  0  0  0  0  0  0  0  0  0  0
   19.4960   18.4035   24.9492 H   0  0  0  0  0  0  0  0  0  0  0  0
  1  2  1  0  0  0  0
  1  3  1  0  0  0  0
  1  4  1  0  0  0  0
  1  5  1  0  0  0  0
  5  6  1  0  0  0  0
  5  7  1  0  0  0  0
  5  8  1  0  0  0  0
  8  9  1  0  0  0  0
  8 10  1  0  0  0  0
  8 11  1  0  0  0  0
 11 12  1  0  0  0  0
 11 13  1  0  0  0  0
 11 14  1  0  0  0  0
 14 15  1  0  0  0  0
 14 16  1  0  0  0  0
 14 17  1  0  0  0  0
 17 18  1  0  0  0  0
 17 19  1  0  0  0  0
 19 20  1  0  0  0  0
 19 21  1  0  0  0  0
 19 22  1  0  0  0  0
 17 23  1  0  0  0  0
 23 24  1  0  0  0  0
 23 25  1  0  0  0  0
 23 26  1  0  0  0  0
M  END
> <VConfSearch Rank>
493

> <Conf_Id>
119

> <Delta U+W>
3.538

> <U+W>
-26.761

> <U>
27.482

> <W>
-54.243

> <W(PB)>
-56.494

> <W(SA)>
2.251

> <Valence>
5.284

> <Coulomb>
21.247

> <VdW>
0.951

> <VdW6>
-9.416

> <VdW12>
10.367

> <Bond>
0.323

> <Angle>
2.522

> <Pdih>
2.439

> <Idih>
0.000

> <Tether>
0.000

$$$$
VeraChem MOL file


 26 25  0  0  0  0  0  0  0  0999 V2000     
   21.1408   20.4211   19.9440 C   0  0  0  0  0  0  0  0  0  0  0  0
   20.6932   19.7770   19.1760 H   0  0  0  0  0  0  0  0  0  0  0  0
   20.3831   21.1432   20.2724 H   0  0  0  0  0  0  0  0  0  0  0  0
   21.9546   20.9882   19.4738 H   0  0  0  0  0  0  0  0  0  0  0  0
   21.6783   19.5843   21.1271 C   0  0  0  0  0  0  0  0  0  0  0  0
   22.0921   20.2532   21.8946 H   0  0  0  0  0  0  0  0  0  0  0  0
   22.5163   18.9680   20.7726 H   0  0  0  0  0  0  0  0  0  0  0  0
   20.6133   18.6569   21.7606 C   0  0  0  0  0  0  0  0  0  0  0  0
   20.2234   17.9732   20.9941 H   0  0  0  0  0  0  0  0  0  0  0  0
   21.1091   18.0247   22.5066 H   0  0  0  0  0  0  0  0  0  0  0  0
   19.4371   19.4271   22.4144 C   0  0  0  0  0  0  0  0  0  0  0  0
   18.8882   19.9567   21.6247 H   0  0  0  0  0  0  0  0  0  0  0  0
   19.8209   20.2034   23.0886 H   0  0  0  0  0  0  0  0  0  0  0  0
   18.4322   18.5029   23.1576 C   0  0  0  0  0  0  0  0  0  0  0  0
   17.4204   18.9013   23.0062 H   0  0  0  0  0  0  0  0  0  0  0  0
   18.4233   17.5089   22.6912 H   0  0  0  0  0  0  0  0  0  0  0  0
   18.6481   18.3533   24.6842 C   0  0  1  0  0  0  0  0  0  0  0  0
   17.8749   17.6719   25.0528 H   0  0  0  0  0  0  0  0  0  0  0  0
   20.0118   17.7383   25.0382 C   0  0  0  0  0  0  0  0  0  0  0  0
   20.8356   18.4199   24.7950 H   0  0  0  0  0  0  0  0  0  0  0  0
   20.1668   16.7960   24.4983 H   0  0  0  0  0  0  0  0  0  0  0  0
   20.0659   17.5186   26.1115 H   0  0  0  0  0  0  0  0  0  0  0  0
   18.4388   19.6493   25.4189 N   0  3  0  0  0  0  0  0  0  0  0  0
   17.5109   20.0406   25.2336 H   0  0  0  0  0  0  0  0  0  0  0  0
   18.5198   19.5223   26.4316 H   0  0  0  0  0  0  0  0  0  0  0  0
   19.1296   20.3507   25.1415 H   0  0  0  0  0  0  0  0  0  0  0  0
  1  2  1  0  0  0  0
  1  3  1  0  0  0  0
  1  4  1  0  0  0  0
  1  5  1  0  0  0  0
  5  6  1  0  0  0  0
  5  7  1  0  0  0  0
  5  8  1  0  0  0  0
  8  9  1  0  0  0  0
  8 10  1  0  0  0  0
  8 11  1  0  0  0  0
 11 12  1  0  0  0  0
 11 13  1  0  0  0  0
 11 14  1  0  0  0  0
 14 15  1  0  0  0  0
 14 16  1  0  0  0  0
 14 17  1  0  0  0  0
 17 18  1  0  0  0  0
 17 19  1  0  0  0  0
 19 20  1  0  0  0  0
 19 21  1  0  0  0  0
 19 22  1  0  0  0  0
 17 23  1  0  0  0  0
 23 24  1  0  0  0  0
 23 25  1  0  0  0  0
 23 26  1  0  0  0  0
M  END
> <VConfSearch Rank>
494

> <Conf_Id>
127

> <Delta U+W>
3.544

> <U+W>
-26.754

> <U>
27.509

> <W>
-54.263

> <W(PB)>
-56.496

> <W(SA)>
2.232

> <Valence>
6.375

> <Coulomb>
20.014

> <VdW>
1.120

> <VdW6>
-8.976

> <VdW12>
10.096

> <Bond>
0.304

> <Angle>
1.986

> <Pdih>
4.086

> <Idih>
0.000

> <Tether>
0.000

$$$$
VeraChem MOL file


 26 25  0  0  0  0  0  0  0  0999 V2000     
   16.8680   19.9834   22.1246 C   0  0  0  0  0  0  0  0  0  0  0  0
   16.2242   20.8690   22.2034 H   0  0  0  0  0  0  0  0  0  0  0  0
   16.2743   19.1801   21.6694 H   0  0  0  0  0  0  0  0  0  0  0  0
   17.1311   19.6727   23.1416 H   0  0  0  0  0  0  0  0  0  0  0  0
   18.1176   20.2978   21.2692 C   0  0  0  0  0  0  0  0  0  0  0  0
   18.6649   21.1521   21.6913 H   0  0  0  0  0  0  0  0  0  0  0  0
   17.7749   20.6201   20.2759 H   0  0  0  0  0  0  0  0  0  0  0  0
   19.0648   19.0827   21.0945 C   0  0  0  0  0  0  0  0  0  0  0  0
   18.4941   18.1451   21.1446 H   0  0  0  0  0  0  0  0  0  0  0  0
   19.4829   19.1194   20.0790 H   0  0  0  0  0  0  0  0  0  0  0  0
   20.2555   19.0358   22.0868 C   0  0  0  0  0  0  0  0  0  0  0  0
   20.8735   19.9325   21.9462 H   0  0  0  0  0  0  0  0  0  0  0  0
   20.8859   18.1812   21.8103 H   0  0  0  0  0  0  0  0  0  0  0  0
   19.8361   18.9151   23.5762 C   0  0  0  0  0  0  0  0  0  0  0  0
   19.2902   19.8193   23.8709 H   0  0  0  0  0  0  0  0  0  0  0  0
   19.1344   18.0786   23.6921 H   0  0  0  0  0  0  0  0  0  0  0  0
   21.0067   18.7268   24.5702 C   0  0  1  0  0  0  0  0  0  0  0  0
   20.5800   18.7356   25.5780 H   0  0  0  0  0  0  0  0  0  0  0  0
   21.7177   17.3750   24.3821 C   0  0  0  0  0  0  0  0  0  0  0  0
   20.9971   16.5482   24.4083 H   0  0  0  0  0  0  0  0  0  0  0  0
   22.4429   17.2087   25.1881 H   0  0  0  0  0  0  0  0  0  0  0  0
   22.2603   17.3284   23.4307 H   0  0  0  0  0  0  0  0  0  0  0  0
   21.9892   19.8646   24.5235 N   0  3  0  0  0  0  0  0  0  0  0  0
   21.5310   20.7639   24.6960 H   0  0  0  0  0  0  0  0  0  0  0  0
   22.7229   19.7548   25.2293 H   0  0  0  0  0  0  0  0  0  0  0  0
   22.4475   19.9219   23.6108 H   0  0  0  0  0  0  0  0  0  0  0  0
  1  2  1  0  0  0  0
  1  3  1  0  0  0  0
  1  4  1  0  0  0  0
  1  5  1  0  0  0  0
  5  6  1  0  0  0  0
  5  7  1  0  0  0  0
  5  8  1  0  0  0  0
  8  9  1  0  0  0  0
  8 10  1  0  0  0  0
  8 11  1  0  0  0  0
 11 12  1  0  0  0  0
 11 13  1  0  0  0  0
 11 14  1  0  0  0  0
 14 15  1  0  0  0  0
 14 16  1  0  0  0  0
 14 17  1  0  0  0  0
 17 18  1  0  0  0  0
 17 19  1  0  0  0  0
 19 20  1  0  0  0  0
 19 21  1  0  0  0  0
 19 22  1  0  0  0  0
 17 23  1  0  0  0  0
 23 24  1  0  0  0  0
 23 25  1  0  0  0  0
 23 26  1  0  0  0  0
M  END
> <VConfSearch Rank>
495

> <Conf_Id>
131

> <Delta U+W>
3.589

> <U+W>
-26.710

> <U>
27.573

> <W>
-54.283

> <W(PB)>
-56.537

> <W(SA)>
2.254

> <Valence>
6.363

> <Coulomb>
20.026

> <VdW>
1.184

> <VdW6>
-8.939

> <VdW12>
10.123

> <Bond>
0.298

> <Angle>
2.018

> <Pdih>
4.047

> <Idih>
0.000

> <Tether>
0.000

$$$$
VeraChem MOL file


 26 25  0  0  0  0  0  0  0  0999 V2000     
   17.0660   18.2576   23.0087 C   0  0  0  0  0  0  0  0  0  0  0  0
   17.0468   18.5855   21.9613 H   0  0  0  0  0  0  0  0  0  0  0  0
   17.9457   17.6204   23.1610 H   0  0  0  0  0  0  0  0  0  0  0  0
   16.1782   17.6360   23.1825 H   0  0  0  0  0  0  0  0  0  0  0  0
   17.0754   19.4652   23.9711 C   0  0  0  0  0  0  0  0  0  0  0  0
   17.1685   19.1056   25.0054 H   0  0  0  0  0  0  0  0  0  0  0  0
   16.1012   19.9703   23.9117 H   0  0  0  0  0  0  0  0  0  0  0  0
   18.1865   20.5063   23.6808 C   0  0  0  0  0  0  0  0  0  0  0  0
   18.0342   20.9536   22.6889 H   0  0  0  0  0  0  0  0  0  0  0  0
   18.0623   21.3296   24.3979 H   0  0  0  0  0  0  0  0  0  0  0  0
   19.6343   19.9652   23.8136 C   0  0  0  0  0  0  0  0  0  0  0  0
   19.6575   19.1622   24.5613 H   0  0  0  0  0  0  0  0  0  0  0  0
   20.2701   20.7693   24.2093 H   0  0  0  0  0  0  0  0  0  0  0  0
   20.2409   19.4918   22.4661 C   0  0  0  0  0  0  0  0  0  0  0  0
   19.6505   18.6721   22.0418 H   0  0  0  0  0  0  0  0  0  0  0  0
   20.1759   20.3200   21.7482 H   0  0  0  0  0  0  0  0  0  0  0  0
   21.7200   19.0556   22.5723 C   0  0  1  0  0  0  0  0  0  0  0  0
   22.2838   19.8648   23.0465 H   0  0  0  0  0  0  0  0  0  0  0  0
   21.8878   17.7813   23.4195 C   0  0  0  0  0  0  0  0  0  0  0  0
   21.2887   16.9551   23.0168 H   0  0  0  0  0  0  0  0  0  0  0  0
   21.5856   17.9498   24.4594 H   0  0  0  0  0  0  0  0  0  0  0  0
   22.9377   17.4636   23.4353 H   0  0  0  0  0  0  0  0  0  0  0  0
   22.3268   18.8575   21.2108 N   0  3  0  0  0  0  0  0  0  0  0  0
   21.8553   18.1093   20.6957 H   0  0  0  0  0  0  0  0  0  0  0  0
   22.2659   19.7077   20.6432 H   0  0  0  0  0  0  0  0  0  0  0  0
   23.3172   18.6061   21.2759 H   0  0  0  0  0  0  0  0  0  0  0  0
  1  2  1  0  0  0  0
  1  3  1  0  0  0  0
  1  4  1  0  0  0  0
  1  5  1  0  0  0  0
  5  6  1  0  0  0  0
  5  7  1  0  0  0  0
  5  8  1  0  0  0  0
  8  9  1  0  0  0  0
  8 10  1  0  0  0  0
  8 11  1  0  0  0  0
 11 12  1  0  0  0  0
 11 13  1  0  0  0  0
 11 14  1  0  0  0  0
 14 15  1  0  0  0  0
 14 16  1  0  0  0  0
 14 17  1  0  0  0  0
 17 18  1  0  0  0  0
 17 19  1  0  0  0  0
 19 20  1  0  0  0  0
 19 21  1  0  0  0  0
 19 22  1  0  0  0  0
 17 23  1  0  0  0  0
 23 24  1  0  0  0  0
 23 25  1  0  0  0  0
 23 26  1  0  0  0  0
M  END
> <VConfSearch Rank>
496

> <Conf_Id>
80

> <Delta U+W>
3.351

> <U+W>
-26.948

> <U>
27.261

> <W>
-54.209

> <W(PB)>
-56.471

> <W(SA)>
2.263

> <Valence>
6.230

> <Coulomb>
19.945

> <VdW>
1.087

> <VdW6>
-8.618

> <VdW12>
9.704

> <Bond>
0.277

> <Angle>
1.928

> <Pdih>
4.025

> <Idih>
0.000

> <Tether>
0.000

$$$$
VeraChem MOL file


 26 25  0  0  0  0  0  0  0  0999 V2000     
   17.8574   17.9851   20.5804 C   0  0  0  0  0  0  0  0  0  0  0  0
   17.4207   18.4082   19.6665 H   0  0  0  0  0  0  0  0  0  0  0  0
   17.7475   16.8940   20.5316 H   0  0  0  0  0  0  0  0  0  0  0  0
   17.2675   18.3540   21.4287 H   0  0  0  0  0  0  0  0  0  0  0  0
   19.3436   18.3890   20.7072 C   0  0  0  0  0  0  0  0  0  0  0  0
   19.4249   19.4811   20.7812 H   0  0  0  0  0  0  0  0  0  0  0  0
   19.8630   18.1157   19.7781 H   0  0  0  0  0  0  0  0  0  0  0  0
   20.0743   17.7090   21.8943 C   0  0  0  0  0  0  0  0  0  0  0  0
   20.1101   16.6275   21.7038 H   0  0  0  0  0  0  0  0  0  0  0  0
   21.1192   18.0391   21.8955 H   0  0  0  0  0  0  0  0  0  0  0  0
   19.4382   17.9327   23.2956 C   0  0  0  0  0  0  0  0  0  0  0  0
   19.9896   17.3453   24.0425 H   0  0  0  0  0  0  0  0  0  0  0  0
   18.4274   17.5041   23.2888 H   0  0  0  0  0  0  0  0  0  0  0  0
   19.3458   19.4103   23.7702 C   0  0  0  0  0  0  0  0  0  0  0  0
   19.1960   20.0885   22.9228 H   0  0  0  0  0  0  0  0  0  0  0  0
   18.4375   19.5016   24.3803 H   0  0  0  0  0  0  0  0  0  0  0  0
   20.5302   19.8993   24.6385 C   0  0  1  0  0  0  0  0  0  0  0  0
   20.6097   19.2406   25.5088 H   0  0  0  0  0  0  0  0  0  0  0  0
   21.8743   19.8710   23.8924 C   0  0  0  0  0  0  0  0  0  0  0  0
   22.1927   18.8406   23.6997 H   0  0  0  0  0  0  0  0  0  0  0  0
   22.6617   20.3412   24.4941 H   0  0  0  0  0  0  0  0  0  0  0  0
   21.8108   20.4046   22.9359 H   0  0  0  0  0  0  0  0  0  0  0  0
   20.2660   21.2780   25.1776 N   0  3  0  0  0  0  0  0  0  0  0  0
   19.3983   21.3113   25.7204 H   0  0  0  0  0  0  0  0  0  0  0  0
   21.0220   21.5899   25.7937 H   0  0  0  0  0  0  0  0  0  0  0  0
   20.1839   21.9651   24.4235 H   0  0  0  0  0  0  0  0  0  0  0  0
  1  2  1  0  0  0  0
  1  3  1  0  0  0  0
  1  4  1  0  0  0  0
  1  5  1  0  0  0  0
  5  6  1  0  0  0  0
  5  7  1  0  0  0  0
  5  8  1  0  0  0  0
  8  9  1  0  0  0  0
  8 10  1  0  0  0  0
  8 11  1  0  0  0  0
 11 12  1  0  0  0  0
 11 13  1  0  0  0  0
 11 14  1  0  0  0  0
 14 15  1  0  0  0  0
 14 16  1  0  0  0  0
 14 17  1  0  0  0  0
 17 18  1  0  0  0  0
 17 19  1  0  0  0  0
 19 20  1  0  0  0  0
 19 21  1  0  0  0  0
 19 22  1  0  0  0  0
 17 23  1  0  0  0  0
 23 24  1  0  0  0  0
 23 25  1  0  0  0  0
 23 26  1  0  0  0  0
M  END
> <VConfSearch Rank>
497

> <Conf_Id>
136

> <Delta U+W>
4.272

> <U+W>
-26.026

> <U>
28.262

> <W>
-54.288

> <W(PB)>
-56.488

> <W(SA)>
2.200

> <Valence>
7.096

> <Coulomb>
19.990

> <VdW>
1.175

> <VdW6>
-9.404

> <VdW12>
10.580

> <Bond>
0.360

> <Angle>
2.785

> <Pdih>
3.951

> <Idih>
0.000

> <Tether>
0.000

$$$$
VeraChem MOL file


 26 25  0  0  0  0  0  0  0  0999 V2000     
   19.8792   22.1205   23.4894 C   0  0  0  0  0  0  0  0  0  0  0  0
   19.1905   21.4326   23.9952 H   0  0  0  0  0  0  0  0  0  0  0  0
   19.7668   23.1040   23.9636 H   0  0  0  0  0  0  0  0  0  0  0  0
   19.5712   22.2167   22.4402 H   0  0  0  0  0  0  0  0  0  0  0  0
   21.3405   21.6331   23.5987 C   0  0  0  0  0  0  0  0  0  0  0  0
   21.5995   21.4935   24.6576 H   0  0  0  0  0  0  0  0  0  0  0  0
   22.0047   22.4250   23.2253 H   0  0  0  0  0  0  0  0  0  0  0  0
   21.6400   20.3298   22.8147 C   0  0  0  0  0  0  0  0  0  0  0  0
   21.4808   20.4904   21.7395 H   0  0  0  0  0  0  0  0  0  0  0  0
   22.7122   20.1167   22.9262 H   0  0  0  0  0  0  0  0  0  0  0  0
   20.8473   19.0871   23.2974 C   0  0  0  0  0  0  0  0  0  0  0  0
   20.6031   19.1885   24.3639 H   0  0  0  0  0  0  0  0  0  0  0  0
   21.5043   18.2109   23.2162 H   0  0  0  0  0  0  0  0  0  0  0  0
   19.5618   18.8210   22.4716 C   0  0  0  0  0  0  0  0  0  0  0  0
   18.9404   19.7233   22.4528 H   0  0  0  0  0  0  0  0  0  0  0  0
   19.8317   18.6119   21.4280 H   0  0  0  0  0  0  0  0  0  0  0  0
   18.7195   17.6541   23.0313 C   0  0  1  0  0  0  0  0  0  0  0  0
   18.4839   17.8729   24.0774 H   0  0  0  0  0  0  0  0  0  0  0  0
   17.3982   17.5285   22.2559 C   0  0  0  0  0  0  0  0  0  0  0  0
   17.5790   17.3073   21.1965 H   0  0  0  0  0  0  0  0  0  0  0  0
   16.8202   18.4591   22.3168 H   0  0  0  0  0  0  0  0  0  0  0  0
   16.7786   16.7246   22.6721 H   0  0  0  0  0  0  0  0  0  0  0  0
   19.4644   16.3471   23.0194 N   0  3  0  0  0  0  0  0  0  0  0  0
   19.7239   16.0739   22.0680 H   0  0  0  0  0  0  0  0  0  0  0  0
   20.3251   16.4022   23.5703 H   0  0  0  0  0  0  0  0  0  0  0  0
   18.8979   15.5899   23.4121 H   0  0  0  0  0  0  0  0  0  0  0  0
  1  2  1  0  0  0  0
  1  3  1  0  0  0  0
  1  4  1  0  0  0  0
  1  5  1  0  0  0  0
  5  6  1  0  0  0  0
  5  7  1  0  0  0  0
  5  8  1  0  0  0  0
  8  9  1  0  0  0  0
  8 10  1  0  0  0  0
  8 11  1  0  0  0  0
 11 12  1  0  0  0  0
 11 13  1  0  0  0  0
 11 14  1  0  0  0  0
 14 15  1  0  0  0  0
 14 16  1  0  0  0  0
 14 17  1  0  0  0  0
 17 18  1  0  0  0  0
 17 19  1  0  0  0  0
 19 20  1  0  0  0  0
 19 21  1  0  0  0  0
 19 22  1  0  0  0  0
 17 23  1  0  0  0  0
 23 24  1  0  0  0  0
 23 25  1  0  0  0  0
 23 26  1  0  0  0  0
M  END
> <VConfSearch Rank>
498

> <Conf_Id>
124

> <Delta U+W>
3.001

> <U+W>
-27.298

> <U>
26.787

> <W>
-54.085

> <W(PB)>
-56.347

> <W(SA)>
2.262

> <Valence>
5.742

> <Coulomb>
20.023

> <VdW>
1.022

> <VdW6>
-8.392

> <VdW12>
9.414

> <Bond>
0.261

> <Angle>
1.576

> <Pdih>
3.904

> <Idih>
0.000

> <Tether>
0.000

$$$$
VeraChem MOL file


 26 25  0  0  0  0  0  0  0  0999 V2000     
   21.0287   17.9195   25.6593 C   0  0  0  0  0  0  0  0  0  0  0  0
   22.1021   17.6948   25.6108 H   0  0  0  0  0  0  0  0  0  0  0  0
   20.6631   17.5852   26.6389 H   0  0  0  0  0  0  0  0  0  0  0  0
   20.5237   17.3191   24.8948 H   0  0  0  0  0  0  0  0  0  0  0  0
   20.7731   19.4336   25.4752 C   0  0  0  0  0  0  0  0  0  0  0  0
   21.2827   19.9638   26.2920 H   0  0  0  0  0  0  0  0  0  0  0  0
   19.7035   19.6575   25.5912 H   0  0  0  0  0  0  0  0  0  0  0  0
   21.2970   19.9882   24.1253 C   0  0  0  0  0  0  0  0  0  0  0  0
   21.6674   21.0084   24.2968 H   0  0  0  0  0  0  0  0  0  0  0  0
   22.1690   19.4104   23.7892 H   0  0  0  0  0  0  0  0  0  0  0  0
   20.2373   20.0620   22.9957 C   0  0  0  0  0  0  0  0  0  0  0  0
   20.7032   20.5447   22.1269 H   0  0  0  0  0  0  0  0  0  0  0  0
   19.4223   20.7249   23.3154 H   0  0  0  0  0  0  0  0  0  0  0  0
   19.6599   18.6843   22.5757 C   0  0  0  0  0  0  0  0  0  0  0  0
   20.4856   17.9822   22.4017 H   0  0  0  0  0  0  0  0  0  0  0  0
   19.0706   18.2705   23.4032 H   0  0  0  0  0  0  0  0  0  0  0  0
   18.7642   18.7123   21.3146 C   0  0  1  0  0  0  0  0  0  0  0  0
   18.4243   17.6876   21.1349 H   0  0  0  0  0  0  0  0  0  0  0  0
   17.5156   19.5893   21.5127 C   0  0  0  0  0  0  0  0  0  0  0  0
   17.7768   20.6499   21.6093 H   0  0  0  0  0  0  0  0  0  0  0  0
   16.9657   19.2871   22.4127 H   0  0  0  0  0  0  0  0  0  0  0  0
   16.8358   19.4879   20.6579 H   0  0  0  0  0  0  0  0  0  0  0  0
   19.5204   19.1213   20.0803 N   0  3  0  0  0  0  0  0  0  0  0  0
   18.9290   19.0723   19.2459 H   0  0  0  0  0  0  0  0  0  0  0  0
   19.8647   20.0815   20.1558 H   0  0  0  0  0  0  0  0  0  0  0  0
   20.3295   18.5153   19.9175 H   0  0  0  0  0  0  0  0  0  0  0  0
  1  2  1  0  0  0  0
  1  3  1  0  0  0  0
  1  4  1  0  0  0  0
  1  5  1  0  0  0  0
  5  6  1  0  0  0  0
  5  7  1  0  0  0  0
  5  8  1  0  0  0  0
  8  9  1  0  0  0  0
  8 10  1  0  0  0  0
  8 11  1  0  0  0  0
 11 12  1  0  0  0  0
 11 13  1  0  0  0  0
 11 14  1  0  0  0  0
 14 15  1  0  0  0  0
 14 16  1  0  0  0  0
 14 17  1  0  0  0  0
 17 18  1  0  0  0  0
 17 19  1  0  0  0  0
 19 20  1  0  0  0  0
 19 21  1  0  0  0  0
 19 22  1  0  0  0  0
 17 23  1  0  0  0  0
 23 24  1  0  0  0  0
 23 25  1  0  0  0  0
 23 26  1  0  0  0  0
M  END
> <VConfSearch Rank>
499

> <Conf_Id>
105

> <Delta U+W>
3.442

> <U+W>
-26.857

> <U>
27.313

> <W>
-54.169

> <W(PB)>
-56.414

> <W(SA)>
2.245

> <Valence>
6.229

> <Coulomb>
19.943

> <VdW>
1.140

> <VdW6>
-9.001

> <VdW12>
10.140

> <Bond>
0.294

> <Angle>
1.969

> <Pdih>
3.967

> <Idih>
0.000

> <Tether>
0.000

$$$$
VeraChem MOL file


 26 25  0  0  0  0  0  0  0  0999 V2000     
   20.9288   21.4175   24.6255 C   0  0  0  0  0  0  0  0  0  0  0  0
   20.2212   21.9890   25.2401 H   0  0  0  0  0  0  0  0  0  0  0  0
   21.8940   21.9394   24.6578 H   0  0  0  0  0  0  0  0  0  0  0  0
   20.5733   21.4432   23.5898 H   0  0  0  0  0  0  0  0  0  0  0  0
   21.0783   19.9724   25.1558 C   0  0  0  0  0  0  0  0  0  0  0  0
   21.4697   20.0281   26.1813 H   0  0  0  0  0  0  0  0  0  0  0  0
   21.8344   19.4279   24.5733 H   0  0  0  0  0  0  0  0  0  0  0  0
   19.7444   19.1821   25.1803 C   0  0  0  0  0  0  0  0  0  0  0  0
   19.7587   18.5163   26.0543 H   0  0  0  0  0  0  0  0  0  0  0  0
   18.9002   19.8659   25.3441 H   0  0  0  0  0  0  0  0  0  0  0  0
   19.4854   18.3027   23.9298 C   0  0  0  0  0  0  0  0  0  0  0  0
   18.5576   17.7372   24.0941 H   0  0  0  0  0  0  0  0  0  0  0  0
   20.2884   17.5585   23.8433 H   0  0  0  0  0  0  0  0  0  0  0  0
   19.3609   19.0981   22.6070 C   0  0  0  0  0  0  0  0  0  0  0  0
   18.6600   19.9302   22.7558 H   0  0  0  0  0  0  0  0  0  0  0  0
   20.3309   19.5379   22.3438 H   0  0  0  0  0  0  0  0  0  0  0  0
   18.8629   18.2308   21.4309 C   0  0  1  0  0  0  0  0  0  0  0  0
   17.9043   17.7857   21.7150 H   0  0  0  0  0  0  0  0  0  0  0  0
   18.6400   19.1000   20.1828 C   0  0  0  0  0  0  0  0  0  0  0  0
   19.5755   19.5694   19.8535 H   0  0  0  0  0  0  0  0  0  0  0  0
   17.9120   19.8951   20.3865 H   0  0  0  0  0  0  0  0  0  0  0  0
   18.2502   18.4965   19.3539 H   0  0  0  0  0  0  0  0  0  0  0  0
   19.7948   17.0909   21.1219 N   0  3  0  0  0  0  0  0  0  0  0  0
   19.9190   16.4795   21.9332 H   0  0  0  0  0  0  0  0  0  0  0  0
   19.4383   16.5135   20.3551 H   0  0  0  0  0  0  0  0  0  0  0  0
   20.7202   17.4295   20.8460 H   0  0  0  0  0  0  0  0  0  0  0  0
  1  2  1  0  0  0  0
  1  3  1  0  0  0  0
  1  4  1  0  0  0  0
  1  5  1  0  0  0  0
  5  6  1  0  0  0  0
  5  7  1  0  0  0  0
  5  8  1  0  0  0  0
  8  9  1  0  0  0  0
  8 10  1  0  0  0  0
  8 11  1  0  0  0  0
 11 12  1  0  0  0  0
 11 13  1  0  0  0  0
 11 14  1  0  0  0  0
 14 15  1  0  0  0  0
 14 16  1  0  0  0  0
 14 17  1  0  0  0  0
 17 18  1  0  0  0  0
 17 19  1  0  0  0  0
 19 20  1  0  0  0  0
 19 21  1  0  0  0  0
 19 22  1  0  0  0  0
 17 23  1  0  0  0  0
 23 24  1  0  0  0  0
 23 25  1  0  0  0  0
 23 26  1  0  0  0  0
M  END
> <VConfSearch Rank>
500

> <Conf_Id>
107

> <Delta U+W>
2.995

> <U+W>
-27.304

> <U>
26.796

> <W>
-54.100

> <W(PB)>
-56.404

> <W(SA)>
2.304

> <Valence>
5.706

> <Coulomb>
20.107

> <VdW>
0.982

> <VdW6>
-8.396

> <VdW12>
9.378

> <Bond>
0.254

> <Angle>
1.644

> <Pdih>
3.808

> <Idih>
0.000

> <Tether>
0.000

$$$$
VeraChem MOL file


 26 25  0  0  0  0  0  0  0  0999 V2000     
   23.5737   17.2904   22.4967 C   0  0  0  0  0  0  0  0  0  0  0  0
   23.2438   16.2510   22.6227 H   0  0  0  0  0  0  0  0  0  0  0  0
   24.3985   17.2966   21.7723 H   0  0  0  0  0  0  0  0  0  0  0  0
   23.9676   17.6432   23.4588 H   0  0  0  0  0  0  0  0  0  0  0  0
   22.4143   18.1854   22.0101 C   0  0  0  0  0  0  0  0  0  0  0  0
   22.0645   17.8286   21.0312 H   0  0  0  0  0  0  0  0  0  0  0  0
   22.7828   19.2100   21.8608 H   0  0  0  0  0  0  0  0  0  0  0  0
   21.2390   18.1944   23.0125 C   0  0  0  0  0  0  0  0  0  0  0  0
   20.8769   17.1675   23.1606 H   0  0  0  0  0  0  0  0  0  0  0  0
   21.5939   18.5501   23.9898 H   0  0  0  0  0  0  0  0  0  0  0  0
   20.0754   19.0890   22.5284 C   0  0  0  0  0  0  0  0  0  0  0  0
   19.7192   18.7300   21.5527 H   0  0  0  0  0  0  0  0  0  0  0  0
   20.4471   20.1111   22.3766 H   0  0  0  0  0  0  0  0  0  0  0  0
   18.8999   19.0969   23.5357 C   0  0  0  0  0  0  0  0  0  0  0  0
   18.5795   18.0619   23.7152 H   0  0  0  0  0  0  0  0  0  0  0  0
   19.2414   19.4912   24.5022 H   0  0  0  0  0  0  0  0  0  0  0  0
   17.6870   19.9143   23.0405 C   0  0  1  0  0  0  0  0  0  0  0  0
   17.3811   19.5183   22.0672 H   0  0  0  0  0  0  0  0  0  0  0  0
   16.5076   19.7639   24.0147 C   0  0  0  0  0  0  0  0  0  0  0  0
   16.7626   20.1496   25.0097 H   0  0  0  0  0  0  0  0  0  0  0  0
   16.2207   18.7102   24.1200 H   0  0  0  0  0  0  0  0  0  0  0  0
   15.6303   20.3123   23.6500 H   0  0  0  0  0  0  0  0  0  0  0  0
   18.0172   21.3673   22.8325 N   0  3  0  0  0  0  0  0  0  0  0  0
   18.3171   21.8106   23.7048 H   0  0  0  0  0  0  0  0  0  0  0  0
   18.7713   21.4859   22.1508 H   0  0  0  0  0  0  0  0  0  0  0  0
   17.2072   21.8892   22.4863 H   0  0  0  0  0  0  0  0  0  0  0  0
  1  2  1  0  0  0  0
  1  3  1  0  0  0  0
  1  4  1  0  0  0  0
  1  5  1  0  0  0  0
  5  6  1  0  0  0  0
  5  7  1  0  0  0  0
  5  8  1  0  0  0  0
  8  9  1  0  0  0  0
  8 10  1  0  0  0  0
  8 11  1  0  0  0  0
 11 12  1  0  0  0  0
 11 13  1  0  0  0  0
 11 14  1  0  0  0  0
 14 15  1  0  0  0  0
 14 16  1  0  0  0  0
 14 17  1  0  0  0  0
 17 18  1  0  0  0  0
 17 19  1  0  0  0  0
 19 20  1  0  0  0  0
 19 21  1  0  0  0  0
 19 22  1  0  0  0  0
 17 23  1  0  0  0  0
 23 24  1  0  0  0  0
 23 25  1  0  0  0  0
 23 26  1  0  0  0  0
M  END
> <VConfSearch Rank>
501

> <Conf_Id>
122

> <Delta U+W>
0.000

> <U+W>
-30.299

> <U>
23.517

> <W>
-53.816

> <W(PB)>
-56.162

> <W(SA)>
2.346

> <Valence>
2.737

> <Coulomb>
19.862

> <VdW>
0.919

> <VdW6>
-6.793

> <VdW12>
7.712

> <Bond>
0.171

> <Angle>
0.873

> <Pdih>
1.693

> <Idih>
0.000

> <Tether>
0.000

$$$$
VeraChem MOL file


 26 25  0  0  0  0  0  0  0  0999 V2000     
   19.7674   16.0108   25.7455 C   0  0  0  0  0  0  0  0  0  0  0  0
   20.4874   15.3251   26.2107 H   0  0  0  0  0  0  0  0  0  0  0  0
   19.2468   16.5485   26.5487 H   0  0  0  0  0  0  0  0  0  0  0  0
   19.0282   15.4065   25.2036 H   0  0  0  0  0  0  0  0  0  0  0  0
   20.4854   16.9925   24.7953 C   0  0  0  0  0  0  0  0  0  0  0  0
   21.0242   16.4246   24.0239 H   0  0  0  0  0  0  0  0  0  0  0  0
   21.2411   17.5580   25.3585 H   0  0  0  0  0  0  0  0  0  0  0  0
   19.4937   17.9701   24.1266 C   0  0  0  0  0  0  0  0  0  0  0  0
   18.7393   17.4003   23.5664 H   0  0  0  0  0  0  0  0  0  0  0  0
   18.9557   18.5325   24.9023 H   0  0  0  0  0  0  0  0  0  0  0  0
   20.2091   18.9552   23.1744 C   0  0  0  0  0  0  0  0  0  0  0  0
   20.7498   18.3827   22.4094 H   0  0  0  0  0  0  0  0  0  0  0  0
   20.9600   19.5280   23.7363 H   0  0  0  0  0  0  0  0  0  0  0  0
   19.2118   19.9308   22.5023 C   0  0  0  0  0  0  0  0  0  0  0  0
   18.4989   19.3661   21.8868 H   0  0  0  0  0  0  0  0  0  0  0  0
   18.6228   20.4238   23.2871 H   0  0  0  0  0  0  0  0  0  0  0  0
   19.8906   21.0219   21.6429 C   0  0  1  0  0  0  0  0  0  0  0  0
   20.6249   21.5419   22.2659 H   0  0  0  0  0  0  0  0  0  0  0  0
   20.6189   20.4304   20.4225 C   0  0  0  0  0  0  0  0  0  0  0  0
   19.9342   19.8433   19.7978 H   0  0  0  0  0  0  0  0  0  0  0  0
   21.4477   19.7816   20.7281 H   0  0  0  0  0  0  0  0  0  0  0  0
   21.0446   21.2288   19.8024 H   0  0  0  0  0  0  0  0  0  0  0  0
   18.8971   22.0610   21.2022 N   0  3  0  0  0  0  0  0  0  0  0  0
   18.1698   21.6554   20.6072 H   0  0  0  0  0  0  0  0  0  0  0  0
   18.4311   22.5006   22.0011 H   0  0  0  0  0  0  0  0  0  0  0  0
   19.3491   22.8072   20.6660 H   0  0  0  0  0  0  0  0  0  0  0  0
  1  2  1  0  0  0  0
  1  3  1  0  0  0  0
  1  4  1  0  0  0  0
  1  5  1  0  0  0  0
  5  6  1  0  0  0  0
  5  7  1  0  0  0  0
  5  8  1  0  0  0  0
  8  9  1  0  0  0  0
  8 10  1  0  0  0  0
  8 11  1  0  0  0  0
 11 12  1  0  0  0  0
 11 13  1  0  0  0  0
 11 14  1  0  0  0  0
 14 15  1  0  0  0  0
 14 16  1  0  0  0  0
 14 17  1  0  0  0  0
 17 18  1  0  0  0  0
 17 19  1  0  0  0  0
 19 20  1  0  0  0  0
 19 21  1  0  0  0  0
 19 22  1  0  0  0  0
 17 23  1  0  0  0  0
 23 24  1  0  0  0  0
 23 25  1  0  0  0  0
 23 26  1  0  0  0  0
M  END
> <VConfSearch Rank>
502

> <Conf_Id>
54

> <Delta U+W>
0.453

> <U+W>
-29.845

> <U>
23.817

> <W>
-53.663

> <W(PB)>
-56.021

> <W(SA)>
2.358

> <Valence>
3.277

> <Coulomb>
19.492

> <VdW>
1.049

> <VdW6>
-6.949

> <VdW12>
7.998

> <Bond>
0.183

> <Angle>
1.152

> <Pdih>
1.942

> <Idih>
0.000

> <Tether>
0.000

$$$$
VeraChem MOL file


 26 25  0  0  0  0  0  0  0  0999 V2000     
   21.3414   22.4438   22.9304 C   0  0  0  0  0  0  0  0  0  0  0  0
   22.1814   22.0827   23.5380 H   0  0  0  0  0  0  0  0  0  0  0  0
   21.5350   22.1789   21.8839 H   0  0  0  0  0  0  0  0  0  0  0  0
   21.3284   23.5395   22.9946 H   0  0  0  0  0  0  0  0  0  0  0  0
   20.0011   21.8581   23.4305 C   0  0  0  0  0  0  0  0  0  0  0  0
   19.1806   22.2056   22.7871 H   0  0  0  0  0  0  0  0  0  0  0  0
   19.7960   22.2599   24.4327 H   0  0  0  0  0  0  0  0  0  0  0  0
   19.9903   20.3119   23.5067 C   0  0  0  0  0  0  0  0  0  0  0  0
   20.8309   19.9706   24.1267 H   0  0  0  0  0  0  0  0  0  0  0  0
   19.0693   20.0149   24.0221 H   0  0  0  0  0  0  0  0  0  0  0  0
   20.0431   19.6262   22.1181 C   0  0  0  0  0  0  0  0  0  0  0  0
   20.8955   20.0204   21.5507 H   0  0  0  0  0  0  0  0  0  0  0  0
   19.1454   19.8945   21.5442 H   0  0  0  0  0  0  0  0  0  0  0  0
   20.1866   18.0816   22.1585 C   0  0  0  0  0  0  0  0  0  0  0  0
   20.3144   17.7443   21.1212 H   0  0  0  0  0  0  0  0  0  0  0  0
   21.1115   17.8008   22.6794 H   0  0  0  0  0  0  0  0  0  0  0  0
   18.9834   17.3309   22.7775 C   0  0  1  0  0  0  0  0  0  0  0  0
   18.0641   17.8395   22.4713 H   0  0  0  0  0  0  0  0  0  0  0  0
   18.9288   15.8847   22.2576 C   0  0  0  0  0  0  0  0  0  0  0  0
   18.0689   15.3514   22.6813 H   0  0  0  0  0  0  0  0  0  0  0  0
   19.8390   15.3326   22.5240 H   0  0  0  0  0  0  0  0  0  0  0  0
   18.8242   15.8654   21.1656 H   0  0  0  0  0  0  0  0  0  0  0  0
   19.0097   17.3262   24.2819 N   0  3  0  0  0  0  0  0  0  0  0  0
   19.0375   18.2757   24.6599 H   0  0  0  0  0  0  0  0  0  0  0  0
   18.1819   16.8639   24.6688 H   0  0  0  0  0  0  0  0  0  0  0  0
   19.8308   16.8295   24.6375 H   0  0  0  0  0  0  0  0  0  0  0  0
  1  2  1  0  0  0  0
  1  3  1  0  0  0  0
  1  4  1  0  0  0  0
  1  5  1  0  0  0  0
  5  6  1  0  0  0  0
  5  7  1  0  0  0  0
  5  8  1  0  0  0  0
  8  9  1  0  0  0  0
  8 10  1  0  0  0  0
  8 11  1  0  0  0  0
 11 12  1  0  0  0  0
 11 13  1  0  0  0  0
 11 14  1  0  0  0  0
 14 15  1  0  0  0  0
 14 16  1  0  0  0  0
 14 17  1  0  0  0  0
 17 18  1  0  0  0  0
 17 19  1  0  0  0  0
 19 20  1  0  0  0  0
 19 21  1  0  0  0  0
 19 22  1  0  0  0  0
 17 23  1  0  0  0  0
 23 24  1  0  0  0  0
 23 25  1  0  0  0  0
 23 26  1  0  0  0  0
M  END
> <VConfSearch Rank>
503

> <Conf_Id>
110

> <Delta U+W>
3.764

> <U+W>
-26.535

> <U>
27.400

> <W>
-53.935

> <W(PB)>
-56.238

> <W(SA)>
2.303

> <Valence>
5.205

> <Coulomb>
21.096

> <VdW>
1.098

> <VdW6>
-8.389

> <VdW12>
9.488

> <Bond>
0.270

> <Angle>
1.912

> <Pdih>
3.023

> <Idih>
0.000

> <Tether>
0.000

$$$$
VeraChem MOL file


 26 25  0  0  0  0  0  0  0  0999 V2000     
   19.4630   22.2665   24.8863 C   0  0  0  0  0  0  0  0  0  0  0  0
   18.8231   22.9576   25.4499 H   0  0  0  0  0  0  0  0  0  0  0  0
   19.9209   21.5787   25.6080 H   0  0  0  0  0  0  0  0  0  0  0  0
   20.2617   22.8555   24.4171 H   0  0  0  0  0  0  0  0  0  0  0  0
   18.6354   21.5071   23.8247 C   0  0  0  0  0  0  0  0  0  0  0  0
   18.1005   22.2386   23.2029 H   0  0  0  0  0  0  0  0  0  0  0  0
   17.8632   20.9029   24.3212 H   0  0  0  0  0  0  0  0  0  0  0  0
   19.4929   20.6054   22.9042 C   0  0  0  0  0  0  0  0  0  0  0  0
   18.8448   20.2003   22.1177 H   0  0  0  0  0  0  0  0  0  0  0  0
   20.2447   21.2200   22.3900 H   0  0  0  0  0  0  0  0  0  0  0  0
   20.1986   19.4496   23.6593 C   0  0  0  0  0  0  0  0  0  0  0  0
   19.4803   18.9058   24.2882 H   0  0  0  0  0  0  0  0  0  0  0  0
   20.9372   19.8827   24.3466 H   0  0  0  0  0  0  0  0  0  0  0  0
   20.9369   18.4616   22.7174 C   0  0  0  0  0  0  0  0  0  0  0  0
   21.2378   18.9700   21.7917 H   0  0  0  0  0  0  0  0  0  0  0  0
   21.8711   18.1630   23.2111 H   0  0  0  0  0  0  0  0  0  0  0  0
   20.1515   17.1691   22.3877 C   0  0  1  0  0  0  0  0  0  0  0  0
   19.9097   16.6689   23.3305 H   0  0  0  0  0  0  0  0  0  0  0  0
   18.8357   17.4436   21.6401 C   0  0  0  0  0  0  0  0  0  0  0  0
   19.0118   18.0198   20.7233 H   0  0  0  0  0  0  0  0  0  0  0  0
   18.1325   17.9986   22.2718 H   0  0  0  0  0  0  0  0  0  0  0  0
   18.3454   16.5026   21.3618 H   0  0  0  0  0  0  0  0  0  0  0  0
   21.0018   16.2063   21.6060 N   0  3  0  0  0  0  0  0  0  0  0  0
   21.8627   15.9699   22.1075 H   0  0  0  0  0  0  0  0  0  0  0  0
   20.5046   15.3296   21.4256 H   0  0  0  0  0  0  0  0  0  0  0  0
   21.2714   16.5964   20.6990 H   0  0  0  0  0  0  0  0  0  0  0  0
  1  2  1  0  0  0  0
  1  3  1  0  0  0  0
  1  4  1  0  0  0  0
  1  5  1  0  0  0  0
  5  6  1  0  0  0  0
  5  7  1  0  0  0  0
  5  8  1  0  0  0  0
  8  9  1  0  0  0  0
  8 10  1  0  0  0  0
  8 11  1  0  0  0  0
 11 12  1  0  0  0  0
 11 13  1  0  0  0  0
 11 14  1  0  0  0  0
 14 15  1  0  0  0  0
 14 16  1  0  0  0  0
 14 17  1  0  0  0  0
 17 18  1  0  0  0  0
 17 19  1  0  0  0  0
 19 20  1  0  0  0  0
 19 21  1  0  0  0  0
 19 22  1  0  0  0  0
 17 23  1  0  0  0  0
 23 24  1  0  0  0  0
 23 25  1  0  0  0  0
 23 26  1  0  0  0  0
M  END
> <VConfSearch Rank>
504

> <Conf_Id>
34

> <Delta U+W>
3.568

> <U+W>
-26.731

> <U>
27.221

> <W>
-53.952

> <W(PB)>
-56.213

> <W(SA)>
2.261

> <Valence>
6.368

> <Coulomb>
19.698

> <VdW>
1.155

> <VdW6>
-8.532

> <VdW12>
9.687

> <Bond>
0.272

> <Angle>
1.847

> <Pdih>
4.248

> <Idih>
0.000

> <Tether>
0.000

$$$$
VeraChem MOL file


 26 25  0  0  0  0  0  0  0  0999 V2000     
   22.4025   21.8008   24.5935 C   0  0  0  0  0  0  0  0  0  0  0  0
   22.1854   21.6005   25.6509 H   0  0  0  0  0  0  0  0  0  0  0  0
   23.3439   21.2979   24.3364 H   0  0  0  0  0  0  0  0  0  0  0  0
   22.5561   22.8818   24.4801 H   0  0  0  0  0  0  0  0  0  0  0  0
   21.2496   21.3163   23.6890 C   0  0  0  0  0  0  0  0  0  0  0  0
   21.4800   21.5607   22.6426 H   0  0  0  0  0  0  0  0  0  0  0  0
   20.3305   21.8610   23.9469 H   0  0  0  0  0  0  0  0  0  0  0  0
   21.0122   19.7963   23.8298 C   0  0  0  0  0  0  0  0  0  0  0  0
   21.9345   19.2568   23.5735 H   0  0  0  0  0  0  0  0  0  0  0  0
   20.7849   19.5570   24.8779 H   0  0  0  0  0  0  0  0  0  0  0  0
   19.8581   19.3070   22.9258 C   0  0  0  0  0  0  0  0  0  0  0  0
   20.0910   19.5510   21.8809 H   0  0  0  0  0  0  0  0  0  0  0  0
   18.9432   19.8552   23.1866 H   0  0  0  0  0  0  0  0  0  0  0  0
   19.6232   17.7811   23.0742 C   0  0  0  0  0  0  0  0  0  0  0  0
   20.5594   17.2496   22.8584 H   0  0  0  0  0  0  0  0  0  0  0  0
   19.3801   17.5514   24.1201 H   0  0  0  0  0  0  0  0  0  0  0  0
   18.5121   17.2011   22.1671 C   0  0  1  0  0  0  0  0  0  0  0  0
   18.4739   16.1227   22.3497 H   0  0  0  0  0  0  0  0  0  0  0  0
   17.1271   17.7791   22.5067 C   0  0  0  0  0  0  0  0  0  0  0  0
   17.0593   18.8444   22.2564 H   0  0  0  0  0  0  0  0  0  0  0  0
   16.9068   17.6617   23.5750 H   0  0  0  0  0  0  0  0  0  0  0  0
   16.3445   17.2533   21.9463 H   0  0  0  0  0  0  0  0  0  0  0  0
   18.8207   17.3651   20.7042 N   0  3  0  0  0  0  0  0  0  0  0  0
   18.1075   16.9206   20.1193 H   0  0  0  0  0  0  0  0  0  0  0  0
   18.8611   18.3528   20.4412 H   0  0  0  0  0  0  0  0  0  0  0  0
   19.7216   16.9437   20.4608 H   0  0  0  0  0  0  0  0  0  0  0  0
  1  2  1  0  0  0  0
  1  3  1  0  0  0  0
  1  4  1  0  0  0  0
  1  5  1  0  0  0  0
  5  6  1  0  0  0  0
  5  7  1  0  0  0  0
  5  8  1  0  0  0  0
  8  9  1  0  0  0  0
  8 10  1  0  0  0  0
  8 11  1  0  0  0  0
 11 12  1  0  0  0  0
 11 13  1  0  0  0  0
 11 14  1  0  0  0  0
 14 15  1  0  0  0  0
 14 16  1  0  0  0  0
 14 17  1  0  0  0  0
 17 18  1  0  0  0  0
 17 19  1  0  0  0  0
 19 20  1  0  0  0  0
 19 21  1  0  0  0  0
 19 22  1  0  0  0  0
 17 23  1  0  0  0  0
 23 24  1  0  0  0  0
 23 25  1  0  0  0  0
 23 26  1  0  0  0  0
M  END
> <VConfSearch Rank>
505

> <Conf_Id>
132

> <Delta U+W>
0.363

> <U+W>
-29.936

> <U>
24.060

> <W>
-53.996

> <W(PB)>
-56.327

> <W(SA)>
2.332

> <Valence>
3.249

> <Coulomb>
19.781

> <VdW>
1.030

> <VdW6>
-7.421

> <VdW12>
8.451

> <Bond>
0.207

> <Angle>
1.205

> <Pdih>
1.837

> <Idih>
0.000

> <Tether>
0.000

$$$$
VeraChem MOL file


 26 25  0  0  0  0  0  0  0  0999 V2000     
   20.5988   21.2486   19.7275 C   0  0  0  0  0  0  0  0  0  0  0  0
   20.8846   22.3084   19.7375 H   0  0  0  0  0  0  0  0  0  0  0  0
   21.3404   20.7056   19.1272 H   0  0  0  0  0  0  0  0  0  0  0  0
   19.6260   21.1665   19.2253 H   0  0  0  0  0  0  0  0  0  0  0  0
   20.5298   20.6891   21.1643 C   0  0  0  0  0  0  0  0  0  0  0  0
   19.8101   21.2834   21.7425 H   0  0  0  0  0  0  0  0  0  0  0  0
   21.5080   20.8116   21.6498 H   0  0  0  0  0  0  0  0  0  0  0  0
   20.1238   19.1962   21.1755 C   0  0  0  0  0  0  0  0  0  0  0  0
   19.1217   19.0811   20.7398 H   0  0  0  0  0  0  0  0  0  0  0  0
   20.8086   18.6369   20.5231 H   0  0  0  0  0  0  0  0  0  0  0  0
   20.1555   18.5532   22.5840 C   0  0  0  0  0  0  0  0  0  0  0  0
   21.1614   18.6662   23.0095 H   0  0  0  0  0  0  0  0  0  0  0  0
   19.9878   17.4750   22.4656 H   0  0  0  0  0  0  0  0  0  0  0  0
   19.0942   19.1410   23.5541 C   0  0  0  0  0  0  0  0  0  0  0  0
   19.2801   20.2122   23.6980 H   0  0  0  0  0  0  0  0  0  0  0  0
   18.0997   19.0648   23.0949 H   0  0  0  0  0  0  0  0  0  0  0  0
   19.0497   18.4759   24.9504 C   0  0  1  0  0  0  0  0  0  0  0  0
   18.3063   19.0175   25.5435 H   0  0  0  0  0  0  0  0  0  0  0  0
   18.6028   17.0051   24.8800 C   0  0  0  0  0  0  0  0  0  0  0  0
   19.3521   16.3751   24.3864 H   0  0  0  0  0  0  0  0  0  0  0  0
   17.6576   16.9103   24.3313 H   0  0  0  0  0  0  0  0  0  0  0  0
   18.4426   16.6051   25.8887 H   0  0  0  0  0  0  0  0  0  0  0  0
   20.3516   18.6093   25.6917 N   0  3  0  0  0  0  0  0  0  0  0  0
   20.6327   19.5895   25.7839 H   0  0  0  0  0  0  0  0  0  0  0  0
   20.2859   18.2198   26.6364 H   0  0  0  0  0  0  0  0  0  0  0  0
   21.1063   18.1162   25.2084 H   0  0  0  0  0  0  0  0  0  0  0  0
  1  2  1  0  0  0  0
  1  3  1  0  0  0  0
  1  4  1  0  0  0  0
  1  5  1  0  0  0  0
  5  6  1  0  0  0  0
  5  7  1  0  0  0  0
  5  8  1  0  0  0  0
  8  9  1  0  0  0  0
  8 10  1  0  0  0  0
  8 11  1  0  0  0  0
 11 12  1  0  0  0  0
 11 13  1  0  0  0  0
 11 14  1  0  0  0  0
 14 15  1  0  0  0  0
 14 16  1  0  0  0  0
 14 17  1  0  0  0  0
 17 18  1  0  0  0  0
 17 19  1  0  0  0  0
 19 20  1  0  0  0  0
 19 21  1  0  0  0  0
 19 22  1  0  0  0  0
 17 23  1  0  0  0  0
 23 24  1  0  0  0  0
 23 25  1  0  0  0  0
 23 26  1  0  0  0  0
M  END
> <VConfSearch Rank>
506

> <Conf_Id>
46

> <Delta U+W>
1.114

> <U+W>
-29.185

> <U>
24.990

> <W>
-54.175

> <W(PB)>
-56.455

> <W(SA)>
2.279

> <Valence>
3.862

> <Coulomb>
19.956

> <VdW>
1.172

> <VdW6>
-8.054

> <VdW12>
9.226

> <Bond>
0.258

> <Angle>
1.499

> <Pdih>
2.106

> <Idih>
0.000

> <Tether>
0.000

$$$$
VeraChem MOL file


 26 25  0  0  0  0  0  0  0  0999 V2000     
   22.9975   17.2689   22.7306 C   0  0  0  0  0  0  0  0  0  0  0  0
   22.5837   16.8511   23.6566 H   0  0  0  0  0  0  0  0  0  0  0  0
   22.6943   16.6239   21.8957 H   0  0  0  0  0  0  0  0  0  0  0  0
   24.0914   17.2235   22.8093 H   0  0  0  0  0  0  0  0  0  0  0  0
   22.5320   18.7254   22.5054 C   0  0  0  0  0  0  0  0  0  0  0  0
   23.0713   19.1383   21.6414 H   0  0  0  0  0  0  0  0  0  0  0  0
   22.8173   19.3426   23.3688 H   0  0  0  0  0  0  0  0  0  0  0  0
   21.0112   18.8550   22.2479 C   0  0  0  0  0  0  0  0  0  0  0  0
   20.8008   19.8968   21.9729 H   0  0  0  0  0  0  0  0  0  0  0  0
   20.7339   18.2435   21.3782 H   0  0  0  0  0  0  0  0  0  0  0  0
   20.1432   18.4525   23.4674 C   0  0  0  0  0  0  0  0  0  0  0  0
   20.4384   19.0423   24.3453 H   0  0  0  0  0  0  0  0  0  0  0  0
   20.3395   17.4040   23.7260 H   0  0  0  0  0  0  0  0  0  0  0  0
   18.6216   18.6050   23.2115 C   0  0  0  0  0  0  0  0  0  0  0  0
   18.3339   17.9385   22.3874 H   0  0  0  0  0  0  0  0  0  0  0  0
   18.0741   18.2521   24.0956 H   0  0  0  0  0  0  0  0  0  0  0  0
   18.1717   20.0447   22.8751 C   0  0  1  0  0  0  0  0  0  0  0  0
   18.7055   20.3728   21.9785 H   0  0  0  0  0  0  0  0  0  0  0  0
   16.6652   20.0770   22.5726 C   0  0  0  0  0  0  0  0  0  0  0  0
   16.3468   21.0891   22.2940 H   0  0  0  0  0  0  0  0  0  0  0  0
   16.0780   19.7617   23.4441 H   0  0  0  0  0  0  0  0  0  0  0  0
   16.4213   19.4096   21.7366 H   0  0  0  0  0  0  0  0  0  0  0  0
   18.5145   21.0227   23.9653 N   0  3  0  0  0  0  0  0  0  0  0  0
   19.5215   21.0373   24.1481 H   0  0  0  0  0  0  0  0  0  0  0  0
   18.2331   21.9752   23.7167 H   0  0  0  0  0  0  0  0  0  0  0  0
   18.0448   20.7832   24.8424 H   0  0  0  0  0  0  0  0  0  0  0  0
  1  2  1  0  0  0  0
  1  3  1  0  0  0  0
  1  4  1  0  0  0  0
  1  5  1  0  0  0  0
  5  6  1  0  0  0  0
  5  7  1  0  0  0  0
  5  8  1  0  0  0  0
  8  9  1  0  0  0  0
  8 10  1  0  0  0  0
  8 11  1  0  0  0  0
 11 12  1  0  0  0  0
 11 13  1  0  0  0  0
 11 14  1  0  0  0  0
 14 15  1  0  0  0  0
 14 16  1  0  0  0  0
 14 17  1  0  0  0  0
 17 18  1  0  0  0  0
 17 19  1  0  0  0  0
 19 20  1  0  0  0  0
 19 21  1  0  0  0  0
 19 22  1  0  0  0  0
 17 23  1  0  0  0  0
 23 24  1  0  0  0  0
 23 25  1  0  0  0  0
 23 26  1  0  0  0  0
M  END
> <VConfSearch Rank>
507

> <Conf_Id>
113

> <Delta U+W>
1.137

> <U+W>
-29.162

> <U>
24.833

> <W>
-53.995

> <W(PB)>
-56.288

> <W(SA)>
2.294

> <Valence>
3.589

> <Coulomb>
20.270

> <VdW>
0.974

> <VdW6>
-8.255

> <VdW12>
9.229

> <Bond>
0.244

> <Angle>
1.377

> <Pdih>
1.967

> <Idih>
0.000

> <Tether>
0.000

$$$$
VeraChem MOL file


 26 25  0  0  0  0  0  0  0  0999 V2000     
   20.1962   15.4284   24.1873 C   0  0  0  0  0  0  0  0  0  0  0  0
   19.5609   14.9586   24.9494 H   0  0  0  0  0  0  0  0  0  0  0  0
   20.0239   14.9070   23.2367 H   0  0  0  0  0  0  0  0  0  0  0  0
   21.2431   15.2716   24.4785 H   0  0  0  0  0  0  0  0  0  0  0  0
   19.8740   16.9325   24.0610 C   0  0  0  0  0  0  0  0  0  0  0  0
   20.0275   17.4206   25.0336 H   0  0  0  0  0  0  0  0  0  0  0  0
   18.8115   17.0488   23.8099 H   0  0  0  0  0  0  0  0  0  0  0  0
   20.7549   17.6159   22.9884 C   0  0  0  0  0  0  0  0  0  0  0  0
   21.8115   17.4178   23.2159 H   0  0  0  0  0  0  0  0  0  0  0  0
   20.5616   17.1627   22.0064 H   0  0  0  0  0  0  0  0  0  0  0  0
   20.5511   19.1486   22.9029 C   0  0  0  0  0  0  0  0  0  0  0  0
   21.2979   19.5538   22.2078 H   0  0  0  0  0  0  0  0  0  0  0  0
   20.7659   19.5938   23.8834 H   0  0  0  0  0  0  0  0  0  0  0  0
   19.1281   19.5549   22.4309 C   0  0  0  0  0  0  0  0  0  0  0  0
   18.8869   19.0168   21.5049 H   0  0  0  0  0  0  0  0  0  0  0  0
   18.3865   19.2316   23.1720 H   0  0  0  0  0  0  0  0  0  0  0  0
   18.9345   21.0695   22.1819 C   0  0  1  0  0  0  0  0  0  0  0  0
   17.9022   21.2143   21.8483 H   0  0  0  0  0  0  0  0  0  0  0  0
   19.1290   21.8952   23.4656 C   0  0  0  0  0  0  0  0  0  0  0  0
   20.1702   21.8720   23.8086 H   0  0  0  0  0  0  0  0  0  0  0  0
   18.4919   21.5153   24.2739 H   0  0  0  0  0  0  0  0  0  0  0  0
   18.8566   22.9435   23.2924 H   0  0  0  0  0  0  0  0  0  0  0  0
   19.8066   21.5865   21.0708 N   0  3  0  0  0  0  0  0  0  0  0  0
   19.6521   21.0697   20.2005 H   0  0  0  0  0  0  0  0  0  0  0  0
   19.6190   22.5743   20.8768 H   0  0  0  0  0  0  0  0  0  0  0  0
   20.7983   21.5036   21.3067 H   0  0  0  0  0  0  0  0  0  0  0  0
  1  2  1  0  0  0  0
  1  3  1  0  0  0  0
  1  4  1  0  0  0  0
  1  5  1  0  0  0  0
  5  6  1  0  0  0  0
  5  7  1  0  0  0  0
  5  8  1  0  0  0  0
  8  9  1  0  0  0  0
  8 10  1  0  0  0  0
  8 11  1  0  0  0  0
 11 12  1  0  0  0  0
 11 13  1  0  0  0  0
 11 14  1  0  0  0  0
 14 15  1  0  0  0  0
 14 16  1  0  0  0  0
 14 17  1  0  0  0  0
 17 18  1  0  0  0  0
 17 19  1  0  0  0  0
 19 20  1  0  0  0  0
 19 21  1  0  0  0  0
 19 22  1  0  0  0  0
 17 23  1  0  0  0  0
 23 24  1  0  0  0  0
 23 25  1  0  0  0  0
 23 26  1  0  0  0  0
M  END
> <VConfSearch Rank>
508

> <Conf_Id>
45

> <Delta U+W>
1.035

> <U+W>
-29.264

> <U>
24.725

> <W>
-53.989

> <W(PB)>
-56.298

> <W(SA)>
2.309

> <Valence>
3.780

> <Coulomb>
19.804

> <VdW>
1.141

> <VdW6>
-8.104

> <VdW12>
9.246

> <Bond>
0.254

> <Angle>
1.437

> <Pdih>
2.089

> <Idih>
0.000

> <Tether>
0.000

$$$$
VeraChem MOL file


 26 25  0  0  0  0  0  0  0  0999 V2000     
   23.7710   19.4313   23.0288 C   0  0  0  0  0  0  0  0  0  0  0  0
   24.3123   20.2846   23.4575 H   0  0  0  0  0  0  0  0  0  0  0  0
   24.2396   18.5123   23.4043 H   0  0  0  0  0  0  0  0  0  0  0  0
   23.9024   19.4616   21.9393 H   0  0  0  0  0  0  0  0  0  0  0  0
   22.2760   19.4877   23.4086 C   0  0  0  0  0  0  0  0  0  0  0  0
   21.8552   20.4374   23.0529 H   0  0  0  0  0  0  0  0  0  0  0  0
   22.1783   19.4852   24.5032 H   0  0  0  0  0  0  0  0  0  0  0  0
   21.4910   18.2960   22.8108 C   0  0  0  0  0  0  0  0  0  0  0  0
   21.5418   18.3314   21.7138 H   0  0  0  0  0  0  0  0  0  0  0  0
   21.9826   17.3604   23.1113 H   0  0  0  0  0  0  0  0  0  0  0  0
   20.0103   18.2366   23.2609 C   0  0  0  0  0  0  0  0  0  0  0  0
   19.9613   18.1994   24.3580 H   0  0  0  0  0  0  0  0  0  0  0  0
   19.5845   17.2911   22.9004 H   0  0  0  0  0  0  0  0  0  0  0  0
   19.1565   19.4213   22.7394 C   0  0  0  0  0  0  0  0  0  0  0  0
   19.5707   20.3626   23.1211 H   0  0  0  0  0  0  0  0  0  0  0  0
   19.2191   19.4709   21.6442 H   0  0  0  0  0  0  0  0  0  0  0  0
   17.6762   19.3325   23.1708 C   0  0  1  0  0  0  0  0  0  0  0  0
   17.6414   19.2478   24.2613 H   0  0  0  0  0  0  0  0  0  0  0  0
   16.9233   20.6089   22.7621 C   0  0  0  0  0  0  0  0  0  0  0  0
   16.9283   20.7414   21.6729 H   0  0  0  0  0  0  0  0  0  0  0  0
   17.3831   21.4955   23.2162 H   0  0  0  0  0  0  0  0  0  0  0  0
   15.8794   20.5680   23.0967 H   0  0  0  0  0  0  0  0  0  0  0  0
   16.9850   18.1153   22.6190 N   0  3  0  0  0  0  0  0  0  0  0  0
   17.4462   17.2533   22.9213 H   0  0  0  0  0  0  0  0  0  0  0  0
   16.0106   18.0656   22.9296 H   0  0  0  0  0  0  0  0  0  0  0  0
   16.9803   18.1203   21.5957 H   0  0  0  0  0  0  0  0  0  0  0  0
  1  2  1  0  0  0  0
  1  3  1  0  0  0  0
  1  4  1  0  0  0  0
  1  5  1  0  0  0  0
  5  6  1  0  0  0  0
  5  7  1  0  0  0  0
  5  8  1  0  0  0  0
  8  9  1  0  0  0  0
  8 10  1  0  0  0  0
  8 11  1  0  0  0  0
 11 12  1  0  0  0  0
 11 13  1  0  0  0  0
 11 14  1  0  0  0  0
 14 15  1  0  0  0  0
 14 16  1  0  0  0  0
 14 17  1  0  0  0  0
 17 18  1  0  0  0  0
 17 19  1  0  0  0  0
 19 20  1  0  0  0  0
 19 21  1  0  0  0  0
 19 22  1  0  0  0  0
 17 23  1  0  0  0  0
 23 24  1  0  0  0  0
 23 25  1  0  0  0  0
 23 26  1  0  0  0  0
M  END
> <VConfSearch Rank>
509

> <Conf_Id>
121

> <Delta U+W>
0.736

> <U+W>
-29.562

> <U>
24.282

> <W>
-53.844

> <W(PB)>
-56.205

> <W(SA)>
2.361

> <Valence>
3.311

> <Coulomb>
19.887

> <VdW>
1.083

> <VdW6>
-7.444

> <VdW12>
8.527

> <Bond>
0.219

> <Angle>
1.167

> <Pdih>
1.926

> <Idih>
0.000

> <Tether>
0.000

$$$$
VeraChem MOL file


 26 25  0  0  0  0  0  0  0  0999 V2000     
   20.6158   21.1182   19.9528 C   0  0  0  0  0  0  0  0  0  0  0  0
   20.6749   22.0755   19.4191 H   0  0  0  0  0  0  0  0  0  0  0  0
   21.4761   20.5094   19.6459 H   0  0  0  0  0  0  0  0  0  0  0  0
   19.7004   20.6129   19.6212 H   0  0  0  0  0  0  0  0  0  0  0  0
   20.6161   21.3506   21.4809 C   0  0  0  0  0  0  0  0  0  0  0  0
   19.7285   21.9322   21.7669 H   0  0  0  0  0  0  0  0  0  0  0  0
   21.4859   21.9690   21.7432 H   0  0  0  0  0  0  0  0  0  0  0  0
   20.6725   20.0415   22.3049 C   0  0  0  0  0  0  0  0  0  0  0  0
   21.5658   19.4681   22.0211 H   0  0  0  0  0  0  0  0  0  0  0  0
   20.7999   20.3109   23.3616 H   0  0  0  0  0  0  0  0  0  0  0  0
   19.4101   19.1571   22.1438 C   0  0  0  0  0  0  0  0  0  0  0  0
   19.2921   18.8756   21.0895 H   0  0  0  0  0  0  0  0  0  0  0  0
   18.5140   19.7357   22.4039 H   0  0  0  0  0  0  0  0  0  0  0  0
   19.4654   17.8535   22.9824 C   0  0  0  0  0  0  0  0  0  0  0  0
   18.5541   17.2705   22.7944 H   0  0  0  0  0  0  0  0  0  0  0  0
   20.2993   17.2409   22.6150 H   0  0  0  0  0  0  0  0  0  0  0  0
   19.6337   18.0560   24.5071 C   0  0  1  0  0  0  0  0  0  0  0  0
   20.5507   18.6265   24.6811 H   0  0  0  0  0  0  0  0  0  0  0  0
   18.4543   18.8304   25.1220 C   0  0  0  0  0  0  0  0  0  0  0  0
   17.5011   18.3249   24.9234 H   0  0  0  0  0  0  0  0  0  0  0  0
   18.3942   19.8484   24.7199 H   0  0  0  0  0  0  0  0  0  0  0  0
   18.5736   18.9174   26.2090 H   0  0  0  0  0  0  0  0  0  0  0  0
   19.8176   16.7403   25.2111 N   0  3  0  0  0  0  0  0  0  0  0  0
   20.6245   16.2263   24.8459 H   0  0  0  0  0  0  0  0  0  0  0  0
   19.9695   16.8710   26.2152 H   0  0  0  0  0  0  0  0  0  0  0  0
   18.9960   16.1397   25.1028 H   0  0  0  0  0  0  0  0  0  0  0  0
  1  2  1  0  0  0  0
  1  3  1  0  0  0  0
  1  4  1  0  0  0  0
  1  5  1  0  0  0  0
  5  6  1  0  0  0  0
  5  7  1  0  0  0  0
  5  8  1  0  0  0  0
  8  9  1  0  0  0  0
  8 10  1  0  0  0  0
  8 11  1  0  0  0  0
 11 12  1  0  0  0  0
 11 13  1  0  0  0  0
 11 14  1  0  0  0  0
 14 15  1  0  0  0  0
 14 16  1  0  0  0  0
 14 17  1  0  0  0  0
 17 18  1  0  0  0  0
 17 19  1  0  0  0  0
 19 20  1  0  0  0  0
 19 21  1  0  0  0  0
 19 22  1  0  0  0  0
 17 23  1  0  0  0  0
 23 24  1  0  0  0  0
 23 25  1  0  0  0  0
 23 26  1  0  0  0  0
M  END
> <VConfSearch Rank>
510

> <Conf_Id>
5

> <Delta U+W>
1.233

> <U+W>
-29.065

> <U>
25.023

> <W>
-54.088

> <W(PB)>
-56.383

> <W(SA)>
2.296

> <Valence>
4.083

> <Coulomb>
19.893

> <VdW>
1.047

> <VdW6>
-8.479

> <VdW12>
9.527

> <Bond>
0.256

> <Angle>
1.716

> <Pdih>
2.112

> <Idih>
0.000

> <Tether>
0.000

$$$$
VeraChem MOL file


 26 25  0  0  0  0  0  0  0  0999 V2000     
   18.9393   21.7509   20.5043 C   0  0  0  0  0  0  0  0  0  0  0  0
   19.1839   22.4950   19.7352 H   0  0  0  0  0  0  0  0  0  0  0  0
   18.4846   20.8914   19.9968 H   0  0  0  0  0  0  0  0  0  0  0  0
   18.1890   22.1934   21.1722 H   0  0  0  0  0  0  0  0  0  0  0  0
   20.2095   21.3450   21.2861 C   0  0  0  0  0  0  0  0  0  0  0  0
   20.6953   22.2553   21.6645 H   0  0  0  0  0  0  0  0  0  0  0  0
   20.9302   20.8737   20.6033 H   0  0  0  0  0  0  0  0  0  0  0  0
   19.9255   20.4027   22.4810 C   0  0  0  0  0  0  0  0  0  0  0  0
   20.8580   20.2890   23.0488 H   0  0  0  0  0  0  0  0  0  0  0  0
   19.2009   20.8767   23.1573 H   0  0  0  0  0  0  0  0  0  0  0  0
   19.4108   19.0049   22.0556 C   0  0  0  0  0  0  0  0  0  0  0  0
   20.1534   18.5250   21.4033 H   0  0  0  0  0  0  0  0  0  0  0  0
   18.4994   19.1163   21.4546 H   0  0  0  0  0  0  0  0  0  0  0  0
   19.0863   18.0631   23.2431 C   0  0  0  0  0  0  0  0  0  0  0  0
   18.2824   18.4935   23.8552 H   0  0  0  0  0  0  0  0  0  0  0  0
   18.6732   17.1362   22.8238 H   0  0  0  0  0  0  0  0  0  0  0  0
   20.3131   17.7208   24.1233 C   0  0  1  0  0  0  0  0  0  0  0  0
   21.2177   17.9572   23.5546 H   0  0  0  0  0  0  0  0  0  0  0  0
   20.3213   18.5398   25.4269 C   0  0  0  0  0  0  0  0  0  0  0  0
   19.4558   18.2921   26.0542 H   0  0  0  0  0  0  0  0  0  0  0  0
   20.2934   19.6165   25.2256 H   0  0  0  0  0  0  0  0  0  0  0  0
   21.2297   18.3344   26.0065 H   0  0  0  0  0  0  0  0  0  0  0  0
   20.3882   16.2515   24.4368 N   0  3  0  0  0  0  0  0  0  0  0  0
   20.4321   15.6861   23.5840 H   0  0  0  0  0  0  0  0  0  0  0  0
   21.2195   16.0294   24.9918 H   0  0  0  0  0  0  0  0  0  0  0  0
   19.5724   15.9404   24.9711 H   0  0  0  0  0  0  0  0  0  0  0  0
  1  2  1  0  0  0  0
  1  3  1  0  0  0  0
  1  4  1  0  0  0  0
  1  5  1  0  0  0  0
  5  6  1  0  0  0  0
  5  7  1  0  0  0  0
  5  8  1  0  0  0  0
  8  9  1  0  0  0  0
  8 10  1  0  0  0  0
  8 11  1  0  0  0  0
 11 12  1  0  0  0  0
 11 13  1  0  0  0  0
 11 14  1  0  0  0  0
 14 15  1  0  0  0  0
 14 16  1  0  0  0  0
 14 17  1  0  0  0  0
 17 18  1  0  0  0  0
 17 19  1  0  0  0  0
 19 20  1  0  0  0  0
 19 21  1  0  0  0  0
 19 22  1  0  0  0  0
 17 23  1  0  0  0  0
 23 24  1  0  0  0  0
 23 25  1  0  0  0  0
 23 26  1  0  0  0  0
M  END
> <VConfSearch Rank>
511

> <Conf_Id>
100

> <Delta U+W>
3.818

> <U+W>
-26.481

> <U>
27.496

> <W>
-53.977

> <W(PB)>
-56.267

> <W(SA)>
2.290

> <Valence>
6.472

> <Coulomb>
19.839

> <VdW>
1.185

> <VdW6>
-8.405

> <VdW12>
9.590

> <Bond>
0.248

> <Angle>
1.619

> <Pdih>
4.604

> <Idih>
0.000

> <Tether>
0.000

$$$$
VeraChem MOL file


 26 25  0  0  0  0  0  0  0  0999 V2000     
   23.0902   18.5753   24.6050 C   0  0  0  0  0  0  0  0  0  0  0  0
   23.5298   18.0454   25.4600 H   0  0  0  0  0  0  0  0  0  0  0  0
   23.3470   18.0179   23.6948 H   0  0  0  0  0  0  0  0  0  0  0  0
   23.5608   19.5653   24.5440 H   0  0  0  0  0  0  0  0  0  0  0  0
   21.5602   18.6974   24.7678 C   0  0  0  0  0  0  0  0  0  0  0  0
   21.3345   19.2284   25.7033 H   0  0  0  0  0  0  0  0  0  0  0  0
   21.1224   17.6935   24.8595 H   0  0  0  0  0  0  0  0  0  0  0  0
   20.9156   19.4406   23.5769 C   0  0  0  0  0  0  0  0  0  0  0  0
   21.3587   20.4425   23.4914 H   0  0  0  0  0  0  0  0  0  0  0  0
   21.1590   18.9109   22.6484 H   0  0  0  0  0  0  0  0  0  0  0  0
   19.3814   19.5694   23.7430 C   0  0  0  0  0  0  0  0  0  0  0  0
   19.1862   20.1253   24.6705 H   0  0  0  0  0  0  0  0  0  0  0  0
   18.9308   18.5788   23.8862 H   0  0  0  0  0  0  0  0  0  0  0  0
   18.6911   20.3216   22.5708 C   0  0  0  0  0  0  0  0  0  0  0  0
   17.8659   20.9173   22.9825 H   0  0  0  0  0  0  0  0  0  0  0  0
   19.3851   21.0527   22.1356 H   0  0  0  0  0  0  0  0  0  0  0  0
   18.1050   19.4352   21.4436 C   0  0  1  0  0  0  0  0  0  0  0  0
   17.6700   20.1093   20.6992 H   0  0  0  0  0  0  0  0  0  0  0  0
   19.1719   18.5885   20.7310 C   0  0  0  0  0  0  0  0  0  0  0  0
   19.5653   17.8028   21.3867 H   0  0  0  0  0  0  0  0  0  0  0  0
   20.0075   19.2149   20.3951 H   0  0  0  0  0  0  0  0  0  0  0  0
   18.7452   18.1012   19.8458 H   0  0  0  0  0  0  0  0  0  0  0  0
   16.9726   18.5714   21.9282 N   0  3  0  0  0  0  0  0  0  0  0  0
   16.2293   19.1312   22.3555 H   0  0  0  0  0  0  0  0  0  0  0  0
   16.5520   18.0409   21.1601 H   0  0  0  0  0  0  0  0  0  0  0  0
   17.2912   17.8972   22.6282 H   0  0  0  0  0  0  0  0  0  0  0  0
  1  2  1  0  0  0  0
  1  3  1  0  0  0  0
  1  4  1  0  0  0  0
  1  5  1  0  0  0  0
  5  6  1  0  0  0  0
  5  7  1  0  0  0  0
  5  8  1  0  0  0  0
  8  9  1  0  0  0  0
  8 10  1  0  0  0  0
  8 11  1  0  0  0  0
 11 12  1  0  0  0  0
 11 13  1  0  0  0  0
 11 14  1  0  0  0  0
 14 15  1  0  0  0  0
 14 16  1  0  0  0  0
 14 17  1  0  0  0  0
 17 18  1  0  0  0  0
 17 19  1  0  0  0  0
 19 20  1  0  0  0  0
 19 21  1  0  0  0  0
 19 22  1  0  0  0  0
 17 23  1  0  0  0  0
 23 24  1  0  0  0  0
 23 25  1  0  0  0  0
 23 26  1  0  0  0  0
M  END
> <VConfSearch Rank>
512

> <Conf_Id>
142

> <Delta U+W>
2.978

> <U+W>
-27.320

> <U>
26.848

> <W>
-54.168

> <W(PB)>
-56.427

> <W(SA)>
2.259

> <Valence>
5.823

> <Coulomb>
20.057

> <VdW>
0.968

> <VdW6>
-8.367

> <VdW12>
9.335

> <Bond>
0.267

> <Angle>
1.799

> <Pdih>
3.758

> <Idih>
0.000

> <Tether>
0.000

$$$$
VeraChem MOL file


 26 25  0  0  0  0  0  0  0  0999 V2000     
   18.4990   20.1776   19.8748 C   0  0  0  0  0  0  0  0  0  0  0  0
   17.5293   20.4625   20.3031 H   0  0  0  0  0  0  0  0  0  0  0  0
   18.6126   20.7080   18.9205 H   0  0  0  0  0  0  0  0  0  0  0  0
   18.4751   19.1039   19.6525 H   0  0  0  0  0  0  0  0  0  0  0  0
   19.6573   20.5372   20.8333 C   0  0  0  0  0  0  0  0  0  0  0  0
   19.7162   21.6315   20.9164 H   0  0  0  0  0  0  0  0  0  0  0  0
   20.6129   20.2107   20.3997 H   0  0  0  0  0  0  0  0  0  0  0  0
   19.4943   19.9421   22.2531 C   0  0  0  0  0  0  0  0  0  0  0  0
   20.2740   20.3815   22.8860 H   0  0  0  0  0  0  0  0  0  0  0  0
   18.5279   20.2545   22.6722 H   0  0  0  0  0  0  0  0  0  0  0  0
   19.6124   18.3976   22.2913 C   0  0  0  0  0  0  0  0  0  0  0  0
   20.6045   18.0942   21.9315 H   0  0  0  0  0  0  0  0  0  0  0  0
   18.8953   17.9644   21.5829 H   0  0  0  0  0  0  0  0  0  0  0  0
   19.3299   17.7582   23.6805 C   0  0  0  0  0  0  0  0  0  0  0  0
   18.2928   17.9694   23.9724 H   0  0  0  0  0  0  0  0  0  0  0  0
   19.3810   16.6680   23.5606 H   0  0  0  0  0  0  0  0  0  0  0  0
   20.2701   18.1409   24.8522 C   0  0  1  0  0  0  0  0  0  0  0  0
   20.0697   17.4308   25.6605 H   0  0  0  0  0  0  0  0  0  0  0  0
   21.7576   18.0050   24.4829 C   0  0  0  0  0  0  0  0  0  0  0  0
   22.0603   18.7516   23.7390 H   0  0  0  0  0  0  0  0  0  0  0  0
   21.9671   17.0082   24.0754 H   0  0  0  0  0  0  0  0  0  0  0  0
   22.3877   18.1411   25.3703 H   0  0  0  0  0  0  0  0  0  0  0  0
   19.9703   19.4948   25.4349 N   0  3  0  0  0  0  0  0  0  0  0  0
   18.9974   19.5607   25.7476 H   0  0  0  0  0  0  0  0  0  0  0  0
   20.5646   19.6923   26.2451 H   0  0  0  0  0  0  0  0  0  0  0  0
   20.1249   20.2380   24.7510 H   0  0  0  0  0  0  0  0  0  0  0  0
  1  2  1  0  0  0  0
  1  3  1  0  0  0  0
  1  4  1  0  0  0  0
  1  5  1  0  0  0  0
  5  6  1  0  0  0  0
  5  7  1  0  0  0  0
  5  8  1  0  0  0  0
  8  9  1  0  0  0  0
  8 10  1  0  0  0  0
  8 11  1  0  0  0  0
 11 12  1  0  0  0  0
 11 13  1  0  0  0  0
 11 14  1  0  0  0  0
 14 15  1  0  0  0  0
 14 16  1  0  0  0  0
 14 17  1  0  0  0  0
 17 18  1  0  0  0  0
 17 19  1  0  0  0  0
 19 20  1  0  0  0  0
 19 21  1  0  0  0  0
 19 22  1  0  0  0  0
 17 23  1  0  0  0  0
 23 24  1  0  0  0  0
 23 25  1  0  0  0  0
 23 26  1  0  0  0  0
M  END
> <VConfSearch Rank>
513

> <Conf_Id>
119

> <Delta U+W>
3.538

> <U+W>
-26.761

> <U>
27.482

> <W>
-54.243

> <W(PB)>
-56.494

> <W(SA)>
2.251

> <Valence>
5.284

> <Coulomb>
21.247

> <VdW>
0.951

> <VdW6>
-9.416

> <VdW12>
10.367

> <Bond>
0.323

> <Angle>
2.522

> <Pdih>
2.439

> <Idih>
0.000

> <Tether>
0.000

$$$$
VeraChem MOL file


 26 25  0  0  0  0  0  0  0  0999 V2000     
   18.7195   22.1541   21.6187 C   0  0  0  0  0  0  0  0  0  0  0  0
   19.6068   22.7956   21.6977 H   0  0  0  0  0  0  0  0  0  0  0  0
   18.8445   21.4989   20.7477 H   0  0  0  0  0  0  0  0  0  0  0  0
   17.8542   22.8006   21.4233 H   0  0  0  0  0  0  0  0  0  0  0  0
   18.5047   21.3404   22.9151 C   0  0  0  0  0  0  0  0  0  0  0  0
   17.6306   20.6846   22.7990 H   0  0  0  0  0  0  0  0  0  0  0  0
   18.2618   22.0342   23.7321 H   0  0  0  0  0  0  0  0  0  0  0  0
   19.7376   20.5004   23.3274 C   0  0  0  0  0  0  0  0  0  0  0  0
   20.6009   21.1653   23.4679 H   0  0  0  0  0  0  0  0  0  0  0  0
   19.5361   20.0541   24.3084 H   0  0  0  0  0  0  0  0  0  0  0  0
   20.0979   19.3928   22.3039 C   0  0  0  0  0  0  0  0  0  0  0  0
   20.4090   19.8744   21.3675 H   0  0  0  0  0  0  0  0  0  0  0  0
   19.2074   18.8004   22.0577 H   0  0  0  0  0  0  0  0  0  0  0  0
   21.2572   18.4709   22.7755 C   0  0  0  0  0  0  0  0  0  0  0  0
   21.8718   18.2155   21.9022 H   0  0  0  0  0  0  0  0  0  0  0  0
   21.9263   19.0254   23.4466 H   0  0  0  0  0  0  0  0  0  0  0  0
   20.8363   17.1419   23.4509 C   0  0  1  0  0  0  0  0  0  0  0  0
   21.7558   16.6181   23.7301 H   0  0  0  0  0  0  0  0  0  0  0  0
   20.0192   17.3560   24.7354 C   0  0  0  0  0  0  0  0  0  0  0  0
   19.0319   17.7804   24.5177 H   0  0  0  0  0  0  0  0  0  0  0  0
   20.5447   18.0288   25.4243 H   0  0  0  0  0  0  0  0  0  0  0  0
   19.8657   16.4024   25.2551 H   0  0  0  0  0  0  0  0  0  0  0  0
   20.1122   16.2253   22.5028 N   0  3  0  0  0  0  0  0  0  0  0  0
   20.6713   16.0313   21.6673 H   0  0  0  0  0  0  0  0  0  0  0  0
   19.8982   15.3258   22.9427 H   0  0  0  0  0  0  0  0  0  0  0  0
   19.2271   16.6334   22.1929 H   0  0  0  0  0  0  0  0  0  0  0  0
  1  2  1  0  0  0  0
  1  3  1  0  0  0  0
  1  4  1  0  0  0  0
  1  5  1  0  0  0  0
  5  6  1  0  0  0  0
  5  7  1  0  0  0  0
  5  8  1  0  0  0  0
  8  9  1  0  0  0  0
  8 10  1  0  0  0  0
  8 11  1  0  0  0  0
 11 12  1  0  0  0  0
 11 13  1  0  0  0  0
 11 14  1  0  0  0  0
 14 15  1  0  0  0  0
 14 16  1  0  0  0  0
 14 17  1  0  0  0  0
 17 18  1  0  0  0  0
 17 19  1  0  0  0  0
 19 20  1  0  0  0  0
 19 21  1  0  0  0  0
 19 22  1  0  0  0  0
 17 23  1  0  0  0  0
 23 24  1  0  0  0  0
 23 25  1  0  0  0  0
 23 26  1  0  0  0  0
M  END
> <VConfSearch Rank>
514

> <Conf_Id>
127

> <Delta U+W>
3.544

> <U+W>
-26.754

> <U>
27.509

> <W>
-54.263

> <W(PB)>
-56.496

> <W(SA)>
2.232

> <Valence>
6.375

> <Coulomb>
20.014

> <VdW>
1.120

> <VdW6>
-8.976

> <VdW12>
10.096

> <Bond>
0.304

> <Angle>
1.986

> <Pdih>
4.086

> <Idih>
0.000

> <Tether>
0.000

$$$$
VeraChem MOL file


 26 25  0  0  0  0  0  0  0  0999 V2000     
   18.8445   17.5847   20.3720 C   0  0  0  0  0  0  0  0  0  0  0  0
   18.5624   16.5551   20.1163 H   0  0  0  0  0  0  0  0  0  0  0  0
   18.7974   18.1808   19.4514 H   0  0  0  0  0  0  0  0  0  0  0  0
   19.8864   17.5692   20.7101 H   0  0  0  0  0  0  0  0  0  0  0  0
   17.8909   18.1554   21.4476 C   0  0  0  0  0  0  0  0  0  0  0  0
   17.8881   17.5103   22.3372 H   0  0  0  0  0  0  0  0  0  0  0  0
   16.8685   18.1198   21.0461 H   0  0  0  0  0  0  0  0  0  0  0  0
   18.2155   19.6191   21.8430 C   0  0  0  0  0  0  0  0  0  0  0  0
   18.6815   20.1467   20.9993 H   0  0  0  0  0  0  0  0  0  0  0  0
   17.2663   20.1407   22.0288 H   0  0  0  0  0  0  0  0  0  0  0  0
   19.0882   19.7729   23.1155 C   0  0  0  0  0  0  0  0  0  0  0  0
   18.5561   19.3326   23.9692 H   0  0  0  0  0  0  0  0  0  0  0  0
   19.1789   20.8453   23.3294 H   0  0  0  0  0  0  0  0  0  0  0  0
   20.5015   19.1429   22.9958 C   0  0  0  0  0  0  0  0  0  0  0  0
   20.4029   18.0568   22.8803 H   0  0  0  0  0  0  0  0  0  0  0  0
   20.9887   19.5081   22.0822 H   0  0  0  0  0  0  0  0  0  0  0  0
   21.4367   19.4055   24.2001 C   0  0  1  0  0  0  0  0  0  0  0  0
   22.3598   18.8454   24.0210 H   0  0  0  0  0  0  0  0  0  0  0  0
   21.8162   20.8913   24.3287 C   0  0  0  0  0  0  0  0  0  0  0  0
   22.2189   21.2744   23.3829 H   0  0  0  0  0  0  0  0  0  0  0  0
   22.5887   21.0238   25.0961 H   0  0  0  0  0  0  0  0  0  0  0  0
   20.9558   21.5090   24.6116 H   0  0  0  0  0  0  0  0  0  0  0  0
   20.8732   18.8785   25.4912 N   0  3  0  0  0  0  0  0  0  0  0  0
   20.6630   17.8784   25.4289 H   0  0  0  0  0  0  0  0  0  0  0  0
   21.5307   19.0052   26.2658 H   0  0  0  0  0  0  0  0  0  0  0  0
   20.0068   19.3608   25.7421 H   0  0  0  0  0  0  0  0  0  0  0  0
  1  2  1  0  0  0  0
  1  3  1  0  0  0  0
  1  4  1  0  0  0  0
  1  5  1  0  0  0  0
  5  6  1  0  0  0  0
  5  7  1  0  0  0  0
  5  8  1  0  0  0  0
  8  9  1  0  0  0  0
  8 10  1  0  0  0  0
  8 11  1  0  0  0  0
 11 12  1  0  0  0  0
 11 13  1  0  0  0  0
 11 14  1  0  0  0  0
 14 15  1  0  0  0  0
 14 16  1  0  0  0  0
 14 17  1  0  0  0  0
 17 18  1  0  0  0  0
 17 19  1  0  0  0  0
 19 20  1  0  0  0  0
 19 21  1  0  0  0  0
 19 22  1  0  0  0  0
 17 23  1  0  0  0  0
 23 24  1  0  0  0  0
 23 25  1  0  0  0  0
 23 26  1  0  0  0  0
M  END
> <VConfSearch Rank>
515

> <Conf_Id>
131

> <Delta U+W>
3.589

> <U+W>
-26.710

> <U>
27.573

> <W>
-54.283

> <W(PB)>
-56.537

> <W(SA)>
2.254

> <Valence>
6.363

> <Coulomb>
20.026

> <VdW>
1.184

> <VdW6>
-8.939

> <VdW12>
10.123

> <Bond>
0.298

> <Angle>
2.018

> <Pdih>
4.047

> <Idih>
0.000

> <Tether>
0.000

$$$$
VeraChem MOL file


 26 25  0  0  0  0  0  0  0  0999 V2000     
   16.9610   19.4040   22.9577 C   0  0  0  0  0  0  0  0  0  0  0  0
   17.1366   20.2350   23.6530 H   0  0  0  0  0  0  0  0  0  0  0  0
   17.6395   19.5123   22.1027 H   0  0  0  0  0  0  0  0  0  0  0  0
   15.9362   19.4965   22.5755 H   0  0  0  0  0  0  0  0  0  0  0  0
   17.1544   18.0410   23.6573 C   0  0  0  0  0  0  0  0  0  0  0  0
   17.0439   17.2342   22.9193 H   0  0  0  0  0  0  0  0  0  0  0  0
   16.3428   17.9004   24.3849 H   0  0  0  0  0  0  0  0  0  0  0  0
   18.5082   17.8874   24.3965 C   0  0  0  0  0  0  0  0  0  0  0  0
   18.5780   18.6208   25.2115 H   0  0  0  0  0  0  0  0  0  0  0  0
   18.5073   16.9030   24.8847 H   0  0  0  0  0  0  0  0  0  0  0  0
   19.7598   17.9722   23.4838 C   0  0  0  0  0  0  0  0  0  0  0  0
   19.5068   17.6049   22.4810 H   0  0  0  0  0  0  0  0  0  0  0  0
   20.5227   17.2860   23.8768 H   0  0  0  0  0  0  0  0  0  0  0  0
   20.3793   19.3934   23.4187 C   0  0  0  0  0  0  0  0  0  0  0  0
   19.6596   20.1118   23.0108 H   0  0  0  0  0  0  0  0  0  0  0  0
   20.5947   19.7235   24.4434 H   0  0  0  0  0  0  0  0  0  0  0  0
   21.6892   19.4608   22.6008 C   0  0  1  0  0  0  0  0  0  0  0  0
   22.3753   18.7008   22.9874 H   0  0  0  0  0  0  0  0  0  0  0  0
   21.4515   19.1886   21.1044 C   0  0  0  0  0  0  0  0  0  0  0  0
   20.7195   19.8898   20.6848 H   0  0  0  0  0  0  0  0  0  0  0  0
   21.0860   18.1691   20.9365 H   0  0  0  0  0  0  0  0  0  0  0  0
   22.3859   19.2943   20.5395 H   0  0  0  0  0  0  0  0  0  0  0  0
   22.3767   20.7854   22.7848 N   0  3  0  0  0  0  0  0  0  0  0  0
   21.7988   21.5580   22.4434 H   0  0  0  0  0  0  0  0  0  0  0  0
   22.5848   20.9688   23.7705 H   0  0  0  0  0  0  0  0  0  0  0  0
   23.2643   20.8199   22.2755 H   0  0  0  0  0  0  0  0  0  0  0  0
  1  2  1  0  0  0  0
  1  3  1  0  0  0  0
  1  4  1  0  0  0  0
  1  5  1  0  0  0  0
  5  6  1  0  0  0  0
  5  7  1  0  0  0  0
  5  8  1  0  0  0  0
  8  9  1  0  0  0  0
  8 10  1  0  0  0  0
  8 11  1  0  0  0  0
 11 12  1  0  0  0  0
 11 13  1  0  0  0  0
 11 14  1  0  0  0  0
 14 15  1  0  0  0  0
 14 16  1  0  0  0  0
 14 17  1  0  0  0  0
 17 18  1  0  0  0  0
 17 19  1  0  0  0  0
 19 20  1  0  0  0  0
 19 21  1  0  0  0  0
 19 22  1  0  0  0  0
 17 23  1  0  0  0  0
 23 24  1  0  0  0  0
 23 25  1  0  0  0  0
 23 26  1  0  0  0  0
M  END
> <VConfSearch Rank>
516

> <Conf_Id>
80

> <Delta U+W>
3.351

> <U+W>
-26.948

> <U>
27.261

> <W>
-54.209

> <W(PB)>
-56.471

> <W(SA)>
2.263

> <Valence>
6.230

> <Coulomb>
19.945

> <VdW>
1.087

> <VdW6>
-8.618

> <VdW12>
9.704

> <Bond>
0.277

> <Angle>
1.928

> <Pdih>
4.025

> <Idih>
0.000

> <Tether>
0.000

$$$$
VeraChem MOL file


 26 25  0  0  0  0  0  0  0  0999 V2000     
   18.1611   16.2719   23.1114 C   0  0  0  0  0  0  0  0  0  0  0  0
   17.1488   15.9476   22.8380 H   0  0  0  0  0  0  0  0  0  0  0  0
   18.7704   15.3731   23.2719 H   0  0  0  0  0  0  0  0  0  0  0  0
   18.0879   16.8139   24.0625 H   0  0  0  0  0  0  0  0  0  0  0  0
   18.7634   17.1604   21.9996 C   0  0  0  0  0  0  0  0  0  0  0  0
   18.1524   18.0640   21.8769 H   0  0  0  0  0  0  0  0  0  0  0  0
   18.6931   16.6235   21.0434 H   0  0  0  0  0  0  0  0  0  0  0  0
   20.2482   17.5382   22.2406 C   0  0  0  0  0  0  0  0  0  0  0  0
   20.8493   16.6196   22.1988 H   0  0  0  0  0  0  0  0  0  0  0  0
   20.5929   18.1503   21.3996 H   0  0  0  0  0  0  0  0  0  0  0  0
   20.5522   18.2546   23.5870 C   0  0  0  0  0  0  0  0  0  0  0  0
   21.6367   18.4017   23.6830 H   0  0  0  0  0  0  0  0  0  0  0  0
   20.2851   17.5759   24.4076 H   0  0  0  0  0  0  0  0  0  0  0  0
   19.8278   19.6116   23.8117 C   0  0  0  0  0  0  0  0  0  0  0  0
   18.8423   19.6171   23.3328 H   0  0  0  0  0  0  0  0  0  0  0  0
   19.6291   19.7020   24.8877 H   0  0  0  0  0  0  0  0  0  0  0  0
   20.6305   20.8656   23.3887 C   0  0  1  0  0  0  0  0  0  0  0  0
   21.5791   20.8635   23.9344 H   0  0  0  0  0  0  0  0  0  0  0  0
   20.9441   20.8990   21.8838 C   0  0  0  0  0  0  0  0  0  0  0  0
   21.6614   20.1152   21.6166 H   0  0  0  0  0  0  0  0  0  0  0  0
   21.3990   21.8571   21.6037 H   0  0  0  0  0  0  0  0  0  0  0  0
   20.0355   20.7641   21.2839 H   0  0  0  0  0  0  0  0  0  0  0  0
   19.9139   22.1233   23.7964 N   0  3  0  0  0  0  0  0  0  0  0  0
   19.7361   22.1466   24.8045 H   0  0  0  0  0  0  0  0  0  0  0  0
   20.4611   22.9572   23.5650 H   0  0  0  0  0  0  0  0  0  0  0  0
   19.0109   22.2097   23.3225 H   0  0  0  0  0  0  0  0  0  0  0  0
  1  2  1  0  0  0  0
  1  3  1  0  0  0  0
  1  4  1  0  0  0  0
  1  5  1  0  0  0  0
  5  6  1  0  0  0  0
  5  7  1  0  0  0  0
  5  8  1  0  0  0  0
  8  9  1  0  0  0  0
  8 10  1  0  0  0  0
  8 11  1  0  0  0  0
 11 12  1  0  0  0  0
 11 13  1  0  0  0  0
 11 14  1  0  0  0  0
 14 15  1  0  0  0  0
 14 16  1  0  0  0  0
 14 17  1  0  0  0  0
 17 18  1  0  0  0  0
 17 19  1  0  0  0  0
 19 20  1  0  0  0  0
 19 21  1  0  0  0  0
 19 22  1  0  0  0  0
 17 23  1  0  0  0  0
 23 24  1  0  0  0  0
 23 25  1  0  0  0  0
 23 26  1  0  0  0  0
M  END
> <VConfSearch Rank>
517

> <Conf_Id>
136

> <Delta U+W>
4.272

> <U+W>
-26.026

> <U>
28.262

> <W>
-54.288

> <W(PB)>
-56.488

> <W(SA)>
2.200

> <Valence>
7.096

> <Coulomb>
19.990

> <VdW>
1.175

> <VdW6>
-9.404

> <VdW12>
10.580

> <Bond>
0.360

> <Angle>
2.785

> <Pdih>
3.951

> <Idih>
0.000

> <Tether>
0.000

$$$$
VeraChem MOL file


 26 25  0  0  0  0  0  0  0  0999 V2000     
   22.4585   18.5793   24.1592 C   0  0  0  0  0  0  0  0  0  0  0  0
   21.7130   17.8166   23.9023 H   0  0  0  0  0  0  0  0  0  0  0  0
   23.3778   18.0541   24.4493 H   0  0  0  0  0  0  0  0  0  0  0  0
   22.1013   19.1384   25.0337 H   0  0  0  0  0  0  0  0  0  0  0  0
   22.7299   19.5229   22.9672 C   0  0  0  0  0  0  0  0  0  0  0  0
   23.0312   18.9284   22.0934 H   0  0  0  0  0  0  0  0  0  0  0  0
   23.5906   20.1609   23.2121 H   0  0  0  0  0  0  0  0  0  0  0  0
   21.5345   20.4340   22.5882 C   0  0  0  0  0  0  0  0  0  0  0  0
   21.2909   21.1050   23.4234 H   0  0  0  0  0  0  0  0  0  0  0  0
   21.8651   21.0886   21.7698 H   0  0  0  0  0  0  0  0  0  0  0  0
   20.2658   19.6756   22.1182 C   0  0  0  0  0  0  0  0  0  0  0  0
   20.5486   18.7152   21.6653 H   0  0  0  0  0  0  0  0  0  0  0  0
   19.7937   20.2629   21.3194 H   0  0  0  0  0  0  0  0  0  0  0  0
   19.2289   19.4546   23.2502 C   0  0  0  0  0  0  0  0  0  0  0  0
   19.7104   18.9622   24.1024 H   0  0  0  0  0  0  0  0  0  0  0  0
   18.8728   20.4262   23.6176 H   0  0  0  0  0  0  0  0  0  0  0  0
   18.0244   18.5985   22.8024 C   0  0  1  0  0  0  0  0  0  0  0  0
   18.4047   17.6471   22.4179 H   0  0  0  0  0  0  0  0  0  0  0  0
   17.1050   18.3023   23.9981 C   0  0  0  0  0  0  0  0  0  0  0  0
   16.6943   19.2273   24.4219 H   0  0  0  0  0  0  0  0  0  0  0  0
   17.6527   17.7771   24.7905 H   0  0  0  0  0  0  0  0  0  0  0  0
   16.2664   17.6637   23.6943 H   0  0  0  0  0  0  0  0  0  0  0  0
   17.2464   19.2373   21.6843 N   0  3  0  0  0  0  0  0  0  0  0  0
   16.8578   20.1404   21.9682 H   0  0  0  0  0  0  0  0  0  0  0  0
   17.8358   19.3992   20.8634 H   0  0  0  0  0  0  0  0  0  0  0  0
   16.4643   18.6468   21.3875 H   0  0  0  0  0  0  0  0  0  0  0  0
  1  2  1  0  0  0  0
  1  3  1  0  0  0  0
  1  4  1  0  0  0  0
  1  5  1  0  0  0  0
  5  6  1  0  0  0  0
  5  7  1  0  0  0  0
  5  8  1  0  0  0  0
  8  9  1  0  0  0  0
  8 10  1  0  0  0  0
  8 11  1  0  0  0  0
 11 12  1  0  0  0  0
 11 13  1  0  0  0  0
 11 14  1  0  0  0  0
 14 15  1  0  0  0  0
 14 16  1  0  0  0  0
 14 17  1  0  0  0  0
 17 18  1  0  0  0  0
 17 19  1  0  0  0  0
 19 20  1  0  0  0  0
 19 21  1  0  0  0  0
 19 22  1  0  0  0  0
 17 23  1  0  0  0  0
 23 24  1  0  0  0  0
 23 25  1  0  0  0  0
 23 26  1  0  0  0  0
M  END
> <VConfSearch Rank>
518

> <Conf_Id>
124

> <Delta U+W>
3.001

> <U+W>
-27.298

> <U>
26.787

> <W>
-54.085

> <W(PB)>
-56.347

> <W(SA)>
2.262

> <Valence>
5.742

> <Coulomb>
20.023

> <VdW>
1.022

> <VdW6>
-8.392

> <VdW12>
9.414

> <Bond>
0.261

> <Angle>
1.576

> <Pdih>
3.904

> <Idih>
0.000

> <Tether>
0.000

$$$$
VeraChem MOL file


 26 25  0  0  0  0  0  0  0  0999 V2000     
   17.4526   18.4603   24.9803 C   0  0  0  0  0  0  0  0  0  0  0  0
   17.7482   17.8080   25.8123 H   0  0  0  0  0  0  0  0  0  0  0  0
   16.3726   18.6372   25.0640 H   0  0  0  0  0  0  0  0  0  0  0  0
   17.6276   17.9155   24.0462 H   0  0  0  0  0  0  0  0  0  0  0  0
   18.2248   19.7995   25.0281 C   0  0  0  0  0  0  0  0  0  0  0  0
   17.9758   20.2991   25.9749 H   0  0  0  0  0  0  0  0  0  0  0  0
   17.8750   20.4709   24.2316 H   0  0  0  0  0  0  0  0  0  0  0  0
   19.7639   19.6275   24.9515 C   0  0  0  0  0  0  0  0  0  0  0  0
   20.2247   20.3984   25.5846 H   0  0  0  0  0  0  0  0  0  0  0  0
   20.0618   18.6665   25.3929 H   0  0  0  0  0  0  0  0  0  0  0  0
   20.3659   19.7722   23.5299 C   0  0  0  0  0  0  0  0  0  0  0  0
   21.4585   19.7154   23.6188 H   0  0  0  0  0  0  0  0  0  0  0  0
   20.1403   20.7770   23.1487 H   0  0  0  0  0  0  0  0  0  0  0  0
   19.8716   18.7036   22.5193 C   0  0  0  0  0  0  0  0  0  0  0  0
   19.9635   17.7070   22.9704 H   0  0  0  0  0  0  0  0  0  0  0  0
   18.8035   18.8572   22.3223 H   0  0  0  0  0  0  0  0  0  0  0  0
   20.6149   18.6994   21.1625 C   0  0  1  0  0  0  0  0  0  0  0  0
   20.1689   17.9095   20.5502 H   0  0  0  0  0  0  0  0  0  0  0  0
   20.4430   20.0283   20.4060 C   0  0  0  0  0  0  0  0  0  0  0  0
   20.9474   20.8552   20.9201 H   0  0  0  0  0  0  0  0  0  0  0  0
   19.3811   20.2837   20.3032 H   0  0  0  0  0  0  0  0  0  0  0  0
   20.8662   19.9529   19.3968 H   0  0  0  0  0  0  0  0  0  0  0  0
   22.0695   18.3436   21.3039 N   0  3  0  0  0  0  0  0  0  0  0  0
   22.5302   18.2827   20.3915 H   0  0  0  0  0  0  0  0  0  0  0  0
   22.5722   19.0436   21.8549 H   0  0  0  0  0  0  0  0  0  0  0  0
   22.1915   17.4395   21.7688 H   0  0  0  0  0  0  0  0  0  0  0  0
  1  2  1  0  0  0  0
  1  3  1  0  0  0  0
  1  4  1  0  0  0  0
  1  5  1  0  0  0  0
  5  6  1  0  0  0  0
  5  7  1  0  0  0  0
  5  8  1  0  0  0  0
  8  9  1  0  0  0  0
  8 10  1  0  0  0  0
  8 11  1  0  0  0  0
 11 12  1  0  0  0  0
 11 13  1  0  0  0  0
 11 14  1  0  0  0  0
 14 15  1  0  0  0  0
 14 16  1  0  0  0  0
 14 17  1  0  0  0  0
 17 18  1  0  0  0  0
 17 19  1  0  0  0  0
 19 20  1  0  0  0  0
 19 21  1  0  0  0  0
 19 22  1  0  0  0  0
 17 23  1  0  0  0  0
 23 24  1  0  0  0  0
 23 25  1  0  0  0  0
 23 26  1  0  0  0  0
M  END
> <VConfSearch Rank>
519

> <Conf_Id>
105

> <Delta U+W>
3.442

> <U+W>
-26.857

> <U>
27.313

> <W>
-54.169

> <W(PB)>
-56.414

> <W(SA)>
2.245

> <Valence>
6.229

> <Coulomb>
19.943

> <VdW>
1.140

> <VdW6>
-9.001

> <VdW12>
10.140

> <Bond>
0.294

> <Angle>
1.969

> <Pdih>
3.967

> <Idih>
0.000

> <Tether>
0.000

$$$$
VeraChem MOL file


 26 25  0  0  0  0  0  0  0  0999 V2000     
   22.5305   19.9576   21.9270 C   0  0  0  0  0  0  0  0  0  0  0  0
   22.8930   20.9458   22.2389 H   0  0  0  0  0  0  0  0  0  0  0  0
   23.2261   19.5720   21.1705 H   0  0  0  0  0  0  0  0  0  0  0  0
   21.5572   20.0927   21.4432 H   0  0  0  0  0  0  0  0  0  0  0  0
   22.4542   18.9920   23.1327 C   0  0  0  0  0  0  0  0  0  0  0  0
   23.4687   18.8808   23.5407 H   0  0  0  0  0  0  0  0  0  0  0  0
   22.1509   17.9894   22.8007 H   0  0  0  0  0  0  0  0  0  0  0  0
   21.5200   19.4905   24.2655 C   0  0  0  0  0  0  0  0  0  0  0  0
   21.9518   19.1772   25.2261 H   0  0  0  0  0  0  0  0  0  0  0  0
   21.5071   20.5888   24.2920 H   0  0  0  0  0  0  0  0  0  0  0  0
   20.0718   18.9400   24.2049 C   0  0  0  0  0  0  0  0  0  0  0  0
   19.5311   19.2978   25.0922 H   0  0  0  0  0  0  0  0  0  0  0  0
   20.1017   17.8450   24.2832 H   0  0  0  0  0  0  0  0  0  0  0  0
   19.2856   19.3551   22.9369 C   0  0  0  0  0  0  0  0  0  0  0  0
   19.3881   20.4388   22.7925 H   0  0  0  0  0  0  0  0  0  0  0  0
   19.7200   18.8705   22.0537 H   0  0  0  0  0  0  0  0  0  0  0  0
   17.7848   19.0029   23.0203 C   0  0  1  0  0  0  0  0  0  0  0  0
   17.3702   19.4784   23.9145 H   0  0  0  0  0  0  0  0  0  0  0  0
   17.0384   19.5501   21.7930 C   0  0  0  0  0  0  0  0  0  0  0  0
   17.4160   19.1011   20.8657 H   0  0  0  0  0  0  0  0  0  0  0  0
   17.1564   20.6383   21.7183 H   0  0  0  0  0  0  0  0  0  0  0  0
   15.9649   19.3361   21.8641 H   0  0  0  0  0  0  0  0  0  0  0  0
   17.5483   17.5244   23.1671 N   0  3  0  0  0  0  0  0  0  0  0  0
   18.0053   17.1544   24.0048 H   0  0  0  0  0  0  0  0  0  0  0  0
   16.5498   17.3110   23.2437 H   0  0  0  0  0  0  0  0  0  0  0  0
   17.9117   17.0064   22.3629 H   0  0  0  0  0  0  0  0  0  0  0  0
  1  2  1  0  0  0  0
  1  3  1  0  0  0  0
  1  4  1  0  0  0  0
  1  5  1  0  0  0  0
  5  6  1  0  0  0  0
  5  7  1  0  0  0  0
  5  8  1  0  0  0  0
  8  9  1  0  0  0  0
  8 10  1  0  0  0  0
  8 11  1  0  0  0  0
 11 12  1  0  0  0  0
 11 13  1  0  0  0  0
 11 14  1  0  0  0  0
 14 15  1  0  0  0  0
 14 16  1  0  0  0  0
 14 17  1  0  0  0  0
 17 18  1  0  0  0  0
 17 19  1  0  0  0  0
 19 20  1  0  0  0  0
 19 21  1  0  0  0  0
 19 22  1  0  0  0  0
 17 23  1  0  0  0  0
 23 24  1  0  0  0  0
 23 25  1  0  0  0  0
 23 26  1  0  0  0  0
M  END
> <VConfSearch Rank>
520

> <Conf_Id>
107

> <Delta U+W>
2.995

> <U+W>
-27.304

> <U>
26.796

> <W>
-54.100

> <W(PB)>
-56.404

> <W(SA)>
2.304

> <Valence>
5.706

> <Coulomb>
20.107

> <VdW>
0.982

> <VdW6>
-8.396

> <VdW12>
9.378

> <Bond>
0.254

> <Angle>
1.644

> <Pdih>
3.808

> <Idih>
0.000

> <Tether>
0.000

$$$$
VeraChem MOL file


 26 25  0  0  0  0  0  0  0  0999 V2000     
   20.8050   20.1515   19.0074 C   0  0  0  0  0  0  0  0  0  0  0  0
   19.9036   19.7509   18.5253 H   0  0  0  0  0  0  0  0  0  0  0  0
   21.1121   21.0488   18.4547 H   0  0  0  0  0  0  0  0  0  0  0  0
   21.6048   19.4057   18.9102 H   0  0  0  0  0  0  0  0  0  0  0  0
   20.5381   20.4890   20.4896 C   0  0  0  0  0  0  0  0  0  0  0  0
   19.7584   21.2610   20.5529 H   0  0  0  0  0  0  0  0  0  0  0  0
   21.4465   20.9185   20.9347 H   0  0  0  0  0  0  0  0  0  0  0  0
   20.1037   19.2418   21.2910 C   0  0  0  0  0  0  0  0  0  0  0  0
   19.1974   18.8146   20.8397 H   0  0  0  0  0  0  0  0  0  0  0  0
   20.8853   18.4725   21.2232 H   0  0  0  0  0  0  0  0  0  0  0  0
   19.8347   19.5759   22.7758 C   0  0  0  0  0  0  0  0  0  0  0  0
   19.0504   20.3429   22.8421 H   0  0  0  0  0  0  0  0  0  0  0  0
   20.7426   20.0082   23.2171 H   0  0  0  0  0  0  0  0  0  0  0  0
   19.4009   18.3239   23.5764 C   0  0  0  0  0  0  0  0  0  0  0  0
   18.5254   17.8760   23.0876 H   0  0  0  0  0  0  0  0  0  0  0  0
   20.1976   17.5687   23.5456 H   0  0  0  0  0  0  0  0  0  0  0  0
   19.0426   18.6413   25.0445 C   0  0  1  0  0  0  0  0  0  0  0  0
   18.2654   19.4118   25.0488 H   0  0  0  0  0  0  0  0  0  0  0  0
   18.4849   17.3898   25.7411 C   0  0  0  0  0  0  0  0  0  0  0  0
   19.2291   16.5839   25.7653 H   0  0  0  0  0  0  0  0  0  0  0  0
   17.5947   17.0171   25.2192 H   0  0  0  0  0  0  0  0  0  0  0  0
   18.1937   17.6173   26.7739 H   0  0  0  0  0  0  0  0  0  0  0  0
   20.2087   19.1981   25.8150 N   0  3  0  0  0  0  0  0  0  0  0  0
   20.9838   18.5310   25.8532 H   0  0  0  0  0  0  0  0  0  0  0  0
   20.5626   20.0584   25.3884 H   0  0  0  0  0  0  0  0  0  0  0  0
   19.9478   19.4203   26.7799 H   0  0  0  0  0  0  0  0  0  0  0  0
  1  2  1  0  0  0  0
  1  3  1  0  0  0  0
  1  4  1  0  0  0  0
  1  5  1  0  0  0  0
  5  6  1  0  0  0  0
  5  7  1  0  0  0  0
  5  8  1  0  0  0  0
  8  9  1  0  0  0  0
  8 10  1  0  0  0  0
  8 11  1  0  0  0  0
 11 12  1  0  0  0  0
 11 13  1  0  0  0  0
 11 14  1  0  0  0  0
 14 15  1  0  0  0  0
 14 16  1  0  0  0  0
 14 17  1  0  0  0  0
 17 18  1  0  0  0  0
 17 19  1  0  0  0  0
 19 20  1  0  0  0  0
 19 21  1  0  0  0  0
 19 22  1  0  0  0  0
 17 23  1  0  0  0  0
 23 24  1  0  0  0  0
 23 25  1  0  0  0  0
 23 26  1  0  0  0  0
M  END
> <VConfSearch Rank>
521

> <Conf_Id>
122

> <Delta U+W>
0.000

> <U+W>
-30.299

> <U>
23.517

> <W>
-53.816

> <W(PB)>
-56.162

> <W(SA)>
2.346

> <Valence>
2.737

> <Coulomb>
19.862

> <VdW>
0.919

> <VdW6>
-6.793

> <VdW12>
7.712

> <Bond>
0.171

> <Angle>
0.873

> <Pdih>
1.693

> <Idih>
0.000

> <Tether>
0.000

$$$$
VeraChem MOL file


 26 25  0  0  0  0  0  0  0  0999 V2000     
   23.7007   20.4036   23.9005 C   0  0  0  0  0  0  0  0  0  0  0  0
   24.1961   21.3199   24.2469 H   0  0  0  0  0  0  0  0  0  0  0  0
   23.9380   19.6024   24.6126 H   0  0  0  0  0  0  0  0  0  0  0  0
   24.1316   20.1348   22.9272 H   0  0  0  0  0  0  0  0  0  0  0  0
   22.1758   20.6160   23.7924 C   0  0  0  0  0  0  0  0  0  0  0  0
   21.9715   21.4449   23.1001 H   0  0  0  0  0  0  0  0  0  0  0  0
   21.7793   20.9165   24.7724 H   0  0  0  0  0  0  0  0  0  0  0  0
   21.4534   19.3400   23.3064 C   0  0  0  0  0  0  0  0  0  0  0  0
   21.8543   19.0425   22.3275 H   0  0  0  0  0  0  0  0  0  0  0  0
   21.6638   18.5142   24.0002 H   0  0  0  0  0  0  0  0  0  0  0  0
   19.9258   19.5487   23.1972 C   0  0  0  0  0  0  0  0  0  0  0  0
   19.7278   20.3808   22.5089 H   0  0  0  0  0  0  0  0  0  0  0  0
   19.5250   19.8415   24.1776 H   0  0  0  0  0  0  0  0  0  0  0  0
   19.2051   18.2692   22.7056 C   0  0  0  0  0  0  0  0  0  0  0  0
   19.5562   18.0104   21.6978 H   0  0  0  0  0  0  0  0  0  0  0  0
   19.4915   17.4343   23.3587 H   0  0  0  0  0  0  0  0  0  0  0  0
   17.6634   18.3831   22.7059 C   0  0  1  0  0  0  0  0  0  0  0  0
   17.3417   18.6823   23.7082 H   0  0  0  0  0  0  0  0  0  0  0  0
   17.1584   19.4322   21.6989 C   0  0  0  0  0  0  0  0  0  0  0  0
   17.5105   19.2098   20.6839 H   0  0  0  0  0  0  0  0  0  0  0  0
   17.4975   20.4392   21.9678 H   0  0  0  0  0  0  0  0  0  0  0  0
   16.0618   19.4541   21.6812 H   0  0  0  0  0  0  0  0  0  0  0  0
   17.0212   17.0508   22.4348 N   0  3  0  0  0  0  0  0  0  0  0  0
   17.2704   16.6967   21.5074 H   0  0  0  0  0  0  0  0  0  0  0  0
   17.3088   16.3467   23.1204 H   0  0  0  0  0  0  0  0  0  0  0  0
   15.9999   17.1130   22.4734 H   0  0  0  0  0  0  0  0  0  0  0  0
  1  2  1  0  0  0  0
  1  3  1  0  0  0  0
  1  4  1  0  0  0  0
  1  5  1  0  0  0  0
  5  6  1  0  0  0  0
  5  7  1  0  0  0  0
  5  8  1  0  0  0  0
  8  9  1  0  0  0  0
  8 10  1  0  0  0  0
  8 11  1  0  0  0  0
 11 12  1  0  0  0  0
 11 13  1  0  0  0  0
 11 14  1  0  0  0  0
 14 15  1  0  0  0  0
 14 16  1  0  0  0  0
 14 17  1  0  0  0  0
 17 18  1  0  0  0  0
 17 19  1  0  0  0  0
 19 20  1  0  0  0  0
 19 21  1  0  0  0  0
 19 22  1  0  0  0  0
 17 23  1  0  0  0  0
 23 24  1  0  0  0  0
 23 25  1  0  0  0  0
 23 26  1  0  0  0  0
M  END
> <VConfSearch Rank>
522

> <Conf_Id>
54

> <Delta U+W>
0.453

> <U+W>
-29.845

> <U>
23.817

> <W>
-53.663

> <W(PB)>
-56.021

> <W(SA)>
2.358

> <Valence>
3.277

> <Coulomb>
19.492

> <VdW>
1.049

> <VdW6>
-6.949

> <VdW12>
7.998

> <Bond>
0.183

> <Angle>
1.152

> <Pdih>
1.942

> <Idih>
0.000

> <Tether>
0.000

$$$$
VeraChem MOL file


 26 25  0  0  0  0  0  0  0  0999 V2000     
   17.2681   19.6527   20.4136 C   0  0  0  0  0  0  0  0  0  0  0  0
   17.2939   18.5888   20.1445 H   0  0  0  0  0  0  0  0  0  0  0  0
   16.6320   19.7682   21.2995 H   0  0  0  0  0  0  0  0  0  0  0  0
   16.7854   20.1948   19.5901 H   0  0  0  0  0  0  0  0  0  0  0  0
   18.6934   20.1994   20.6572 C   0  0  0  0  0  0  0  0  0  0  0  0
   18.6400   21.2551   20.9582 H   0  0  0  0  0  0  0  0  0  0  0  0
   19.2432   20.1793   19.7058 H   0  0  0  0  0  0  0  0  0  0  0  0
   19.4952   19.3933   21.7080 C   0  0  0  0  0  0  0  0  0  0  0  0
   19.5187   18.3343   21.4161 H   0  0  0  0  0  0  0  0  0  0  0  0
   20.5293   19.7570   21.6818 H   0  0  0  0  0  0  0  0  0  0  0  0
   18.9399   19.5343   23.1478 C   0  0  0  0  0  0  0  0  0  0  0  0
   17.8696   19.2929   23.1493 H   0  0  0  0  0  0  0  0  0  0  0  0
   19.0157   20.5829   23.4670 H   0  0  0  0  0  0  0  0  0  0  0  0
   19.6229   18.6236   24.2022 C   0  0  0  0  0  0  0  0  0  0  0  0
   19.0685   18.7495   25.1418 H   0  0  0  0  0  0  0  0  0  0  0  0
   19.5036   17.5679   23.9249 H   0  0  0  0  0  0  0  0  0  0  0  0
   21.1159   18.9352   24.4639 C   0  0  1  0  0  0  0  0  0  0  0  0
   21.2535   20.0204   24.4302 H   0  0  0  0  0  0  0  0  0  0  0  0
   21.5298   18.4413   25.8602 C   0  0  0  0  0  0  0  0  0  0  0  0
   22.5838   18.6728   26.0579 H   0  0  0  0  0  0  0  0  0  0  0  0
   21.3944   17.3564   25.9536 H   0  0  0  0  0  0  0  0  0  0  0  0
   20.9324   18.9291   26.6406 H   0  0  0  0  0  0  0  0  0  0  0  0
   22.0273   18.3383   23.4262 N   0  3  0  0  0  0  0  0  0  0  0  0
   21.7831   18.6548   22.4853 H   0  0  0  0  0  0  0  0  0  0  0  0
   23.0042   18.5951   23.5946 H   0  0  0  0  0  0  0  0  0  0  0  0
   21.9754   17.3162   23.4301 H   0  0  0  0  0  0  0  0  0  0  0  0
  1  2  1  0  0  0  0
  1  3  1  0  0  0  0
  1  4  1  0  0  0  0
  1  5  1  0  0  0  0
  5  6  1  0  0  0  0
  5  7  1  0  0  0  0
  5  8  1  0  0  0  0
  8  9  1  0  0  0  0
  8 10  1  0  0  0  0
  8 11  1  0  0  0  0
 11 12  1  0  0  0  0
 11 13  1  0  0  0  0
 11 14  1  0  0  0  0
 14 15  1  0  0  0  0
 14 16  1  0  0  0  0
 14 17  1  0  0  0  0
 17 18  1  0  0  0  0
 17 19  1  0  0  0  0
 19 20  1  0  0  0  0
 19 21  1  0  0  0  0
 19 22  1  0  0  0  0
 17 23  1  0  0  0  0
 23 24  1  0  0  0  0
 23 25  1  0  0  0  0
 23 26  1  0  0  0  0
M  END
> <VConfSearch Rank>
523

> <Conf_Id>
110

> <Delta U+W>
3.764

> <U+W>
-26.535

> <U>
27.400

> <W>
-53.935

> <W(PB)>
-56.238

> <W(SA)>
2.303

> <Valence>
5.205

> <Coulomb>
21.096

> <VdW>
1.098

> <VdW6>
-8.389

> <VdW12>
9.488

> <Bond>
0.270

> <Angle>
1.912

> <Pdih>
3.023

> <Idih>
0.000

> <Tether>
0.000

$$$$
VeraChem MOL file


 26 25  0  0  0  0  0  0  0  0999 V2000     
   23.4994   19.0435   23.0228 C   0  0  0  0  0  0  0  0  0  0  0  0
   24.4453   18.8048   22.5197 H   0  0  0  0  0  0  0  0  0  0  0  0
   23.2895   20.1052   22.8433 H   0  0  0  0  0  0  0  0  0  0  0  0
   23.6468   18.8988   24.1009 H   0  0  0  0  0  0  0  0  0  0  0  0
   22.3618   18.1422   22.4914 C   0  0  0  0  0  0  0  0  0  0  0  0
   22.6708   17.0915   22.5822 H   0  0  0  0  0  0  0  0  0  0  0  0
   22.2146   18.3276   21.4182 H   0  0  0  0  0  0  0  0  0  0  0  0
   21.0225   18.3328   23.2433 C   0  0  0  0  0  0  0  0  0  0  0  0
   20.3130   17.5796   22.8801 H   0  0  0  0  0  0  0  0  0  0  0  0
   21.1704   18.1192   24.3108 H   0  0  0  0  0  0  0  0  0  0  0  0
   20.4211   19.7525   23.0786 C   0  0  0  0  0  0  0  0  0  0  0  0
   20.3922   20.0374   22.0179 H   0  0  0  0  0  0  0  0  0  0  0  0
   21.0897   20.4727   23.5686 H   0  0  0  0  0  0  0  0  0  0  0  0
   19.0102   19.8983   23.7081 C   0  0  0  0  0  0  0  0  0  0  0  0
   18.8850   19.1842   24.5330 H   0  0  0  0  0  0  0  0  0  0  0  0
   18.9483   20.8952   24.1644 H   0  0  0  0  0  0  0  0  0  0  0  0
   17.8363   19.7715   22.7072 C   0  0  1  0  0  0  0  0  0  0  0  0
   17.9721   20.5271   21.9272 H   0  0  0  0  0  0  0  0  0  0  0  0
   17.7737   18.3914   22.0311 C   0  0  0  0  0  0  0  0  0  0  0  0
   17.7216   17.5863   22.7745 H   0  0  0  0  0  0  0  0  0  0  0  0
   18.6514   18.2241   21.3960 H   0  0  0  0  0  0  0  0  0  0  0  0
   16.8899   18.3166   21.3857 H   0  0  0  0  0  0  0  0  0  0  0  0
   16.5245   20.0838   23.3724 N   0  3  0  0  0  0  0  0  0  0  0  0
   16.5254   21.0196   23.7883 H   0  0  0  0  0  0  0  0  0  0  0  0
   15.7488   20.0485   22.7050 H   0  0  0  0  0  0  0  0  0  0  0  0
   16.3151   19.4158   24.1190 H   0  0  0  0  0  0  0  0  0  0  0  0
  1  2  1  0  0  0  0
  1  3  1  0  0  0  0
  1  4  1  0  0  0  0
  1  5  1  0  0  0  0
  5  6  1  0  0  0  0
  5  7  1  0  0  0  0
  5  8  1  0  0  0  0
  8  9  1  0  0  0  0
  8 10  1  0  0  0  0
  8 11  1  0  0  0  0
 11 12  1  0  0  0  0
 11 13  1  0  0  0  0
 11 14  1  0  0  0  0
 14 15  1  0  0  0  0
 14 16  1  0  0  0  0
 14 17  1  0  0  0  0
 17 18  1  0  0  0  0
 17 19  1  0  0  0  0
 19 20  1  0  0  0  0
 19 21  1  0  0  0  0
 19 22  1  0  0  0  0
 17 23  1  0  0  0  0
 23 24  1  0  0  0  0
 23 25  1  0  0  0  0
 23 26  1  0  0  0  0
M  END
> <VConfSearch Rank>
524

> <Conf_Id>
34

> <Delta U+W>
3.568

> <U+W>
-26.731

> <U>
27.221

> <W>
-53.952

> <W(PB)>
-56.213

> <W(SA)>
2.261

> <Valence>
6.368

> <Coulomb>
19.698

> <VdW>
1.155

> <VdW6>
-8.532

> <VdW12>
9.687

> <Bond>
0.272

> <Angle>
1.847

> <Pdih>
4.248

> <Idih>
0.000

> <Tether>
0.000

$$$$
VeraChem MOL file


 26 25  0  0  0  0  0  0  0  0999 V2000     
   22.6801   22.0227   23.0554 C   0  0  0  0  0  0  0  0  0  0  0  0
   22.0776   22.8165   23.5159 H   0  0  0  0  0  0  0  0  0  0  0  0
   23.3190   21.5836   23.8328 H   0  0  0  0  0  0  0  0  0  0  0  0
   23.3332   22.4875   22.3054 H   0  0  0  0  0  0  0  0  0  0  0  0
   21.7808   20.9500   22.4052 C   0  0  0  0  0  0  0  0  0  0  0  0
   22.4111   20.1887   21.9244 H   0  0  0  0  0  0  0  0  0  0  0  0
   21.1793   21.4121   21.6099 H   0  0  0  0  0  0  0  0  0  0  0  0
   20.8506   20.2794   23.4403 C   0  0  0  0  0  0  0  0  0  0  0  0
   21.4568   19.8215   24.2342 H   0  0  0  0  0  0  0  0  0  0  0  0
   20.2248   21.0448   23.9199 H   0  0  0  0  0  0  0  0  0  0  0  0
   19.9480   19.2047   22.7932 C   0  0  0  0  0  0  0  0  0  0  0  0
   20.5797   18.4447   22.3147 H   0  0  0  0  0  0  0  0  0  0  0  0
   19.3506   19.6712   21.9989 H   0  0  0  0  0  0  0  0  0  0  0  0
   19.0148   18.5377   23.8371 C   0  0  0  0  0  0  0  0  0  0  0  0
   19.6234   18.1191   24.6494 H   0  0  0  0  0  0  0  0  0  0  0  0
   18.3808   19.3055   24.3001 H   0  0  0  0  0  0  0  0  0  0  0  0
   18.1080   17.4156   23.2784 C   0  0  1  0  0  0  0  0  0  0  0  0
   17.5309   17.0161   24.1182 H   0  0  0  0  0  0  0  0  0  0  0  0
   17.1069   17.9451   22.2368 C   0  0  0  0  0  0  0  0  0  0  0  0
   17.6107   18.2753   21.3207 H   0  0  0  0  0  0  0  0  0  0  0  0
   16.5357   18.7907   22.6396 H   0  0  0  0  0  0  0  0  0  0  0  0
   16.3905   17.1616   21.9609 H   0  0  0  0  0  0  0  0  0  0  0  0
   18.8973   16.2595   22.7283 N   0  3  0  0  0  0  0  0  0  0  0  0
   18.2834   15.4997   22.4211 H   0  0  0  0  0  0  0  0  0  0  0  0
   19.4604   16.5434   21.9229 H   0  0  0  0  0  0  0  0  0  0  0  0
   19.5350   15.8724   23.4297 H   0  0  0  0  0  0  0  0  0  0  0  0
  1  2  1  0  0  0  0
  1  3  1  0  0  0  0
  1  4  1  0  0  0  0
  1  5  1  0  0  0  0
  5  6  1  0  0  0  0
  5  7  1  0  0  0  0
  5  8  1  0  0  0  0
  8  9  1  0  0  0  0
  8 10  1  0  0  0  0
  8 11  1  0  0  0  0
 11 12  1  0  0  0  0
 11 13  1  0  0  0  0
 11 14  1  0  0  0  0
 14 15  1  0  0  0  0
 14 16  1  0  0  0  0
 14 17  1  0  0  0  0
 17 18  1  0  0  0  0
 17 19  1  0  0  0  0
 19 20  1  0  0  0  0
 19 21  1  0  0  0  0
 19 22  1  0  0  0  0
 17 23  1  0  0  0  0
 23 24  1  0  0  0  0
 23 25  1  0  0  0  0
 23 26  1  0  0  0  0
M  END
> <VConfSearch Rank>
525

> <Conf_Id>
132

> <Delta U+W>
0.363

> <U+W>
-29.936

> <U>
24.060

> <W>
-53.996

> <W(PB)>
-56.327

> <W(SA)>
2.332

> <Valence>
3.249

> <Coulomb>
19.781

> <VdW>
1.030

> <VdW6>
-7.421

> <VdW12>
8.451

> <Bond>
0.207

> <Angle>
1.205

> <Pdih>
1.837

> <Idih>
0.000

> <Tether>
0.000

$$$$
VeraChem MOL file


 26 25  0  0  0  0  0  0  0  0999 V2000     
   16.3854   20.7416   23.8680 C   0  0  0  0  0  0  0  0  0  0  0  0
   15.4461   20.5465   23.3343 H   0  0  0  0  0  0  0  0  0  0  0  0
   16.2060   20.5726   24.9378 H   0  0  0  0  0  0  0  0  0  0  0  0
   16.6396   21.8002   23.7269 H   0  0  0  0  0  0  0  0  0  0  0  0
   17.5113   19.8261   23.3420 C   0  0  0  0  0  0  0  0  0  0  0  0
   17.6313   19.9946   22.2638 H   0  0  0  0  0  0  0  0  0  0  0  0
   17.2157   18.7755   23.4701 H   0  0  0  0  0  0  0  0  0  0  0  0
   18.8474   20.0867   24.0772 C   0  0  0  0  0  0  0  0  0  0  0  0
   19.1707   21.1223   23.9031 H   0  0  0  0  0  0  0  0  0  0  0  0
   18.6814   19.9943   25.1594 H   0  0  0  0  0  0  0  0  0  0  0  0
   19.9812   19.1128   23.6715 C   0  0  0  0  0  0  0  0  0  0  0  0
   19.6531   18.0811   23.8547 H   0  0  0  0  0  0  0  0  0  0  0  0
   20.8332   19.2910   24.3399 H   0  0  0  0  0  0  0  0  0  0  0  0
   20.4354   19.2764   22.1950 C   0  0  0  0  0  0  0  0  0  0  0  0
   19.5926   19.0675   21.5252 H   0  0  0  0  0  0  0  0  0  0  0  0
   20.7145   20.3228   22.0140 H   0  0  0  0  0  0  0  0  0  0  0  0
   21.6137   18.3670   21.7722 C   0  0  1  0  0  0  0  0  0  0  0  0
   21.7917   18.5421   20.7066 H   0  0  0  0  0  0  0  0  0  0  0  0
   22.9129   18.7128   22.5209 C   0  0  0  0  0  0  0  0  0  0  0  0
   22.8468   18.4652   23.5868 H   0  0  0  0  0  0  0  0  0  0  0  0
   23.1436   19.7814   22.4291 H   0  0  0  0  0  0  0  0  0  0  0  0
   23.7575   18.1535   22.1001 H   0  0  0  0  0  0  0  0  0  0  0  0
   21.2871   16.9049   21.9053 N   0  3  0  0  0  0  0  0  0  0  0  0
   20.4494   16.6570   21.3713 H   0  0  0  0  0  0  0  0  0  0  0  0
   22.0529   16.3178   21.5630 H   0  0  0  0  0  0  0  0  0  0  0  0
   21.1175   16.6497   22.8812 H   0  0  0  0  0  0  0  0  0  0  0  0
  1  2  1  0  0  0  0
  1  3  1  0  0  0  0
  1  4  1  0  0  0  0
  1  5  1  0  0  0  0
  5  6  1  0  0  0  0
  5  7  1  0  0  0  0
  5  8  1  0  0  0  0
  8  9  1  0  0  0  0
  8 10  1  0  0  0  0
  8 11  1  0  0  0  0
 11 12  1  0  0  0  0
 11 13  1  0  0  0  0
 11 14  1  0  0  0  0
 14 15  1  0  0  0  0
 14 16  1  0  0  0  0
 14 17  1  0  0  0  0
 17 18  1  0  0  0  0
 17 19  1  0  0  0  0
 19 20  1  0  0  0  0
 19 21  1  0  0  0  0
 19 22  1  0  0  0  0
 17 23  1  0  0  0  0
 23 24  1  0  0  0  0
 23 25  1  0  0  0  0
 23 26  1  0  0  0  0
M  END
> <VConfSearch Rank>
526

> <Conf_Id>
46

> <Delta U+W>
1.114

> <U+W>
-29.185

> <U>
24.990

> <W>
-54.175

> <W(PB)>
-56.455

> <W(SA)>
2.279

> <Valence>
3.862

> <Coulomb>
19.956

> <VdW>
1.172

> <VdW6>
-8.054

> <VdW12>
9.226

> <Bond>
0.258

> <Angle>
1.499

> <Pdih>
2.106

> <Idih>
0.000

> <Tether>
0.000

$$$$
VeraChem MOL file


 26 25  0  0  0  0  0  0  0  0999 V2000     
   16.6766   19.6474   24.7374 C   0  0  0  0  0  0  0  0  0  0  0  0
   16.4493   18.7298   24.1810 H   0  0  0  0  0  0  0  0  0  0  0  0
   17.0486   19.3650   25.7308 H   0  0  0  0  0  0  0  0  0  0  0  0
   15.7330   20.1912   24.8747 H   0  0  0  0  0  0  0  0  0  0  0  0
   17.7033   20.5274   23.9887 C   0  0  0  0  0  0  0  0  0  0  0  0
   17.7991   21.4855   24.5186 H   0  0  0  0  0  0  0  0  0  0  0  0
   17.3229   20.7679   22.9861 H   0  0  0  0  0  0  0  0  0  0  0  0
   19.1053   19.8812   23.8765 C   0  0  0  0  0  0  0  0  0  0  0  0
   19.7898   20.6266   23.4511 H   0  0  0  0  0  0  0  0  0  0  0  0
   19.4841   19.6519   24.8821 H   0  0  0  0  0  0  0  0  0  0  0  0
   19.1249   18.5989   23.0061 C   0  0  0  0  0  0  0  0  0  0  0  0
   18.7198   18.8190   22.0096 H   0  0  0  0  0  0  0  0  0  0  0  0
   18.4566   17.8476   23.4464 H   0  0  0  0  0  0  0  0  0  0  0  0
   20.5355   17.9678   22.8791 C   0  0  0  0  0  0  0  0  0  0  0  0
   20.8820   17.6743   23.8790 H   0  0  0  0  0  0  0  0  0  0  0  0
   20.4601   17.0399   22.2968 H   0  0  0  0  0  0  0  0  0  0  0  0
   21.5920   18.8911   22.2311 C   0  0  1  0  0  0  0  0  0  0  0  0
   21.6748   19.7989   22.8358 H   0  0  0  0  0  0  0  0  0  0  0  0
   22.9657   18.2019   22.2140 C   0  0  0  0  0  0  0  0  0  0  0  0
   23.7287   18.8673   21.7916 H   0  0  0  0  0  0  0  0  0  0  0  0
   22.9423   17.2840   21.6134 H   0  0  0  0  0  0  0  0  0  0  0  0
   23.2812   17.9369   23.2308 H   0  0  0  0  0  0  0  0  0  0  0  0
   21.2007   19.3276   20.8459 N   0  3  0  0  0  0  0  0  0  0  0  0
   20.3047   19.8223   20.8516 H   0  0  0  0  0  0  0  0  0  0  0  0
   21.8979   19.9583   20.4405 H   0  0  0  0  0  0  0  0  0  0  0  0
   21.1075   18.5272   20.2150 H   0  0  0  0  0  0  0  0  0  0  0  0
  1  2  1  0  0  0  0
  1  3  1  0  0  0  0
  1  4  1  0  0  0  0
  1  5  1  0  0  0  0
  5  6  1  0  0  0  0
  5  7  1  0  0  0  0
  5  8  1  0  0  0  0
  8  9  1  0  0  0  0
  8 10  1  0  0  0  0
  8 11  1  0  0  0  0
 11 12  1  0  0  0  0
 11 13  1  0  0  0  0
 11 14  1  0  0  0  0
 14 15  1  0  0  0  0
 14 16  1  0  0  0  0
 14 17  1  0  0  0  0
 17 18  1  0  0  0  0
 17 19  1  0  0  0  0
 19 20  1  0  0  0  0
 19 21  1  0  0  0  0
 19 22  1  0  0  0  0
 17 23  1  0  0  0  0
 23 24  1  0  0  0  0
 23 25  1  0  0  0  0
 23 26  1  0  0  0  0
M  END
> <VConfSearch Rank>
527

> <Conf_Id>
113

> <Delta U+W>
1.137

> <U+W>
-29.162

> <U>
24.833

> <W>
-53.995

> <W(PB)>
-56.288

> <W(SA)>
2.294

> <Valence>
3.589

> <Coulomb>
20.270

> <VdW>
0.974

> <VdW6>
-8.255

> <VdW12>
9.229

> <Bond>
0.244

> <Angle>
1.377

> <Pdih>
1.967

> <Idih>
0.000

> <Tether>
0.000

$$$$
VeraChem MOL file


 26 25  0  0  0  0  0  0  0  0999 V2000     
   17.1790   22.0406   23.1383 C   0  0  0  0  0  0  0  0  0  0  0  0
   16.6391   22.3317   24.0487 H   0  0  0  0  0  0  0  0  0  0  0  0
   17.8236   22.8798   22.8457 H   0  0  0  0  0  0  0  0  0  0  0  0
   16.4385   21.8848   22.3430 H   0  0  0  0  0  0  0  0  0  0  0  0
   18.0094   20.7627   23.3823 C   0  0  0  0  0  0  0  0  0  0  0  0
   17.3418   19.9502   23.7014 H   0  0  0  0  0  0  0  0  0  0  0  0
   18.7080   20.9450   24.2096 H   0  0  0  0  0  0  0  0  0  0  0  0
   18.7836   20.3351   22.1129 C   0  0  0  0  0  0  0  0  0  0  0  0
   18.0747   20.2373   21.2791 H   0  0  0  0  0  0  0  0  0  0  0  0
   19.4894   21.1265   21.8253 H   0  0  0  0  0  0  0  0  0  0  0  0
   19.5421   18.9943   22.2712 C   0  0  0  0  0  0  0  0  0  0  0  0
   19.9548   18.7183   21.2921 H   0  0  0  0  0  0  0  0  0  0  0  0
   18.8253   18.2068   22.5391 H   0  0  0  0  0  0  0  0  0  0  0  0
   20.6869   19.0548   23.3191 C   0  0  0  0  0  0  0  0  0  0  0  0
   21.3338   19.9140   23.0988 H   0  0  0  0  0  0  0  0  0  0  0  0
   20.2666   19.2386   24.3157 H   0  0  0  0  0  0  0  0  0  0  0  0
   21.5676   17.7849   23.3925 C   0  0  1  0  0  0  0  0  0  0  0  0
   22.3320   17.9635   24.1551 H   0  0  0  0  0  0  0  0  0  0  0  0
   20.7612   16.5471   23.8228 C   0  0  0  0  0  0  0  0  0  0  0  0
   20.0331   16.2517   23.0580 H   0  0  0  0  0  0  0  0  0  0  0  0
   20.2196   16.7400   24.7572 H   0  0  0  0  0  0  0  0  0  0  0  0
   21.4297   15.6948   23.9959 H   0  0  0  0  0  0  0  0  0  0  0  0
   22.3116   17.5251   22.1114 N   0  3  0  0  0  0  0  0  0  0  0  0
   22.8847   18.3292   21.8402 H   0  0  0  0  0  0  0  0  0  0  0  0
   22.9375   16.7195   22.1990 H   0  0  0  0  0  0  0  0  0  0  0  0
   21.6684   17.3309   21.3402 H   0  0  0  0  0  0  0  0  0  0  0  0
  1  2  1  0  0  0  0
  1  3  1  0  0  0  0
  1  4  1  0  0  0  0
  1  5  1  0  0  0  0
  5  6  1  0  0  0  0
  5  7  1  0  0  0  0
  5  8  1  0  0  0  0
  8  9  1  0  0  0  0
  8 10  1  0  0  0  0
  8 11  1  0  0  0  0
 11 12  1  0  0  0  0
 11 13  1  0  0  0  0
 11 14  1  0  0  0  0
 14 15  1  0  0  0  0
 14 16  1  0  0  0  0
 14 17  1  0  0  0  0
 17 18  1  0  0  0  0
 17 19  1  0  0  0  0
 19 20  1  0  0  0  0
 19 21  1  0  0  0  0
 19 22  1  0  0  0  0
 17 23  1  0  0  0  0
 23 24  1  0  0  0  0
 23 25  1  0  0  0  0
 23 26  1  0  0  0  0
M  END
> <VConfSearch Rank>
528

> <Conf_Id>
45

> <Delta U+W>
1.035

> <U+W>
-29.264

> <U>
24.725

> <W>
-53.989

> <W(PB)>
-56.298

> <W(SA)>
2.309

> <Valence>
3.780

> <Coulomb>
19.804

> <VdW>
1.141

> <VdW6>
-8.104

> <VdW12>
9.246

> <Bond>
0.254

> <Angle>
1.437

> <Pdih>
2.089

> <Idih>
0.000

> <Tether>
0.000

$$$$
VeraChem MOL file


 26 25  0  0  0  0  0  0  0  0999 V2000     
   17.4437   16.0396   23.7556 C   0  0  0  0  0  0  0  0  0  0  0  0
   17.2157   15.6933   24.7720 H   0  0  0  0  0  0  0  0  0  0  0  0
   16.4996   16.0908   23.1977 H   0  0  0  0  0  0  0  0  0  0  0  0
   18.0827   15.2854   23.2779 H   0  0  0  0  0  0  0  0  0  0  0  0
   18.1426   17.4153   23.7925 C   0  0  0  0  0  0  0  0  0  0  0  0
   19.0582   17.3322   24.3927 H   0  0  0  0  0  0  0  0  0  0  0  0
   17.4920   18.1404   24.3012 H   0  0  0  0  0  0  0  0  0  0  0  0
   18.4782   17.9221   22.3697 C   0  0  0  0  0  0  0  0  0  0  0  0
   19.1739   17.2252   21.8824 H   0  0  0  0  0  0  0  0  0  0  0  0
   17.5611   17.9146   21.7645 H   0  0  0  0  0  0  0  0  0  0  0  0
   19.0707   19.3528   22.3415 C   0  0  0  0  0  0  0  0  0  0  0  0
   18.3730   20.0487   22.8276 H   0  0  0  0  0  0  0  0  0  0  0  0
   19.1420   19.6690   21.2926 H   0  0  0  0  0  0  0  0  0  0  0  0
   20.4656   19.4586   23.0104 C   0  0  0  0  0  0  0  0  0  0  0  0
   20.3858   19.1649   24.0642 H   0  0  0  0  0  0  0  0  0  0  0  0
   21.1592   18.7506   22.5378 H   0  0  0  0  0  0  0  0  0  0  0  0
   21.0568   20.8841   22.9477 C   0  0  1  0  0  0  0  0  0  0  0  0
   20.3333   21.5751   23.3912 H   0  0  0  0  0  0  0  0  0  0  0  0
   22.3576   20.9592   23.7633 C   0  0  0  0  0  0  0  0  0  0  0  0
   23.1200   20.2820   23.3581 H   0  0  0  0  0  0  0  0  0  0  0  0
   22.1783   20.6843   24.8102 H   0  0  0  0  0  0  0  0  0  0  0  0
   22.7646   21.9778   23.7524 H   0  0  0  0  0  0  0  0  0  0  0  0
   21.2935   21.3506   21.5370 N   0  3  0  0  0  0  0  0  0  0  0  0
   20.4270   21.3522   20.9925 H   0  0  0  0  0  0  0  0  0  0  0  0
   21.6692   22.3028   21.5160 H   0  0  0  0  0  0  0  0  0  0  0  0
   21.9619   20.7468   21.0512 H   0  0  0  0  0  0  0  0  0  0  0  0
  1  2  1  0  0  0  0
  1  3  1  0  0  0  0
  1  4  1  0  0  0  0
  1  5  1  0  0  0  0
  5  6  1  0  0  0  0
  5  7  1  0  0  0  0
  5  8  1  0  0  0  0
  8  9  1  0  0  0  0
  8 10  1  0  0  0  0
  8 11  1  0  0  0  0
 11 12  1  0  0  0  0
 11 13  1  0  0  0  0
 11 14  1  0  0  0  0
 14 15  1  0  0  0  0
 14 16  1  0  0  0  0
 14 17  1  0  0  0  0
 17 18  1  0  0  0  0
 17 19  1  0  0  0  0
 19 20  1  0  0  0  0
 19 21  1  0  0  0  0
 19 22  1  0  0  0  0
 17 23  1  0  0  0  0
 23 24  1  0  0  0  0
 23 25  1  0  0  0  0
 23 26  1  0  0  0  0
M  END
> <VConfSearch Rank>
529

> <Conf_Id>
121

> <Delta U+W>
0.736

> <U+W>
-29.562

> <U>
24.282

> <W>
-53.844

> <W(PB)>
-56.205

> <W(SA)>
2.361

> <Valence>
3.311

> <Coulomb>
19.887

> <VdW>
1.083

> <VdW6>
-7.444

> <VdW12>
8.527

> <Bond>
0.219

> <Angle>
1.167

> <Pdih>
1.926

> <Idih>
0.000

> <Tether>
0.000

$$$$
VeraChem MOL file


 26 25  0  0  0  0  0  0  0  0999 V2000     
   18.4383   21.5947   25.3326 C   0  0  0  0  0  0  0  0  0  0  0  0
   17.8551   21.8351   26.2310 H   0  0  0  0  0  0  0  0  0  0  0  0
   19.2873   22.2891   25.2882 H   0  0  0  0  0  0  0  0  0  0  0  0
   17.7952   21.7808   24.4637 H   0  0  0  0  0  0  0  0  0  0  0  0
   18.9219   20.1274   25.3791 C   0  0  0  0  0  0  0  0  0  0  0  0
   18.0549   19.4521   25.3884 H   0  0  0  0  0  0  0  0  0  0  0  0
   19.4512   19.9605   26.3277 H   0  0  0  0  0  0  0  0  0  0  0  0
   19.8665   19.7510   24.2121 C   0  0  0  0  0  0  0  0  0  0  0  0
   20.7353   20.4236   24.2124 H   0  0  0  0  0  0  0  0  0  0  0  0
   20.2555   18.7421   24.4022 H   0  0  0  0  0  0  0  0  0  0  0  0
   19.1769   19.7879   22.8246 C   0  0  0  0  0  0  0  0  0  0  0  0
   18.8018   20.8007   22.6288 H   0  0  0  0  0  0  0  0  0  0  0  0
   18.2943   19.1348   22.8296 H   0  0  0  0  0  0  0  0  0  0  0  0
   20.1237   19.3963   21.6603 C   0  0  0  0  0  0  0  0  0  0  0  0
   19.5736   19.4734   20.7131 H   0  0  0  0  0  0  0  0  0  0  0  0
   20.9298   20.1398   21.6049 H   0  0  0  0  0  0  0  0  0  0  0  0
   20.7553   17.9880   21.7681 C   0  0  1  0  0  0  0  0  0  0  0  0
   21.3101   17.9288   22.7090 H   0  0  0  0  0  0  0  0  0  0  0  0
   19.6927   16.8746   21.7586 C   0  0  0  0  0  0  0  0  0  0  0  0
   19.0701   16.9279   20.8569 H   0  0  0  0  0  0  0  0  0  0  0  0
   19.0367   16.9436   22.6341 H   0  0  0  0  0  0  0  0  0  0  0  0
   20.1679   15.8863   21.7863 H   0  0  0  0  0  0  0  0  0  0  0  0
   21.7599   17.7596   20.6730 N   0  3  0  0  0  0  0  0  0  0  0  0
   22.5011   18.4660   20.6874 H   0  0  0  0  0  0  0  0  0  0  0  0
   22.2102   16.8445   20.7630 H   0  0  0  0  0  0  0  0  0  0  0  0
   21.3208   17.7938   19.7492 H   0  0  0  0  0  0  0  0  0  0  0  0
  1  2  1  0  0  0  0
  1  3  1  0  0  0  0
  1  4  1  0  0  0  0
  1  5  1  0  0  0  0
  5  6  1  0  0  0  0
  5  7  1  0  0  0  0
  5  8  1  0  0  0  0
  8  9  1  0  0  0  0
  8 10  1  0  0  0  0
  8 11  1  0  0  0  0
 11 12  1  0  0  0  0
 11 13  1  0  0  0  0
 11 14  1  0  0  0  0
 14 15  1  0  0  0  0
 14 16  1  0  0  0  0
 14 17  1  0  0  0  0
 17 18  1  0  0  0  0
 17 19  1  0  0  0  0
 19 20  1  0  0  0  0
 19 21  1  0  0  0  0
 19 22  1  0  0  0  0
 17 23  1  0  0  0  0
 23 24  1  0  0  0  0
 23 25  1  0  0  0  0
 23 26  1  0  0  0  0
M  END
> <VConfSearch Rank>
530

> <Conf_Id>
5

> <Delta U+W>
1.233

> <U+W>
-29.065

> <U>
25.023

> <W>
-54.088

> <W(PB)>
-56.383

> <W(SA)>
2.296

> <Valence>
4.083

> <Coulomb>
19.893

> <VdW>
1.047

> <VdW6>
-8.479

> <VdW12>
9.527

> <Bond>
0.256

> <Angle>
1.716

> <Pdih>
2.112

> <Idih>
0.000

> <Tether>
0.000

$$$$
VeraChem MOL file


 26 25  0  0  0  0  0  0  0  0999 V2000     
   22.9289   17.2155   22.7729 C   0  0  0  0  0  0  0  0  0  0  0  0
   23.5931   16.3969   23.0790 H   0  0  0  0  0  0  0  0  0  0  0  0
   22.5210   16.9566   21.7881 H   0  0  0  0  0  0  0  0  0  0  0  0
   23.5403   18.1209   22.6654 H   0  0  0  0  0  0  0  0  0  0  0  0
   21.8088   17.4216   23.8179 C   0  0  0  0  0  0  0  0  0  0  0  0
   22.2701   17.5489   24.8073 H   0  0  0  0  0  0  0  0  0  0  0  0
   21.1904   16.5154   23.8820 H   0  0  0  0  0  0  0  0  0  0  0  0
   20.9117   18.6496   23.5289 C   0  0  0  0  0  0  0  0  0  0  0  0
   20.2471   18.7911   24.3909 H   0  0  0  0  0  0  0  0  0  0  0  0
   21.5356   19.5513   23.4609 H   0  0  0  0  0  0  0  0  0  0  0  0
   20.0595   18.5021   22.2436 C   0  0  0  0  0  0  0  0  0  0  0  0
   19.4170   17.6151   22.3309 H   0  0  0  0  0  0  0  0  0  0  0  0
   20.7184   18.3217   21.3847 H   0  0  0  0  0  0  0  0  0  0  0  0
   19.1840   19.7398   21.9210 C   0  0  0  0  0  0  0  0  0  0  0  0
   19.8223   20.6163   21.7459 H   0  0  0  0  0  0  0  0  0  0  0  0
   18.6810   19.5460   20.9643 H   0  0  0  0  0  0  0  0  0  0  0  0
   18.1197   20.0519   23.0011 C   0  0  1  0  0  0  0  0  0  0  0  0
   17.9902   19.1591   23.6206 H   0  0  0  0  0  0  0  0  0  0  0  0
   18.5549   21.2206   23.9041 C   0  0  0  0  0  0  0  0  0  0  0  0
   18.6441   22.1512   23.3298 H   0  0  0  0  0  0  0  0  0  0  0  0
   19.5230   21.0238   24.3779 H   0  0  0  0  0  0  0  0  0  0  0  0
   17.8219   21.3848   24.7035 H   0  0  0  0  0  0  0  0  0  0  0  0
   16.7728   20.3409   22.3969 N   0  3  0  0  0  0  0  0  0  0  0  0
   16.4390   19.5570   21.8286 H   0  0  0  0  0  0  0  0  0  0  0  0
   16.0681   20.5144   23.1193 H   0  0  0  0  0  0  0  0  0  0  0  0
   16.8022   21.1678   21.7944 H   0  0  0  0  0  0  0  0  0  0  0  0
  1  2  1  0  0  0  0
  1  3  1  0  0  0  0
  1  4  1  0  0  0  0
  1  5  1  0  0  0  0
  5  6  1  0  0  0  0
  5  7  1  0  0  0  0
  5  8  1  0  0  0  0
  8  9  1  0  0  0  0
  8 10  1  0  0  0  0
  8 11  1  0  0  0  0
 11 12  1  0  0  0  0
 11 13  1  0  0  0  0
 11 14  1  0  0  0  0
 14 15  1  0  0  0  0
 14 16  1  0  0  0  0
 14 17  1  0  0  0  0
 17 18  1  0  0  0  0
 17 19  1  0  0  0  0
 19 20  1  0  0  0  0
 19 21  1  0  0  0  0
 19 22  1  0  0  0  0
 17 23  1  0  0  0  0
 23 24  1  0  0  0  0
 23 25  1  0  0  0  0
 23 26  1  0  0  0  0
M  END
> <VConfSearch Rank>
531

> <Conf_Id>
100

> <Delta U+W>
3.818

> <U+W>
-26.481

> <U>
27.496

> <W>
-53.977

> <W(PB)>
-56.267

> <W(SA)>
2.290

> <Valence>
6.472

> <Coulomb>
19.839

> <VdW>
1.185

> <VdW6>
-8.405

> <VdW12>
9.590

> <Bond>
0.248

> <Angle>
1.619

> <Pdih>
4.604

> <Idih>
0.000

> <Tether>
0.000

$$$$
VeraChem MOL file


 26 25  0  0  0  0  0  0  0  0999 V2000     
   23.2757   20.4354   22.9447 C   0  0  0  0  0  0  0  0  0  0  0  0
   24.2783   20.1839   23.3143 H   0  0  0  0  0  0  0  0  0  0  0  0
   23.2500   20.2211   21.8683 H   0  0  0  0  0  0  0  0  0  0  0  0
   23.1267   21.5143   23.0822 H   0  0  0  0  0  0  0  0  0  0  0  0
   22.1986   19.6260   23.6976 C   0  0  0  0  0  0  0  0  0  0  0  0
   22.2721   19.8348   24.7741 H   0  0  0  0  0  0  0  0  0  0  0  0
   22.3936   18.5521   23.5688 H   0  0  0  0  0  0  0  0  0  0  0  0
   20.7764   19.9615   23.1964 C   0  0  0  0  0  0  0  0  0  0  0  0
   20.5894   21.0363   23.3277 H   0  0  0  0  0  0  0  0  0  0  0  0
   20.7187   19.7634   22.1197 H   0  0  0  0  0  0  0  0  0  0  0  0
   19.6948   19.1548   23.9562 C   0  0  0  0  0  0  0  0  0  0  0  0
   19.7747   19.4022   25.0239 H   0  0  0  0  0  0  0  0  0  0  0  0
   19.9009   18.0793   23.8810 H   0  0  0  0  0  0  0  0  0  0  0  0
   18.2452   19.4691   23.4913 C   0  0  0  0  0  0  0  0  0  0  0  0
   17.5861   19.4296   24.3686 H   0  0  0  0  0  0  0  0  0  0  0  0
   18.1842   20.5047   23.1316 H   0  0  0  0  0  0  0  0  0  0  0  0
   17.6511   18.5181   22.4226 C   0  0  1  0  0  0  0  0  0  0  0  0
   16.6421   18.8782   22.1985 H   0  0  0  0  0  0  0  0  0  0  0  0
   18.4455   18.5244   21.1066 C   0  0  0  0  0  0  0  0  0  0  0  0
   19.4303   18.0583   21.2295 H   0  0  0  0  0  0  0  0  0  0  0  0
   18.5864   19.5488   20.7403 H   0  0  0  0  0  0  0  0  0  0  0  0
   17.9067   17.9656   20.3317 H   0  0  0  0  0  0  0  0  0  0  0  0
   17.4822   17.1151   22.9386 N   0  3  0  0  0  0  0  0  0  0  0  0
   16.9069   17.0929   23.7854 H   0  0  0  0  0  0  0  0  0  0  0  0
   17.0280   16.5139   22.2453 H   0  0  0  0  0  0  0  0  0  0  0  0
   18.3842   16.6912   23.1682 H   0  0  0  0  0  0  0  0  0  0  0  0
  1  2  1  0  0  0  0
  1  3  1  0  0  0  0
  1  4  1  0  0  0  0
  1  5  1  0  0  0  0
  5  6  1  0  0  0  0
  5  7  1  0  0  0  0
  5  8  1  0  0  0  0
  8  9  1  0  0  0  0
  8 10  1  0  0  0  0
  8 11  1  0  0  0  0
 11 12  1  0  0  0  0
 11 13  1  0  0  0  0
 11 14  1  0  0  0  0
 14 15  1  0  0  0  0
 14 16  1  0  0  0  0
 14 17  1  0  0  0  0
 17 18  1  0  0  0  0
 17 19  1  0  0  0  0
 19 20  1  0  0  0  0
 19 21  1  0  0  0  0
 19 22  1  0  0  0  0
 17 23  1  0  0  0  0
 23 24  1  0  0  0  0
 23 25  1  0  0  0  0
 23 26  1  0  0  0  0
M  END
> <VConfSearch Rank>
532

> <Conf_Id>
142

> <Delta U+W>
2.978

> <U+W>
-27.320

> <U>
26.848

> <W>
-54.168

> <W(PB)>
-56.427

> <W(SA)>
2.259

> <Valence>
5.823

> <Coulomb>
20.057

> <VdW>
0.968

> <VdW6>
-8.367

> <VdW12>
9.335

> <Bond>
0.267

> <Angle>
1.799

> <Pdih>
3.758

> <Idih>
0.000

> <Tether>
0.000

$$$$
VeraChem MOL file


 26 25  0  0  0  0  0  0  0  0999 V2000     
   21.0736   21.0589   25.5515 C   0  0  0  0  0  0  0  0  0  0  0  0
   22.1155   21.0074   25.2096 H   0  0  0  0  0  0  0  0  0  0  0  0
   20.9820   21.9270   26.2170 H   0  0  0  0  0  0  0  0  0  0  0  0
   20.8629   20.1638   26.1492 H   0  0  0  0  0  0  0  0  0  0  0  0
   20.1020   21.1901   24.3564 C   0  0  0  0  0  0  0  0  0  0  0  0
   20.2701   22.1629   23.8735 H   0  0  0  0  0  0  0  0  0  0  0  0
   19.0652   21.2035   24.7207 H   0  0  0  0  0  0  0  0  0  0  0  0
   20.2712   20.0760   23.2950 C   0  0  0  0  0  0  0  0  0  0  0  0
   19.6554   20.3485   22.4302 H   0  0  0  0  0  0  0  0  0  0  0  0
   21.3144   20.0536   22.9509 H   0  0  0  0  0  0  0  0  0  0  0  0
   19.8518   18.6729   23.8017 C   0  0  0  0  0  0  0  0  0  0  0  0
   18.7907   18.6845   24.0840 H   0  0  0  0  0  0  0  0  0  0  0  0
   20.4009   18.4445   24.7237 H   0  0  0  0  0  0  0  0  0  0  0  0
   20.1260   17.5125   22.8035 C   0  0  0  0  0  0  0  0  0  0  0  0
   21.2065   17.4365   22.6242 H   0  0  0  0  0  0  0  0  0  0  0  0
   19.8481   16.5741   23.3011 H   0  0  0  0  0  0  0  0  0  0  0  0
   19.3910   17.5496   21.4390 C   0  0  1  0  0  0  0  0  0  0  0  0
   19.5185   16.5612   20.9867 H   0  0  0  0  0  0  0  0  0  0  0  0
   17.8791   17.7916   21.5903 C   0  0  0  0  0  0  0  0  0  0  0  0
   17.6650   18.8036   21.9540 H   0  0  0  0  0  0  0  0  0  0  0  0
   17.4391   17.0729   22.2927 H   0  0  0  0  0  0  0  0  0  0  0  0
   17.3718   17.6674   20.6257 H   0  0  0  0  0  0  0  0  0  0  0  0
   20.0062   18.5121   20.4604 N   0  3  0  0  0  0  0  0  0  0  0  0
   20.9969   18.3055   20.3045 H   0  0  0  0  0  0  0  0  0  0  0  0
   19.5391   18.4684   19.5502 H   0  0  0  0  0  0  0  0  0  0  0  0
   19.9413   19.4757   20.7939 H   0  0  0  0  0  0  0  0  0  0  0  0
  1  2  1  0  0  0  0
  1  3  1  0  0  0  0
  1  4  1  0  0  0  0
  1  5  1  0  0  0  0
  5  6  1  0  0  0  0
  5  7  1  0  0  0  0
  5  8  1  0  0  0  0
  8  9  1  0  0  0  0
  8 10  1  0  0  0  0
  8 11  1  0  0  0  0
 11 12  1  0  0  0  0
 11 13  1  0  0  0  0
 11 14  1  0  0  0  0
 14 15  1  0  0  0  0
 14 16  1  0  0  0  0
 14 17  1  0  0  0  0
 17 18  1  0  0  0  0
 17 19  1  0  0  0  0
 19 20  1  0  0  0  0
 19 21  1  0  0  0  0
 19 22  1  0  0  0  0
 17 23  1  0  0  0  0
 23 24  1  0  0  0  0
 23 25  1  0  0  0  0
 23 26  1  0  0  0  0
M  END
> <VConfSearch Rank>
533

> <Conf_Id>
119

> <Delta U+W>
3.538

> <U+W>
-26.761

> <U>
27.482

> <W>
-54.243

> <W(PB)>
-56.494

> <W(SA)>
2.251

> <Valence>
5.284

> <Coulomb>
21.247

> <VdW>
0.951

> <VdW6>
-9.416

> <VdW12>
10.367

> <Bond>
0.323

> <Angle>
2.522

> <Pdih>
2.439

> <Idih>
0.000

> <Tether>
0.000

$$$$
VeraChem MOL file


 26 25  0  0  0  0  0  0  0  0999 V2000     
   23.1544   20.1628   23.4853 C   0  0  0  0  0  0  0  0  0  0  0  0
   23.5752   20.1880   22.4717 H   0  0  0  0  0  0  0  0  0  0  0  0
   22.5377   21.0594   23.6246 H   0  0  0  0  0  0  0  0  0  0  0  0
   23.9884   20.2228   24.1965 H   0  0  0  0  0  0  0  0  0  0  0  0
   22.3385   18.8707   23.7164 C   0  0  0  0  0  0  0  0  0  0  0  0
   21.9030   18.8845   24.7253 H   0  0  0  0  0  0  0  0  0  0  0  0
   23.0223   18.0108   23.6888 H   0  0  0  0  0  0  0  0  0  0  0  0
   21.2217   18.6506   22.6677 C   0  0  0  0  0  0  0  0  0  0  0  0
   21.6671   18.6110   21.6641 H   0  0  0  0  0  0  0  0  0  0  0  0
   20.7778   17.6633   22.8413 H   0  0  0  0  0  0  0  0  0  0  0  0
   20.1206   19.7416   22.7030 C   0  0  0  0  0  0  0  0  0  0  0  0
   20.5716   20.6987   22.4098 H   0  0  0  0  0  0  0  0  0  0  0  0
   19.7576   19.8803   23.7294 H   0  0  0  0  0  0  0  0  0  0  0  0
   18.9373   19.4549   21.7366 C   0  0  0  0  0  0  0  0  0  0  0  0
   18.5998   20.4095   21.3119 H   0  0  0  0  0  0  0  0  0  0  0  0
   19.2892   18.8663   20.8791 H   0  0  0  0  0  0  0  0  0  0  0  0
   17.7008   18.7633   22.3631 C   0  0  1  0  0  0  0  0  0  0  0  0
   16.9695   18.6245   21.5609 H   0  0  0  0  0  0  0  0  0  0  0  0
   18.0206   17.3751   22.9411 C   0  0  0  0  0  0  0  0  0  0  0  0
   18.6671   17.4463   23.8239 H   0  0  0  0  0  0  0  0  0  0  0  0
   18.5188   16.7464   22.1928 H   0  0  0  0  0  0  0  0  0  0  0  0
   17.0982   16.8641   23.2429 H   0  0  0  0  0  0  0  0  0  0  0  0
   17.0245   19.6281   23.3917 N   0  3  0  0  0  0  0  0  0  0  0  0
   16.7570   20.5363   23.0016 H   0  0  0  0  0  0  0  0  0  0  0  0
   16.1727   19.1868   23.7494 H   0  0  0  0  0  0  0  0  0  0  0  0
   17.6374   19.8050   24.1911 H   0  0  0  0  0  0  0  0  0  0  0  0
  1  2  1  0  0  0  0
  1  3  1  0  0  0  0
  1  4  1  0  0  0  0
  1  5  1  0  0  0  0
  5  6  1  0  0  0  0
  5  7  1  0  0  0  0
  5  8  1  0  0  0  0
  8  9  1  0  0  0  0
  8 10  1  0  0  0  0
  8 11  1  0  0  0  0
 11 12  1  0  0  0  0
 11 13  1  0  0  0  0
 11 14  1  0  0  0  0
 14 15  1  0  0  0  0
 14 16  1  0  0  0  0
 14 17  1  0  0  0  0
 17 18  1  0  0  0  0
 17 19  1  0  0  0  0
 19 20  1  0  0  0  0
 19 21  1  0  0  0  0
 19 22  1  0  0  0  0
 17 23  1  0  0  0  0
 23 24  1  0  0  0  0
 23 25  1  0  0  0  0
 23 26  1  0  0  0  0
M  END
> <VConfSearch Rank>
534

> <Conf_Id>
127

> <Delta U+W>
3.544

> <U+W>
-26.754

> <U>
27.509

> <W>
-54.263

> <W(PB)>
-56.496

> <W(SA)>
2.232

> <Valence>
6.375

> <Coulomb>
20.014

> <VdW>
1.120

> <VdW6>
-8.976

> <VdW12>
10.096

> <Bond>
0.304

> <Angle>
1.986

> <Pdih>
4.086

> <Idih>
0.000

> <Tether>
0.000

$$$$
VeraChem MOL file


 26 25  0  0  0  0  0  0  0  0999 V2000     
   16.7176   19.0172   22.3044 C   0  0  0  0  0  0  0  0  0  0  0  0
   15.9646   19.6628   21.8342 H   0  0  0  0  0  0  0  0  0  0  0  0
   16.2050   18.1154   22.6636 H   0  0  0  0  0  0  0  0  0  0  0  0
   17.1133   19.5494   23.1763 H   0  0  0  0  0  0  0  0  0  0  0  0
   17.8272   18.6535   21.2902 C   0  0  0  0  0  0  0  0  0  0  0  0
   18.2838   19.5649   20.8798 H   0  0  0  0  0  0  0  0  0  0  0  0
   17.3536   18.1440   20.4393 H   0  0  0  0  0  0  0  0  0  0  0  0
   18.9174   17.7215   21.8793 C   0  0  0  0  0  0  0  0  0  0  0  0
   18.4923   17.0945   22.6751 H   0  0  0  0  0  0  0  0  0  0  0  0
   19.2322   17.0239   21.0908 H   0  0  0  0  0  0  0  0  0  0  0  0
   20.1877   18.4471   22.3933 C   0  0  0  0  0  0  0  0  0  0  0  0
   20.6570   18.9820   21.5570 H   0  0  0  0  0  0  0  0  0  0  0  0
   20.9052   17.6791   22.7087 H   0  0  0  0  0  0  0  0  0  0  0  0
   19.9266   19.4304   23.5653 C   0  0  0  0  0  0  0  0  0  0  0  0
   19.2869   20.2486   23.2131 H   0  0  0  0  0  0  0  0  0  0  0  0
   19.3641   18.9164   24.3558 H   0  0  0  0  0  0  0  0  0  0  0  0
   21.1974   20.0593   24.1845 C   0  0  1  0  0  0  0  0  0  0  0  0
   20.8670   20.7824   24.9367 H   0  0  0  0  0  0  0  0  0  0  0  0
   22.0729   19.0159   24.9008 C   0  0  0  0  0  0  0  0  0  0  0  0
   21.4822   18.4429   25.6263 H   0  0  0  0  0  0  0  0  0  0  0  0
   22.8844   19.5093   25.4495 H   0  0  0  0  0  0  0  0  0  0  0  0
   22.5280   18.3116   24.1948 H   0  0  0  0  0  0  0  0  0  0  0  0
   22.0003   20.8399   23.1804 N   0  3  0  0  0  0  0  0  0  0  0  0
   21.4367   21.5688   22.7337 H   0  0  0  0  0  0  0  0  0  0  0  0
   22.8031   21.2997   23.6192 H   0  0  0  0  0  0  0  0  0  0  0  0
   22.3611   20.2323   22.4408 H   0  0  0  0  0  0  0  0  0  0  0  0
  1  2  1  0  0  0  0
  1  3  1  0  0  0  0
  1  4  1  0  0  0  0
  1  5  1  0  0  0  0
  5  6  1  0  0  0  0
  5  7  1  0  0  0  0
  5  8  1  0  0  0  0
  8  9  1  0  0  0  0
  8 10  1  0  0  0  0
  8 11  1  0  0  0  0
 11 12  1  0  0  0  0
 11 13  1  0  0  0  0
 11 14  1  0  0  0  0
 14 15  1  0  0  0  0
 14 16  1  0  0  0  0
 14 17  1  0  0  0  0
 17 18  1  0  0  0  0
 17 19  1  0  0  0  0
 19 20  1  0  0  0  0
 19 21  1  0  0  0  0
 19 22  1  0  0  0  0
 17 23  1  0  0  0  0
 23 24  1  0  0  0  0
 23 25  1  0  0  0  0
 23 26  1  0  0  0  0
M  END
> <VConfSearch Rank>
535

> <Conf_Id>
131

> <Delta U+W>
3.589

> <U+W>
-26.710

> <U>
27.573

> <W>
-54.283

> <W(PB)>
-56.537

> <W(SA)>
2.254

> <Valence>
6.363

> <Coulomb>
20.026

> <VdW>
1.184

> <VdW6>
-8.939

> <VdW12>
10.123

> <Bond>
0.298

> <Angle>
2.018

> <Pdih>
4.047

> <Idih>
0.000

> <Tether>
0.000

$$$$
VeraChem MOL file


 26 25  0  0  0  0  0  0  0  0999 V2000     
   20.6948   19.0614   25.6527 C   0  0  0  0  0  0  0  0  0  0  0  0
   21.1108   18.0754   25.4085 H   0  0  0  0  0  0  0  0  0  0  0  0
   20.9839   19.7689   24.8660 H   0  0  0  0  0  0  0  0  0  0  0  0
   21.1622   19.4014   26.5859 H   0  0  0  0  0  0  0  0  0  0  0  0
   19.1602   18.9957   25.8112 C   0  0  0  0  0  0  0  0  0  0  0  0
   18.7683   20.0082   25.9821 H   0  0  0  0  0  0  0  0  0  0  0  0
   18.9241   18.4215   26.7180 H   0  0  0  0  0  0  0  0  0  0  0  0
   18.4203   18.3473   24.6132 C   0  0  0  0  0  0  0  0  0  0  0  0
   18.7251   17.2974   24.5055 H   0  0  0  0  0  0  0  0  0  0  0  0
   17.3504   18.3199   24.8624 H   0  0  0  0  0  0  0  0  0  0  0  0
   18.5827   19.0987   23.2658 C   0  0  0  0  0  0  0  0  0  0  0  0
   18.7196   20.1704   23.4588 H   0  0  0  0  0  0  0  0  0  0  0  0
   17.6437   19.0075   22.7024 H   0  0  0  0  0  0  0  0  0  0  0  0
   19.7294   18.5390   22.3828 C   0  0  0  0  0  0  0  0  0  0  0  0
   20.6932   18.6287   22.8961 H   0  0  0  0  0  0  0  0  0  0  0  0
   19.5591   17.4643   22.2362 H   0  0  0  0  0  0  0  0  0  0  0  0
   19.8249   19.2100   20.9936 C   0  0  1  0  0  0  0  0  0  0  0  0
   18.8404   19.1580   20.5184 H   0  0  0  0  0  0  0  0  0  0  0  0
   20.2422   20.6884   21.0927 C   0  0  0  0  0  0  0  0  0  0  0  0
   21.1984   20.7964   21.6198 H   0  0  0  0  0  0  0  0  0  0  0  0
   19.4887   21.2819   21.6228 H   0  0  0  0  0  0  0  0  0  0  0  0
   20.3540   21.1259   20.0930 H   0  0  0  0  0  0  0  0  0  0  0  0
   20.7699   18.4629   20.0936 N   0  3  0  0  0  0  0  0  0  0  0  0
   21.7229   18.4650   20.4665 H   0  0  0  0  0  0  0  0  0  0  0  0
   20.4870   17.4856   19.9773 H   0  0  0  0  0  0  0  0  0  0  0  0
   20.8065   18.8816   19.1599 H   0  0  0  0  0  0  0  0  0  0  0  0
  1  2  1  0  0  0  0
  1  3  1  0  0  0  0
  1  4  1  0  0  0  0
  1  5  1  0  0  0  0
  5  6  1  0  0  0  0
  5  7  1  0  0  0  0
  5  8  1  0  0  0  0
  8  9  1  0  0  0  0
  8 10  1  0  0  0  0
  8 11  1  0  0  0  0
 11 12  1  0  0  0  0
 11 13  1  0  0  0  0
 11 14  1  0  0  0  0
 14 15  1  0  0  0  0
 14 16  1  0  0  0  0
 14 17  1  0  0  0  0
 17 18  1  0  0  0  0
 17 19  1  0  0  0  0
 19 20  1  0  0  0  0
 19 21  1  0  0  0  0
 19 22  1  0  0  0  0
 17 23  1  0  0  0  0
 23 24  1  0  0  0  0
 23 25  1  0  0  0  0
 23 26  1  0  0  0  0
M  END
> <VConfSearch Rank>
536

> <Conf_Id>
80

> <Delta U+W>
3.351

> <U+W>
-26.948

> <U>
27.261

> <W>
-54.209

> <W(PB)>
-56.471

> <W(SA)>
2.263

> <Valence>
6.230

> <Coulomb>
19.945

> <VdW>
1.087

> <VdW6>
-8.618

> <VdW12>
9.704

> <Bond>
0.277

> <Angle>
1.928

> <Pdih>
4.025

> <Idih>
0.000

> <Tether>
0.000

$$$$
VeraChem MOL file


 26 25  0  0  0  0  0  0  0  0999 V2000     
   21.3945   21.9632   23.3293 C   0  0  0  0  0  0  0  0  0  0  0  0
   21.2437   22.9876   22.9651 H   0  0  0  0  0  0  0  0  0  0  0  0
   22.1152   22.0030   24.1563 H   0  0  0  0  0  0  0  0  0  0  0  0
   21.8399   21.3845   22.5105 H   0  0  0  0  0  0  0  0  0  0  0  0
   20.0530   21.3498   23.7901 C   0  0  0  0  0  0  0  0  0  0  0  0
   19.3599   21.2962   22.9406 H   0  0  0  0  0  0  0  0  0  0  0  0
   19.5838   22.0323   24.5124 H   0  0  0  0  0  0  0  0  0  0  0  0
   20.2017   19.9577   24.4575 C   0  0  0  0  0  0  0  0  0  0  0  0
   20.7696   20.0808   25.3899 H   0  0  0  0  0  0  0  0  0  0  0  0
   19.2087   19.6109   24.7650 H   0  0  0  0  0  0  0  0  0  0  0  0
   20.9091   18.8704   23.5999 C   0  0  0  0  0  0  0  0  0  0  0  0
   21.0277   17.9566   24.1983 H   0  0  0  0  0  0  0  0  0  0  0  0
   21.9332   19.2068   23.3914 H   0  0  0  0  0  0  0  0  0  0  0  0
   20.2208   18.5160   22.2518 C   0  0  0  0  0  0  0  0  0  0  0  0
   19.7164   19.3897   21.8245 H   0  0  0  0  0  0  0  0  0  0  0  0
   21.0138   18.2592   21.5373 H   0  0  0  0  0  0  0  0  0  0  0  0
   19.2470   17.3140   22.3046 C   0  0  1  0  0  0  0  0  0  0  0  0
   19.7991   16.4437   22.6724 H   0  0  0  0  0  0  0  0  0  0  0  0
   18.0495   17.5513   23.2395 C   0  0  0  0  0  0  0  0  0  0  0  0
   18.3710   17.5814   24.2864 H   0  0  0  0  0  0  0  0  0  0  0  0
   17.3219   16.7350   23.1523 H   0  0  0  0  0  0  0  0  0  0  0  0
   17.5376   18.4919   23.0011 H   0  0  0  0  0  0  0  0  0  0  0  0
   18.7647   16.9542   20.9264 N   0  3  0  0  0  0  0  0  0  0  0  0
   19.5443   16.7442   20.2965 H   0  0  0  0  0  0  0  0  0  0  0  0
   18.1590   16.1289   20.9458 H   0  0  0  0  0  0  0  0  0  0  0  0
   18.2271   17.7174   20.5071 H   0  0  0  0  0  0  0  0  0  0  0  0
  1  2  1  0  0  0  0
  1  3  1  0  0  0  0
  1  4  1  0  0  0  0
  1  5  1  0  0  0  0
  5  6  1  0  0  0  0
  5  7  1  0  0  0  0
  5  8  1  0  0  0  0
  8  9  1  0  0  0  0
  8 10  1  0  0  0  0
  8 11  1  0  0  0  0
 11 12  1  0  0  0  0
 11 13  1  0  0  0  0
 11 14  1  0  0  0  0
 14 15  1  0  0  0  0
 14 16  1  0  0  0  0
 14 17  1  0  0  0  0
 17 18  1  0  0  0  0
 17 19  1  0  0  0  0
 19 20  1  0  0  0  0
 19 21  1  0  0  0  0
 19 22  1  0  0  0  0
 17 23  1  0  0  0  0
 23 24  1  0  0  0  0
 23 25  1  0  0  0  0
 23 26  1  0  0  0  0
M  END
> <VConfSearch Rank>
537

> <Conf_Id>
136

> <Delta U+W>
4.272

> <U+W>
-26.026

> <U>
28.262

> <W>
-54.288

> <W(PB)>
-56.488

> <W(SA)>
2.200

> <Valence>
7.096

> <Coulomb>
19.990

> <VdW>
1.175

> <VdW6>
-9.404

> <VdW12>
10.580

> <Bond>
0.360

> <Angle>
2.785

> <Pdih>
3.951

> <Idih>
0.000

> <Tether>
0.000

$$$$
VeraChem MOL file


 26 25  0  0  0  0  0  0  0  0999 V2000     
   22.7651   19.2688   22.8807 C   0  0  0  0  0  0  0  0  0  0  0  0
   22.1142   19.9565   22.3269 H   0  0  0  0  0  0  0  0  0  0  0  0
   23.7979   19.6149   22.7455 H   0  0  0  0  0  0  0  0  0  0  0  0
   22.6841   18.2707   22.4311 H   0  0  0  0  0  0  0  0  0  0  0  0
   22.3996   19.2356   24.3808 C   0  0  0  0  0  0  0  0  0  0  0  0
   22.4358   20.2560   24.7871 H   0  0  0  0  0  0  0  0  0  0  0  0
   23.1710   18.6668   24.9186 H   0  0  0  0  0  0  0  0  0  0  0  0
   21.0182   18.6030   24.6883 C   0  0  0  0  0  0  0  0  0  0  0  0
   21.0071   17.5494   24.3766 H   0  0  0  0  0  0  0  0  0  0  0  0
   20.8973   18.5894   25.7804 H   0  0  0  0  0  0  0  0  0  0  0  0
   19.8095   19.3588   24.0774 C   0  0  0  0  0  0  0  0  0  0  0  0
   20.0504   20.4251   23.9666 H   0  0  0  0  0  0  0  0  0  0  0  0
   18.9776   19.3061   24.7923 H   0  0  0  0  0  0  0  0  0  0  0  0
   19.3376   18.7680   22.7232 C   0  0  0  0  0  0  0  0  0  0  0  0
   20.1829   18.7140   22.0282 H   0  0  0  0  0  0  0  0  0  0  0  0
   18.9955   17.7351   22.8718 H   0  0  0  0  0  0  0  0  0  0  0  0
   18.2117   19.5959   22.0667 C   0  0  1  0  0  0  0  0  0  0  0  0
   18.5660   20.6249   21.9515 H   0  0  0  0  0  0  0  0  0  0  0  0
   17.8834   19.0403   20.6716 C   0  0  0  0  0  0  0  0  0  0  0  0
   17.5210   18.0064   20.7311 H   0  0  0  0  0  0  0  0  0  0  0  0
   18.7714   19.0545   20.0272 H   0  0  0  0  0  0  0  0  0  0  0  0
   17.1096   19.6463   20.1844 H   0  0  0  0  0  0  0  0  0  0  0  0
   16.9709   19.6577   22.9152 N   0  3  0  0  0  0  0  0  0  0  0  0
   16.5784   18.7255   23.0711 H   0  0  0  0  0  0  0  0  0  0  0  0
   17.1651   20.0682   23.8324 H   0  0  0  0  0  0  0  0  0  0  0  0
   16.2433   20.2266   22.4734 H   0  0  0  0  0  0  0  0  0  0  0  0
  1  2  1  0  0  0  0
  1  3  1  0  0  0  0
  1  4  1  0  0  0  0
  1  5  1  0  0  0  0
  5  6  1  0  0  0  0
  5  7  1  0  0  0  0
  5  8  1  0  0  0  0
  8  9  1  0  0  0  0
  8 10  1  0  0  0  0
  8 11  1  0  0  0  0
 11 12  1  0  0  0  0
 11 13  1  0  0  0  0
 11 14  1  0  0  0  0
 14 15  1  0  0  0  0
 14 16  1  0  0  0  0
 14 17  1  0  0  0  0
 17 18  1  0  0  0  0
 17 19  1  0  0  0  0
 19 20  1  0  0  0  0
 19 21  1  0  0  0  0
 19 22  1  0  0  0  0
 17 23  1  0  0  0  0
 23 24  1  0  0  0  0
 23 25  1  0  0  0  0
 23 26  1  0  0  0  0
M  END
> <VConfSearch Rank>
538

> <Conf_Id>
124

> <Delta U+W>
3.001

> <U+W>
-27.298

> <U>
26.787

> <W>
-54.085

> <W(PB)>
-56.347

> <W(SA)>
2.262

> <Valence>
5.742

> <Coulomb>
20.023

> <VdW>
1.022

> <VdW6>
-8.392

> <VdW12>
9.414

> <Bond>
0.261

> <Angle>
1.576

> <Pdih>
3.904

> <Idih>
0.000

> <Tether>
0.000

$$$$
VeraChem MOL file


 26 25  0  0  0  0  0  0  0  0999 V2000     
   17.6277   19.0867   20.6595 C   0  0  0  0  0  0  0  0  0  0  0  0
   16.8999   18.2717   20.7650 H   0  0  0  0  0  0  0  0  0  0  0  0
   17.3995   19.6175   19.7262 H   0  0  0  0  0  0  0  0  0  0  0  0
   18.6216   18.6392   20.5515 H   0  0  0  0  0  0  0  0  0  0  0  0
   17.5510   20.0541   21.8638 C   0  0  0  0  0  0  0  0  0  0  0  0
   16.5397   20.4838   21.8877 H   0  0  0  0  0  0  0  0  0  0  0  0
   18.2355   20.9013   21.7176 H   0  0  0  0  0  0  0  0  0  0  0  0
   17.8267   19.3667   23.2260 C   0  0  0  0  0  0  0  0  0  0  0  0
   17.1858   19.8404   23.9826 H   0  0  0  0  0  0  0  0  0  0  0  0
   17.5134   18.3141   23.1914 H   0  0  0  0  0  0  0  0  0  0  0  0
   19.2911   19.4723   23.7248 C   0  0  0  0  0  0  0  0  0  0  0  0
   19.3392   19.0266   24.7268 H   0  0  0  0  0  0  0  0  0  0  0  0
   19.5495   20.5325   23.8472 H   0  0  0  0  0  0  0  0  0  0  0  0
   20.3283   18.7820   22.7999 C   0  0  0  0  0  0  0  0  0  0  0  0
   19.9839   17.7672   22.5617 H   0  0  0  0  0  0  0  0  0  0  0  0
   20.3811   19.3228   21.8470 H   0  0  0  0  0  0  0  0  0  0  0  0
   21.7590   18.6919   23.3814 C   0  0  1  0  0  0  0  0  0  0  0  0
   22.3828   18.1926   22.6335 H   0  0  0  0  0  0  0  0  0  0  0  0
   22.3654   20.0821   23.6408 C   0  0  0  0  0  0  0  0  0  0  0  0
   21.8423   20.6078   24.4485 H   0  0  0  0  0  0  0  0  0  0  0  0
   22.3166   20.7033   22.7378 H   0  0  0  0  0  0  0  0  0  0  0  0
   23.4206   19.9933   23.9268 H   0  0  0  0  0  0  0  0  0  0  0  0
   21.8257   17.8355   24.6162 N   0  3  0  0  0  0  0  0  0  0  0  0
   22.7884   17.7346   24.9499 H   0  0  0  0  0  0  0  0  0  0  0  0
   21.2776   18.2393   25.3795 H   0  0  0  0  0  0  0  0  0  0  0  0
   21.4631   16.8942   24.4405 H   0  0  0  0  0  0  0  0  0  0  0  0
  1  2  1  0  0  0  0
  1  3  1  0  0  0  0
  1  4  1  0  0  0  0
  1  5  1  0  0  0  0
  5  6  1  0  0  0  0
  5  7  1  0  0  0  0
  5  8  1  0  0  0  0
  8  9  1  0  0  0  0
  8 10  1  0  0  0  0
  8 11  1  0  0  0  0
 11 12  1  0  0  0  0
 11 13  1  0  0  0  0
 11 14  1  0  0  0  0
 14 15  1  0  0  0  0
 14 16  1  0  0  0  0
 14 17  1  0  0  0  0
 17 18  1  0  0  0  0
 17 19  1  0  0  0  0
 19 20  1  0  0  0  0
 19 21  1  0  0  0  0
 19 22  1  0  0  0  0
 17 23  1  0  0  0  0
 23 24  1  0  0  0  0
 23 25  1  0  0  0  0
 23 26  1  0  0  0  0
M  END
> <VConfSearch Rank>
539

> <Conf_Id>
105

> <Delta U+W>
3.442

> <U+W>
-26.857

> <U>
27.313

> <W>
-54.169

> <W(PB)>
-56.414

> <W(SA)>
2.245

> <Valence>
6.229

> <Coulomb>
19.943

> <VdW>
1.140

> <VdW6>
-9.001

> <VdW12>
10.140

> <Bond>
0.294

> <Angle>
1.969

> <Pdih>
3.967

> <Idih>
0.000

> <Tether>
0.000

$$$$
VeraChem MOL file


 26 25  0  0  0  0  0  0  0  0999 V2000     
   21.7795   18.1240   20.8614 C   0  0  0  0  0  0  0  0  0  0  0  0
   22.6857   17.6265   21.2305 H   0  0  0  0  0  0  0  0  0  0  0  0
   21.8990   18.2733   19.7805 H   0  0  0  0  0  0  0  0  0  0  0  0
   21.7241   19.1135   21.3279 H   0  0  0  0  0  0  0  0  0  0  0  0
   20.5235   17.2699   21.1530 C   0  0  0  0  0  0  0  0  0  0  0  0
   20.6371   16.3121   20.6262 H   0  0  0  0  0  0  0  0  0  0  0  0
   19.6301   17.7457   20.7250 H   0  0  0  0  0  0  0  0  0  0  0  0
   20.3099   16.9801   22.6611 C   0  0  0  0  0  0  0  0  0  0  0  0
   19.8798   15.9734   22.7572 H   0  0  0  0  0  0  0  0  0  0  0  0
   21.2768   16.9387   23.1811 H   0  0  0  0  0  0  0  0  0  0  0  0
   19.3553   17.9646   23.3848 C   0  0  0  0  0  0  0  0  0  0  0  0
   19.2224   17.6166   24.4186 H   0  0  0  0  0  0  0  0  0  0  0  0
   18.3648   17.9143   22.9132 H   0  0  0  0  0  0  0  0  0  0  0  0
   19.8523   19.4311   23.4089 C   0  0  0  0  0  0  0  0  0  0  0  0
   20.8970   19.4481   23.7464 H   0  0  0  0  0  0  0  0  0  0  0  0
   19.8354   19.8471   22.3938 H   0  0  0  0  0  0  0  0  0  0  0  0
   19.0129   20.3331   24.3392 C   0  0  1  0  0  0  0  0  0  0  0  0
   19.0249   19.8961   25.3425 H   0  0  0  0  0  0  0  0  0  0  0  0
   19.6284   21.7393   24.4181 C   0  0  0  0  0  0  0  0  0  0  0  0
   19.6379   22.2245   23.4340 H   0  0  0  0  0  0  0  0  0  0  0  0
   20.6610   21.6927   24.7859 H   0  0  0  0  0  0  0  0  0  0  0  0
   19.0583   22.3746   25.1070 H   0  0  0  0  0  0  0  0  0  0  0  0
   17.5707   20.4100   23.9178 N   0  3  0  0  0  0  0  0  0  0  0  0
   17.1362   19.4835   23.9019 H   0  0  0  0  0  0  0  0  0  0  0  0
   17.0244   20.9933   24.5579 H   0  0  0  0  0  0  0  0  0  0  0  0
   17.4762   20.8114   22.9812 H   0  0  0  0  0  0  0  0  0  0  0  0
  1  2  1  0  0  0  0
  1  3  1  0  0  0  0
  1  4  1  0  0  0  0
  1  5  1  0  0  0  0
  5  6  1  0  0  0  0
  5  7  1  0  0  0  0
  5  8  1  0  0  0  0
  8  9  1  0  0  0  0
  8 10  1  0  0  0  0
  8 11  1  0  0  0  0
 11 12  1  0  0  0  0
 11 13  1  0  0  0  0
 11 14  1  0  0  0  0
 14 15  1  0  0  0  0
 14 16  1  0  0  0  0
 14 17  1  0  0  0  0
 17 18  1  0  0  0  0
 17 19  1  0  0  0  0
 19 20  1  0  0  0  0
 19 21  1  0  0  0  0
 19 22  1  0  0  0  0
 17 23  1  0  0  0  0
 23 24  1  0  0  0  0
 23 25  1  0  0  0  0
 23 26  1  0  0  0  0
M  END
> <VConfSearch Rank>
540

> <Conf_Id>
107

> <Delta U+W>
2.995

> <U+W>
-27.304

> <U>
26.796

> <W>
-54.100

> <W(PB)>
-56.404

> <W(SA)>
2.304

> <Valence>
5.706

> <Coulomb>
20.107

> <VdW>
0.982

> <VdW6>
-8.396

> <VdW12>
9.378

> <Bond>
0.254

> <Angle>
1.644

> <Pdih>
3.808

> <Idih>
0.000

> <Tether>
0.000

$$$$
VeraChem MOL file


 26 25  0  0  0  0  0  0  0  0999 V2000     
   16.9807   20.9212   25.4372 C   0  0  0  0  0  0  0  0  0  0  0  0
   16.3162   20.0544   25.5485 H   0  0  0  0  0  0  0  0  0  0  0  0
   16.9642   21.4817   26.3809 H   0  0  0  0  0  0  0  0  0  0  0  0
   16.5685   21.5694   24.6529 H   0  0  0  0  0  0  0  0  0  0  0  0
   18.4181   20.4776   25.0917 C   0  0  0  0  0  0  0  0  0  0  0  0
   18.8152   19.8595   25.9092 H   0  0  0  0  0  0  0  0  0  0  0  0
   19.0654   21.3630   25.0205 H   0  0  0  0  0  0  0  0  0  0  0  0
   18.4695   19.6856   23.7665 C   0  0  0  0  0  0  0  0  0  0  0  0
   17.8181   18.8038   23.8420 H   0  0  0  0  0  0  0  0  0  0  0  0
   18.0700   20.3069   22.9529 H   0  0  0  0  0  0  0  0  0  0  0  0
   19.9073   19.2390   23.4174 C   0  0  0  0  0  0  0  0  0  0  0  0
   20.3042   18.6148   24.2303 H   0  0  0  0  0  0  0  0  0  0  0  0
   20.5526   20.1250   23.3505 H   0  0  0  0  0  0  0  0  0  0  0  0
   19.9556   18.4468   22.0882 C   0  0  0  0  0  0  0  0  0  0  0  0
   19.2630   17.5972   22.1562 H   0  0  0  0  0  0  0  0  0  0  0  0
   19.5959   19.0791   21.2655 H   0  0  0  0  0  0  0  0  0  0  0  0
   21.3659   17.9134   21.7551 C   0  0  1  0  0  0  0  0  0  0  0  0
   21.7112   17.3073   22.5984 H   0  0  0  0  0  0  0  0  0  0  0  0
   21.3177   17.0190   20.5060 C   0  0  0  0  0  0  0  0  0  0  0  0
   20.9778   17.5817   19.6275 H   0  0  0  0  0  0  0  0  0  0  0  0
   20.6331   16.1749   20.6569 H   0  0  0  0  0  0  0  0  0  0  0  0
   22.3099   16.6067   20.2850 H   0  0  0  0  0  0  0  0  0  0  0  0
   22.3719   19.0174   21.5747 N   0  3  0  0  0  0  0  0  0  0  0  0
   22.1147   19.6340   20.7994 H   0  0  0  0  0  0  0  0  0  0  0  0
   22.4487   19.5950   22.4160 H   0  0  0  0  0  0  0  0  0  0  0  0
   23.3042   18.6448   21.3735 H   0  0  0  0  0  0  0  0  0  0  0  0
  1  2  1  0  0  0  0
  1  3  1  0  0  0  0
  1  4  1  0  0  0  0
  1  5  1  0  0  0  0
  5  6  1  0  0  0  0
  5  7  1  0  0  0  0
  5  8  1  0  0  0  0
  8  9  1  0  0  0  0
  8 10  1  0  0  0  0
  8 11  1  0  0  0  0
 11 12  1  0  0  0  0
 11 13  1  0  0  0  0
 11 14  1  0  0  0  0
 14 15  1  0  0  0  0
 14 16  1  0  0  0  0
 14 17  1  0  0  0  0
 17 18  1  0  0  0  0
 17 19  1  0  0  0  0
 19 20  1  0  0  0  0
 19 21  1  0  0  0  0
 19 22  1  0  0  0  0
 17 23  1  0  0  0  0
 23 24  1  0  0  0  0
 23 25  1  0  0  0  0
 23 26  1  0  0  0  0
M  END
> <VConfSearch Rank>
541

> <Conf_Id>
122

> <Delta U+W>
0.000

> <U+W>
-30.299

> <U>
23.517

> <W>
-53.816

> <W(PB)>
-56.162

> <W(SA)>
2.346

> <Valence>
2.737

> <Coulomb>
19.862

> <VdW>
0.919

> <VdW6>
-6.793

> <VdW12>
7.712

> <Bond>
0.171

> <Angle>
0.873

> <Pdih>
1.693

> <Idih>
0.000

> <Tether>
0.000

$$$$
VeraChem MOL file


 26 25  0  0  0  0  0  0  0  0999 V2000     
   19.9735   19.9108   18.8232 C   0  0  0  0  0  0  0  0  0  0  0  0
   20.0980   20.7784   18.1622 H   0  0  0  0  0  0  0  0  0  0  0  0
   20.7566   19.1827   18.5746 H   0  0  0  0  0  0  0  0  0  0  0  0
   18.9998   19.4550   18.6011 H   0  0  0  0  0  0  0  0  0  0  0  0
   20.0618   20.3369   20.3040 C   0  0  0  0  0  0  0  0  0  0  0  0
   19.2889   21.0897   20.5133 H   0  0  0  0  0  0  0  0  0  0  0  0
   21.0322   20.8194   20.4872 H   0  0  0  0  0  0  0  0  0  0  0  0
   19.8897   19.1332   21.2568 C   0  0  0  0  0  0  0  0  0  0  0  0
   18.9194   18.6531   21.0688 H   0  0  0  0  0  0  0  0  0  0  0  0
   20.6627   18.3827   21.0409 H   0  0  0  0  0  0  0  0  0  0  0  0
   19.9780   19.5559   22.7409 C   0  0  0  0  0  0  0  0  0  0  0  0
   19.2075   20.3114   22.9431 H   0  0  0  0  0  0  0  0  0  0  0  0
   20.9505   20.0316   22.9293 H   0  0  0  0  0  0  0  0  0  0  0  0
   19.8006   18.3479   23.6935 C   0  0  0  0  0  0  0  0  0  0  0  0
   18.8035   17.9094   23.5541 H   0  0  0  0  0  0  0  0  0  0  0  0
   20.5241   17.5715   23.4114 H   0  0  0  0  0  0  0  0  0  0  0  0
   20.0125   18.6941   25.1853 C   0  0  1  0  0  0  0  0  0  0  0  0
   20.9937   19.1668   25.2917 H   0  0  0  0  0  0  0  0  0  0  0  0
   18.9430   19.6673   25.7130 C   0  0  0  0  0  0  0  0  0  0  0  0
   17.9331   19.2635   25.5691 H   0  0  0  0  0  0  0  0  0  0  0  0
   19.0011   20.6374   25.2062 H   0  0  0  0  0  0  0  0  0  0  0  0
   19.0852   19.8533   26.7848 H   0  0  0  0  0  0  0  0  0  0  0  0
   20.0470   17.4511   26.0307 N   0  3  0  0  0  0  0  0  0  0  0  0
   19.1583   16.9453   25.9895 H   0  0  0  0  0  0  0  0  0  0  0  0
   20.7820   16.8070   25.7250 H   0  0  0  0  0  0  0  0  0  0  0  0
   20.2269   17.6725   27.0142 H   0  0  0  0  0  0  0  0  0  0  0  0
  1  2  1  0  0  0  0
  1  3  1  0  0  0  0
  1  4  1  0  0  0  0
  1  5  1  0  0  0  0
  5  6  1  0  0  0  0
  5  7  1  0  0  0  0
  5  8  1  0  0  0  0
  8  9  1  0  0  0  0
  8 10  1  0  0  0  0
  8 11  1  0  0  0  0
 11 12  1  0  0  0  0
 11 13  1  0  0  0  0
 11 14  1  0  0  0  0
 14 15  1  0  0  0  0
 14 16  1  0  0  0  0
 14 17  1  0  0  0  0
 17 18  1  0  0  0  0
 17 19  1  0  0  0  0
 19 20  1  0  0  0  0
 19 21  1  0  0  0  0
 19 22  1  0  0  0  0
 17 23  1  0  0  0  0
 23 24  1  0  0  0  0
 23 25  1  0  0  0  0
 23 26  1  0  0  0  0
M  END
> <VConfSearch Rank>
542

> <Conf_Id>
54

> <Delta U+W>
0.453

> <U+W>
-29.845

> <U>
23.817

> <W>
-53.663

> <W(PB)>
-56.021

> <W(SA)>
2.358

> <Valence>
3.277

> <Coulomb>
19.492

> <VdW>
1.049

> <VdW6>
-6.949

> <VdW12>
7.998

> <Bond>
0.183

> <Angle>
1.152

> <Pdih>
1.942

> <Idih>
0.000

> <Tether>
0.000

$$$$
VeraChem MOL file


 26 25  0  0  0  0  0  0  0  0999 V2000     
   22.9153   20.6189   21.6908 C   0  0  0  0  0  0  0  0  0  0  0  0
   22.6198   20.3844   20.6600 H   0  0  0  0  0  0  0  0  0  0  0  0
   22.4065   21.5422   21.9930 H   0  0  0  0  0  0  0  0  0  0  0  0
   23.9938   20.8232   21.6917 H   0  0  0  0  0  0  0  0  0  0  0  0
   22.5875   19.4466   22.6437 C   0  0  0  0  0  0  0  0  0  0  0  0
   22.8601   19.7173   23.6734 H   0  0  0  0  0  0  0  0  0  0  0  0
   23.2205   18.5894   22.3743 H   0  0  0  0  0  0  0  0  0  0  0  0
   21.1056   19.0017   22.5920 C   0  0  0  0  0  0  0  0  0  0  0  0
   20.8320   18.7616   21.5553 H   0  0  0  0  0  0  0  0  0  0  0  0
   21.0209   18.0738   23.1699 H   0  0  0  0  0  0  0  0  0  0  0  0
   20.1257   20.0546   23.1687 C   0  0  0  0  0  0  0  0  0  0  0  0
   20.2997   21.0200   22.6773 H   0  0  0  0  0  0  0  0  0  0  0  0
   20.3444   20.2117   24.2339 H   0  0  0  0  0  0  0  0  0  0  0  0
   18.6226   19.7099   22.9963 C   0  0  0  0  0  0  0  0  0  0  0  0
   18.0518   20.5783   23.3515 H   0  0  0  0  0  0  0  0  0  0  0  0
   18.3774   19.6075   21.9309 H   0  0  0  0  0  0  0  0  0  0  0  0
   18.1481   18.4566   23.7700 C   0  0  1  0  0  0  0  0  0  0  0  0
   18.6616   18.4319   24.7361 H   0  0  0  0  0  0  0  0  0  0  0  0
   16.6344   18.5295   24.0317 C   0  0  0  0  0  0  0  0  0  0  0  0
   16.2942   17.6507   24.5933 H   0  0  0  0  0  0  0  0  0  0  0  0
   16.0708   18.5739   23.0913 H   0  0  0  0  0  0  0  0  0  0  0  0
   16.3823   19.4180   24.6240 H   0  0  0  0  0  0  0  0  0  0  0  0
   18.4764   17.1723   23.0582 N   0  3  0  0  0  0  0  0  0  0  0  0
   19.4790   17.0893   22.8768 H   0  0  0  0  0  0  0  0  0  0  0  0
   18.1937   16.3568   23.6093 H   0  0  0  0  0  0  0  0  0  0  0  0
   17.9948   17.1135   22.1571 H   0  0  0  0  0  0  0  0  0  0  0  0
  1  2  1  0  0  0  0
  1  3  1  0  0  0  0
  1  4  1  0  0  0  0
  1  5  1  0  0  0  0
  5  6  1  0  0  0  0
  5  7  1  0  0  0  0
  5  8  1  0  0  0  0
  8  9  1  0  0  0  0
  8 10  1  0  0  0  0
  8 11  1  0  0  0  0
 11 12  1  0  0  0  0
 11 13  1  0  0  0  0
 11 14  1  0  0  0  0
 14 15  1  0  0  0  0
 14 16  1  0  0  0  0
 14 17  1  0  0  0  0
 17 18  1  0  0  0  0
 17 19  1  0  0  0  0
 19 20  1  0  0  0  0
 19 21  1  0  0  0  0
 19 22  1  0  0  0  0
 17 23  1  0  0  0  0
 23 24  1  0  0  0  0
 23 25  1  0  0  0  0
 23 26  1  0  0  0  0
M  END
> <VConfSearch Rank>
543

> <Conf_Id>
110

> <Delta U+W>
3.764

> <U+W>
-26.535

> <U>
27.400

> <W>
-53.935

> <W(PB)>
-56.238

> <W(SA)>
2.303

> <Valence>
5.205

> <Coulomb>
21.096

> <VdW>
1.098

> <VdW6>
-8.389

> <VdW12>
9.488

> <Bond>
0.270

> <Angle>
1.912

> <Pdih>
3.023

> <Idih>
0.000

> <Tether>
0.000

$$$$
VeraChem MOL file


 26 25  0  0  0  0  0  0  0  0999 V2000     
   19.9636   15.5094   22.4718 C   0  0  0  0  0  0  0  0  0  0  0  0
   20.4961   14.5602   22.6144 H   0  0  0  0  0  0  0  0  0  0  0  0
   19.2595   15.6207   23.3057 H   0  0  0  0  0  0  0  0  0  0  0  0
   19.3864   15.4339   21.5411 H   0  0  0  0  0  0  0  0  0  0  0  0
   20.9634   16.6865   22.4119 C   0  0  0  0  0  0  0  0  0  0  0  0
   21.7188   16.4708   21.6435 H   0  0  0  0  0  0  0  0  0  0  0  0
   21.5063   16.7587   23.3647 H   0  0  0  0  0  0  0  0  0  0  0  0
   20.2970   18.0449   22.0858 C   0  0  0  0  0  0  0  0  0  0  0  0
   21.0874   18.7930   21.9510 H   0  0  0  0  0  0  0  0  0  0  0  0
   19.7794   17.9739   21.1192 H   0  0  0  0  0  0  0  0  0  0  0  0
   19.2982   18.5171   23.1737 C   0  0  0  0  0  0  0  0  0  0  0  0
   19.7601   18.4640   24.1692 H   0  0  0  0  0  0  0  0  0  0  0  0
   18.4506   17.8192   23.1944 H   0  0  0  0  0  0  0  0  0  0  0  0
   18.7427   19.9436   22.9194 C   0  0  0  0  0  0  0  0  0  0  0  0
   18.7567   20.1724   21.8454 H   0  0  0  0  0  0  0  0  0  0  0  0
   17.6842   19.9479   23.2117 H   0  0  0  0  0  0  0  0  0  0  0  0
   19.4495   21.0671   23.7156 C   0  0  1  0  0  0  0  0  0  0  0  0
   19.3752   20.8268   24.7807 H   0  0  0  0  0  0  0  0  0  0  0  0
   20.9392   21.2061   23.3590 C   0  0  0  0  0  0  0  0  0  0  0  0
   21.0773   21.3653   22.2823 H   0  0  0  0  0  0  0  0  0  0  0  0
   21.4998   20.3117   23.6545 H   0  0  0  0  0  0  0  0  0  0  0  0
   21.3861   22.0563   23.8889 H   0  0  0  0  0  0  0  0  0  0  0  0
   18.7463   22.3833   23.5306 N   0  3  0  0  0  0  0  0  0  0  0  0
   17.7624   22.3280   23.8090 H   0  0  0  0  0  0  0  0  0  0  0  0
   19.1801   23.1214   24.0923 H   0  0  0  0  0  0  0  0  0  0  0  0
   18.7729   22.6878   22.5539 H   0  0  0  0  0  0  0  0  0  0  0  0
  1  2  1  0  0  0  0
  1  3  1  0  0  0  0
  1  4  1  0  0  0  0
  1  5  1  0  0  0  0
  5  6  1  0  0  0  0
  5  7  1  0  0  0  0
  5  8  1  0  0  0  0
  8  9  1  0  0  0  0
  8 10  1  0  0  0  0
  8 11  1  0  0  0  0
 11 12  1  0  0  0  0
 11 13  1  0  0  0  0
 11 14  1  0  0  0  0
 14 15  1  0  0  0  0
 14 16  1  0  0  0  0
 14 17  1  0  0  0  0
 17 18  1  0  0  0  0
 17 19  1  0  0  0  0
 19 20  1  0  0  0  0
 19 21  1  0  0  0  0
 19 22  1  0  0  0  0
 17 23  1  0  0  0  0
 23 24  1  0  0  0  0
 23 25  1  0  0  0  0
 23 26  1  0  0  0  0
M  END
> <VConfSearch Rank>
544

> <Conf_Id>
34

> <Delta U+W>
3.568

> <U+W>
-26.731

> <U>
27.221

> <W>
-53.952

> <W(PB)>
-56.213

> <W(SA)>
2.261

> <Valence>
6.368

> <Coulomb>
19.698

> <VdW>
1.155

> <VdW6>
-8.532

> <VdW12>
9.687

> <Bond>
0.272

> <Angle>
1.847

> <Pdih>
4.248

> <Idih>
0.000

> <Tether>
0.000

$$$$
VeraChem MOL file


 26 25  0  0  0  0  0  0  0  0999 V2000     
   17.8431   15.5451   22.7633 C   0  0  0  0  0  0  0  0  0  0  0  0
   17.0552   15.7659   23.4951 H   0  0  0  0  0  0  0  0  0  0  0  0
   17.4159   15.6532   21.7578 H   0  0  0  0  0  0  0  0  0  0  0  0
   18.1388   14.4958   22.8927 H   0  0  0  0  0  0  0  0  0  0  0  0
   19.0558   16.4805   22.9544 C   0  0  0  0  0  0  0  0  0  0  0  0
   19.8395   16.2134   22.2316 H   0  0  0  0  0  0  0  0  0  0  0  0
   19.4816   16.3252   23.9556 H   0  0  0  0  0  0  0  0  0  0  0  0
   18.6666   17.9650   22.7773 C   0  0  0  0  0  0  0  0  0  0  0  0
   18.2392   18.1141   21.7760 H   0  0  0  0  0  0  0  0  0  0  0  0
   17.8812   18.2261   23.5001 H   0  0  0  0  0  0  0  0  0  0  0  0
   19.8782   18.9052   22.9682 C   0  0  0  0  0  0  0  0  0  0  0  0
   20.6592   18.6375   22.2444 H   0  0  0  0  0  0  0  0  0  0  0  0
   20.3003   18.7451   23.9690 H   0  0  0  0  0  0  0  0  0  0  0  0
   19.4800   20.3939   22.7920 C   0  0  0  0  0  0  0  0  0  0  0  0
   19.0148   20.5284   21.8067 H   0  0  0  0  0  0  0  0  0  0  0  0
   18.7073   20.6523   23.5282 H   0  0  0  0  0  0  0  0  0  0  0  0
   20.6471   21.4010   22.9226 C   0  0  1  0  0  0  0  0  0  0  0  0
   20.2352   22.3998   22.7480 H   0  0  0  0  0  0  0  0  0  0  0  0
   21.2639   21.3927   24.3323 C   0  0  0  0  0  0  0  0  0  0  0  0
   21.7833   20.4503   24.5427 H   0  0  0  0  0  0  0  0  0  0  0  0
   20.4909   21.5380   25.0970 H   0  0  0  0  0  0  0  0  0  0  0  0
   21.9919   22.2065   24.4369 H   0  0  0  0  0  0  0  0  0  0  0  0
   21.7029   21.1963   21.8711 N   0  3  0  0  0  0  0  0  0  0  0  0
   22.4352   21.9094   21.9325 H   0  0  0  0  0  0  0  0  0  0  0  0
   22.1544   20.2838   21.9701 H   0  0  0  0  0  0  0  0  0  0  0  0
   21.3079   21.2446   20.9277 H   0  0  0  0  0  0  0  0  0  0  0  0
  1  2  1  0  0  0  0
  1  3  1  0  0  0  0
  1  4  1  0  0  0  0
  1  5  1  0  0  0  0
  5  6  1  0  0  0  0
  5  7  1  0  0  0  0
  5  8  1  0  0  0  0
  8  9  1  0  0  0  0
  8 10  1  0  0  0  0
  8 11  1  0  0  0  0
 11 12  1  0  0  0  0
 11 13  1  0  0  0  0
 11 14  1  0  0  0  0
 14 15  1  0  0  0  0
 14 16  1  0  0  0  0
 14 17  1  0  0  0  0
 17 18  1  0  0  0  0
 17 19  1  0  0  0  0
 19 20  1  0  0  0  0
 19 21  1  0  0  0  0
 19 22  1  0  0  0  0
 17 23  1  0  0  0  0
 23 24  1  0  0  0  0
 23 25  1  0  0  0  0
 23 26  1  0  0  0  0
M  END
> <VConfSearch Rank>
545

> <Conf_Id>
132

> <Delta U+W>
0.363

> <U+W>
-29.936

> <U>
24.060

> <W>
-53.996

> <W(PB)>
-56.327

> <W(SA)>
2.332

> <Valence>
3.249

> <Coulomb>
19.781

> <VdW>
1.030

> <VdW6>
-7.421

> <VdW12>
8.451

> <Bond>
0.207

> <Angle>
1.205

> <Pdih>
1.837

> <Idih>
0.000

> <Tether>
0.000

$$$$
VeraChem MOL file


 26 25  0  0  0  0  0  0  0  0999 V2000     
   22.8710   21.5138   23.6806 C   0  0  0  0  0  0  0  0  0  0  0  0
   23.4294   21.5348   24.6255 H   0  0  0  0  0  0  0  0  0  0  0  0
   23.5961   21.4063   22.8634 H   0  0  0  0  0  0  0  0  0  0  0  0
   22.3669   22.4822   23.5654 H   0  0  0  0  0  0  0  0  0  0  0  0
   21.8521   20.3544   23.6753 C   0  0  0  0  0  0  0  0  0  0  0  0
   21.1726   20.4750   24.5292 H   0  0  0  0  0  0  0  0  0  0  0  0
   22.3827   19.4031   23.8214 H   0  0  0  0  0  0  0  0  0  0  0  0
   21.0491   20.3077   22.3537 C   0  0  0  0  0  0  0  0  0  0  0  0
   20.4754   21.2372   22.2353 H   0  0  0  0  0  0  0  0  0  0  0  0
   21.7535   20.2718   21.5111 H   0  0  0  0  0  0  0  0  0  0  0  0
   20.0965   19.0913   22.2470 C   0  0  0  0  0  0  0  0  0  0  0  0
   20.6782   18.1668   22.3593 H   0  0  0  0  0  0  0  0  0  0  0  0
   19.6827   19.0761   21.2305 H   0  0  0  0  0  0  0  0  0  0  0  0
   18.9370   19.1238   23.2801 C   0  0  0  0  0  0  0  0  0  0  0  0
   19.3488   19.1070   24.2964 H   0  0  0  0  0  0  0  0  0  0  0  0
   18.3945   20.0741   23.1884 H   0  0  0  0  0  0  0  0  0  0  0  0
   17.9250   17.9596   23.1594 C   0  0  1  0  0  0  0  0  0  0  0  0
   17.2019   18.0734   23.9730 H   0  0  0  0  0  0  0  0  0  0  0  0
   17.1421   18.0045   21.8353 C   0  0  0  0  0  0  0  0  0  0  0  0
   17.7868   17.7943   20.9738 H   0  0  0  0  0  0  0  0  0  0  0  0
   16.6806   18.9888   21.6881 H   0  0  0  0  0  0  0  0  0  0  0  0
   16.3382   17.2584   21.8406 H   0  0  0  0  0  0  0  0  0  0  0  0
   18.5695   16.6155   23.3596 N   0  3  0  0  0  0  0  0  0  0  0  0
   19.0536   16.5614   24.2603 H   0  0  0  0  0  0  0  0  0  0  0  0
   17.8770   15.8616   23.3390 H   0  0  0  0  0  0  0  0  0  0  0  0
   19.2570   16.4206   22.6277 H   0  0  0  0  0  0  0  0  0  0  0  0
  1  2  1  0  0  0  0
  1  3  1  0  0  0  0
  1  4  1  0  0  0  0
  1  5  1  0  0  0  0
  5  6  1  0  0  0  0
  5  7  1  0  0  0  0
  5  8  1  0  0  0  0
  8  9  1  0  0  0  0
  8 10  1  0  0  0  0
  8 11  1  0  0  0  0
 11 12  1  0  0  0  0
 11 13  1  0  0  0  0
 11 14  1  0  0  0  0
 14 15  1  0  0  0  0
 14 16  1  0  0  0  0
 14 17  1  0  0  0  0
 17 18  1  0  0  0  0
 17 19  1  0  0  0  0
 19 20  1  0  0  0  0
 19 21  1  0  0  0  0
 19 22  1  0  0  0  0
 17 23  1  0  0  0  0
 23 24  1  0  0  0  0
 23 25  1  0  0  0  0
 23 26  1  0  0  0  0
M  END
> <VConfSearch Rank>
546

> <Conf_Id>
46

> <Delta U+W>
1.114

> <U+W>
-29.185

> <U>
24.990

> <W>
-54.175

> <W(PB)>
-56.455

> <W(SA)>
2.279

> <Valence>
3.862

> <Coulomb>
19.956

> <VdW>
1.172

> <VdW6>
-8.054

> <VdW12>
9.226

> <Bond>
0.258

> <Angle>
1.499

> <Pdih>
2.106

> <Idih>
0.000

> <Tether>
0.000

$$$$
VeraChem MOL file


 26 25  0  0  0  0  0  0  0  0999 V2000     
   17.7933   16.2689   21.9378 C   0  0  0  0  0  0  0  0  0  0  0  0
   17.1893   17.0987   21.5507 H   0  0  0  0  0  0  0  0  0  0  0  0
   18.4597   15.9244   21.1364 H   0  0  0  0  0  0  0  0  0  0  0  0
   17.1068   15.4471   22.1795 H   0  0  0  0  0  0  0  0  0  0  0  0
   18.5983   16.6862   23.1895 C   0  0  0  0  0  0  0  0  0  0  0  0
   19.0818   15.7939   23.6113 H   0  0  0  0  0  0  0  0  0  0  0  0
   17.9124   17.0584   23.9633 H   0  0  0  0  0  0  0  0  0  0  0  0
   19.6863   17.7481   22.8984 C   0  0  0  0  0  0  0  0  0  0  0  0
   20.2833   17.8812   23.8100 H   0  0  0  0  0  0  0  0  0  0  0  0
   20.3741   17.3664   22.1313 H   0  0  0  0  0  0  0  0  0  0  0  0
   19.1091   19.1146   22.4492 C   0  0  0  0  0  0  0  0  0  0  0  0
   18.3993   19.4842   23.2009 H   0  0  0  0  0  0  0  0  0  0  0  0
   18.5313   18.9817   21.5254 H   0  0  0  0  0  0  0  0  0  0  0  0
   20.2021   20.1810   22.1800 C   0  0  0  0  0  0  0  0  0  0  0  0
   20.8459   19.8279   21.3634 H   0  0  0  0  0  0  0  0  0  0  0  0
   19.7224   21.0994   21.8163 H   0  0  0  0  0  0  0  0  0  0  0  0
   21.0818   20.5169   23.4054 C   0  0  1  0  0  0  0  0  0  0  0  0
   21.5728   19.5986   23.7403 H   0  0  0  0  0  0  0  0  0  0  0  0
   22.1729   21.5280   23.0189 C   0  0  0  0  0  0  0  0  0  0  0  0
   22.8258   21.7406   23.8744 H   0  0  0  0  0  0  0  0  0  0  0  0
   21.7349   22.4751   22.6796 H   0  0  0  0  0  0  0  0  0  0  0  0
   22.8013   21.1332   22.2108 H   0  0  0  0  0  0  0  0  0  0  0  0
   20.2755   21.0260   24.5687 N   0  3  0  0  0  0  0  0  0  0  0  0
   19.5707   20.3430   24.8593 H   0  0  0  0  0  0  0  0  0  0  0  0
   20.8691   21.2197   25.3802 H   0  0  0  0  0  0  0  0  0  0  0  0
   19.7863   21.8932   24.3324 H   0  0  0  0  0  0  0  0  0  0  0  0
  1  2  1  0  0  0  0
  1  3  1  0  0  0  0
  1  4  1  0  0  0  0
  1  5  1  0  0  0  0
  5  6  1  0  0  0  0
  5  7  1  0  0  0  0
  5  8  1  0  0  0  0
  8  9  1  0  0  0  0
  8 10  1  0  0  0  0
  8 11  1  0  0  0  0
 11 12  1  0  0  0  0
 11 13  1  0  0  0  0
 11 14  1  0  0  0  0
 14 15  1  0  0  0  0
 14 16  1  0  0  0  0
 14 17  1  0  0  0  0
 17 18  1  0  0  0  0
 17 19  1  0  0  0  0
 19 20  1  0  0  0  0
 19 21  1  0  0  0  0
 19 22  1  0  0  0  0
 17 23  1  0  0  0  0
 23 24  1  0  0  0  0
 23 25  1  0  0  0  0
 23 26  1  0  0  0  0
M  END
> <VConfSearch Rank>
547

> <Conf_Id>
113

> <Delta U+W>
1.137

> <U+W>
-29.162

> <U>
24.833

> <W>
-53.995

> <W(PB)>
-56.288

> <W(SA)>
2.294

> <Valence>
3.589

> <Coulomb>
20.270

> <VdW>
0.974

> <VdW6>
-8.255

> <VdW12>
9.229

> <Bond>
0.244

> <Angle>
1.377

> <Pdih>
1.967

> <Idih>
0.000

> <Tether>
0.000

$$$$
VeraChem MOL file


 26 25  0  0  0  0  0  0  0  0999 V2000     
   19.7346   16.3427   25.7022 C   0  0  0  0  0  0  0  0  0  0  0  0
   18.8197   15.8828   26.0975 H   0  0  0  0  0  0  0  0  0  0  0  0
   20.3042   15.5640   25.1783 H   0  0  0  0  0  0  0  0  0  0  0  0
   20.3330   16.6888   26.5550 H   0  0  0  0  0  0  0  0  0  0  0  0
   19.3914   17.5111   24.7538 C   0  0  0  0  0  0  0  0  0  0  0  0
   18.7975   18.2589   25.2977 H   0  0  0  0  0  0  0  0  0  0  0  0
   18.7599   17.1337   23.9387 H   0  0  0  0  0  0  0  0  0  0  0  0
   20.6666   18.1729   24.1801 C   0  0  0  0  0  0  0  0  0  0  0  0
   21.3197   18.4694   25.0126 H   0  0  0  0  0  0  0  0  0  0  0  0
   21.2330   17.4377   23.5918 H   0  0  0  0  0  0  0  0  0  0  0  0
   20.3800   19.4233   23.3127 C   0  0  0  0  0  0  0  0  0  0  0  0
   21.3409   19.8874   23.0551 H   0  0  0  0  0  0  0  0  0  0  0  0
   19.8315   20.1592   23.9154 H   0  0  0  0  0  0  0  0  0  0  0  0
   19.5929   19.1031   22.0125 C   0  0  0  0  0  0  0  0  0  0  0  0
   20.0974   18.2893   21.4755 H   0  0  0  0  0  0  0  0  0  0  0  0
   18.5950   18.7256   22.2680 H   0  0  0  0  0  0  0  0  0  0  0  0
   19.4245   20.2982   21.0446 C   0  0  1  0  0  0  0  0  0  0  0  0
   18.8666   19.9361   20.1754 H   0  0  0  0  0  0  0  0  0  0  0  0
   18.6119   21.4423   21.6756 C   0  0  0  0  0  0  0  0  0  0  0  0
   19.1549   21.9178   22.5011 H   0  0  0  0  0  0  0  0  0  0  0  0
   17.6536   21.0732   22.0615 H   0  0  0  0  0  0  0  0  0  0  0  0
   18.3939   22.2154   20.9287 H   0  0  0  0  0  0  0  0  0  0  0  0
   20.7398   20.7996   20.5144 N   0  3  0  0  0  0  0  0  0  0  0  0
   21.2687   20.0530   20.0546 H   0  0  0  0  0  0  0  0  0  0  0  0
   20.6058   21.5468   19.8272 H   0  0  0  0  0  0  0  0  0  0  0  0
   21.3249   21.1748   21.2647 H   0  0  0  0  0  0  0  0  0  0  0  0
  1  2  1  0  0  0  0
  1  3  1  0  0  0  0
  1  4  1  0  0  0  0
  1  5  1  0  0  0  0
  5  6  1  0  0  0  0
  5  7  1  0  0  0  0
  5  8  1  0  0  0  0
  8  9  1  0  0  0  0
  8 10  1  0  0  0  0
  8 11  1  0  0  0  0
 11 12  1  0  0  0  0
 11 13  1  0  0  0  0
 11 14  1  0  0  0  0
 14 15  1  0  0  0  0
 14 16  1  0  0  0  0
 14 17  1  0  0  0  0
 17 18  1  0  0  0  0
 17 19  1  0  0  0  0
 19 20  1  0  0  0  0
 19 21  1  0  0  0  0
 19 22  1  0  0  0  0
 17 23  1  0  0  0  0
 23 24  1  0  0  0  0
 23 25  1  0  0  0  0
 23 26  1  0  0  0  0
M  END
> <VConfSearch Rank>
548

> <Conf_Id>
45

> <Delta U+W>
1.035

> <U+W>
-29.264

> <U>
24.725

> <W>
-53.989

> <W(PB)>
-56.298

> <W(SA)>
2.309

> <Valence>
3.780

> <Coulomb>
19.804

> <VdW>
1.141

> <VdW6>
-8.104

> <VdW12>
9.246

> <Bond>
0.254

> <Angle>
1.437

> <Pdih>
2.089

> <Idih>
0.000

> <Tether>
0.000

$$$$
VeraChem MOL file


 26 25  0  0  0  0  0  0  0  0999 V2000     
   19.9578   16.9735   26.2837 C   0  0  0  0  0  0  0  0  0  0  0  0
   19.7911   17.3849   27.2877 H   0  0  0  0  0  0  0  0  0  0  0  0
   19.3709   16.0498   26.1968 H   0  0  0  0  0  0  0  0  0  0  0  0
   21.0208   16.7126   26.1986 H   0  0  0  0  0  0  0  0  0  0  0  0
   19.5494   17.9953   25.2014 C   0  0  0  0  0  0  0  0  0  0  0  0
   20.1270   18.9173   25.3478 H   0  0  0  0  0  0  0  0  0  0  0  0
   18.4901   18.2581   25.3304 H   0  0  0  0  0  0  0  0  0  0  0  0
   19.7801   17.4385   23.7764 C   0  0  0  0  0  0  0  0  0  0  0  0
   20.8485   17.2289   23.6287 H   0  0  0  0  0  0  0  0  0  0  0  0
   19.2619   16.4739   23.6838 H   0  0  0  0  0  0  0  0  0  0  0  0
   19.2737   18.3752   22.6518 C   0  0  0  0  0  0  0  0  0  0  0  0
   18.2048   18.5823   22.8000 H   0  0  0  0  0  0  0  0  0  0  0  0
   19.3548   17.8353   21.6993 H   0  0  0  0  0  0  0  0  0  0  0  0
   20.0568   19.7104   22.5586 C   0  0  0  0  0  0  0  0  0  0  0  0
   19.9538   20.2580   23.5034 H   0  0  0  0  0  0  0  0  0  0  0  0
   21.1276   19.5050   22.4288 H   0  0  0  0  0  0  0  0  0  0  0  0
   19.5607   20.6207   21.4138 C   0  0  1  0  0  0  0  0  0  0  0  0
   18.4861   20.7812   21.5446 H   0  0  0  0  0  0  0  0  0  0  0  0
   20.2631   21.9867   21.4750 C   0  0  0  0  0  0  0  0  0  0  0  0
   21.3479   21.8814   21.3485 H   0  0  0  0  0  0  0  0  0  0  0  0
   20.0776   22.4780   22.4383 H   0  0  0  0  0  0  0  0  0  0  0  0
   19.8898   22.6511   20.6860 H   0  0  0  0  0  0  0  0  0  0  0  0
   19.7440   19.9960   20.0574 N   0  3  0  0  0  0  0  0  0  0  0  0
   19.2425   19.1070   19.9834 H   0  0  0  0  0  0  0  0  0  0  0  0
   19.3941   20.6069   19.3139 H   0  0  0  0  0  0  0  0  0  0  0  0
   20.7313   19.8105   19.8620 H   0  0  0  0  0  0  0  0  0  0  0  0
  1  2  1  0  0  0  0
  1  3  1  0  0  0  0
  1  4  1  0  0  0  0
  1  5  1  0  0  0  0
  5  6  1  0  0  0  0
  5  7  1  0  0  0  0
  5  8  1  0  0  0  0
  8  9  1  0  0  0  0
  8 10  1  0  0  0  0
  8 11  1  0  0  0  0
 11 12  1  0  0  0  0
 11 13  1  0  0  0  0
 11 14  1  0  0  0  0
 14 15  1  0  0  0  0
 14 16  1  0  0  0  0
 14 17  1  0  0  0  0
 17 18  1  0  0  0  0
 17 19  1  0  0  0  0
 19 20  1  0  0  0  0
 19 21  1  0  0  0  0
 19 22  1  0  0  0  0
 17 23  1  0  0  0  0
 23 24  1  0  0  0  0
 23 25  1  0  0  0  0
 23 26  1  0  0  0  0
M  END
> <VConfSearch Rank>
549

> <Conf_Id>
121

> <Delta U+W>
0.736

> <U+W>
-29.562

> <U>
24.282

> <W>
-53.844

> <W(PB)>
-56.205

> <W(SA)>
2.361

> <Valence>
3.311

> <Coulomb>
19.887

> <VdW>
1.083

> <VdW6>
-7.444

> <VdW12>
8.527

> <Bond>
0.219

> <Angle>
1.167

> <Pdih>
1.926

> <Idih>
0.000

> <Tether>
0.000

$$$$
VeraChem MOL file


 26 25  0  0  0  0  0  0  0  0999 V2000     
   22.5254   21.6412   23.1160 C   0  0  0  0  0  0  0  0  0  0  0  0
   23.3382   22.2071   22.6427 H   0  0  0  0  0  0  0  0  0  0  0  0
   22.0228   22.3082   23.8284 H   0  0  0  0  0  0  0  0  0  0  0  0
   22.9823   20.8178   23.6786 H   0  0  0  0  0  0  0  0  0  0  0  0
   21.5362   21.1211   22.0483 C   0  0  0  0  0  0  0  0  0  0  0  0
   22.0545   20.4300   21.3689 H   0  0  0  0  0  0  0  0  0  0  0  0
   21.2062   21.9685   21.4311 H   0  0  0  0  0  0  0  0  0  0  0  0
   20.2880   20.4291   22.6474 C   0  0  0  0  0  0  0  0  0  0  0  0
   19.7691   21.1269   23.3190 H   0  0  0  0  0  0  0  0  0  0  0  0
   19.5920   20.2142   21.8260 H   0  0  0  0  0  0  0  0  0  0  0  0
   20.6150   19.1180   23.4064 C   0  0  0  0  0  0  0  0  0  0  0  0
   21.2988   19.3363   24.2368 H   0  0  0  0  0  0  0  0  0  0  0  0
   21.1549   18.4287   22.7440 H   0  0  0  0  0  0  0  0  0  0  0  0
   19.3596   18.4211   23.9926 C   0  0  0  0  0  0  0  0  0  0  0  0
   19.6739   17.5204   24.5364 H   0  0  0  0  0  0  0  0  0  0  0  0
   18.9120   19.0876   24.7417 H   0  0  0  0  0  0  0  0  0  0  0  0
   18.2740   18.0379   22.9588 C   0  0  1  0  0  0  0  0  0  0  0  0
   17.9610   18.9449   22.4335 H   0  0  0  0  0  0  0  0  0  0  0  0
   18.7945   17.0286   21.9199 C   0  0  0  0  0  0  0  0  0  0  0  0
   19.1746   16.1207   22.4045 H   0  0  0  0  0  0  0  0  0  0  0  0
   19.6014   17.4599   21.3161 H   0  0  0  0  0  0  0  0  0  0  0  0
   17.9935   16.7364   21.2298 H   0  0  0  0  0  0  0  0  0  0  0  0
   17.0450   17.5004   23.6380 N   0  3  0  0  0  0  0  0  0  0  0  0
   16.6566   18.1744   24.3040 H   0  0  0  0  0  0  0  0  0  0  0  0
   16.3082   17.2827   22.9611 H   0  0  0  0  0  0  0  0  0  0  0  0
   17.2484   16.6405   24.1544 H   0  0  0  0  0  0  0  0  0  0  0  0
  1  2  1  0  0  0  0
  1  3  1  0  0  0  0
  1  4  1  0  0  0  0
  1  5  1  0  0  0  0
  5  6  1  0  0  0  0
  5  7  1  0  0  0  0
  5  8  1  0  0  0  0
  8  9  1  0  0  0  0
  8 10  1  0  0  0  0
  8 11  1  0  0  0  0
 11 12  1  0  0  0  0
 11 13  1  0  0  0  0
 11 14  1  0  0  0  0
 14 15  1  0  0  0  0
 14 16  1  0  0  0  0
 14 17  1  0  0  0  0
 17 18  1  0  0  0  0
 17 19  1  0  0  0  0
 19 20  1  0  0  0  0
 19 21  1  0  0  0  0
 19 22  1  0  0  0  0
 17 23  1  0  0  0  0
 23 24  1  0  0  0  0
 23 25  1  0  0  0  0
 23 26  1  0  0  0  0
M  END
> <VConfSearch Rank>
550

> <Conf_Id>
5

> <Delta U+W>
1.233

> <U+W>
-29.065

> <U>
25.023

> <W>
-54.088

> <W(PB)>
-56.383

> <W(SA)>
2.296

> <Valence>
4.083

> <Coulomb>
19.893

> <VdW>
1.047

> <VdW6>
-8.479

> <VdW12>
9.527

> <Bond>
0.256

> <Angle>
1.716

> <Pdih>
2.112

> <Idih>
0.000

> <Tether>
0.000

$$$$
VeraChem MOL file


 26 25  0  0  0  0  0  0  0  0999 V2000     
   18.0091   22.0066   21.4977 C   0  0  0  0  0  0  0  0  0  0  0  0
   17.6102   23.0290   21.5194 H   0  0  0  0  0  0  0  0  0  0  0  0
   18.8769   22.0068   20.8270 H   0  0  0  0  0  0  0  0  0  0  0  0
   17.2388   21.3554   21.0645 H   0  0  0  0  0  0  0  0  0  0  0  0
   18.3900   21.5453   22.9230 C   0  0  0  0  0  0  0  0  0  0  0  0
   17.5220   21.6866   23.5820 H   0  0  0  0  0  0  0  0  0  0  0  0
   19.1858   22.1903   23.3210 H   0  0  0  0  0  0  0  0  0  0  0  0
   18.8304   20.0631   22.9963 C   0  0  0  0  0  0  0  0  0  0  0  0
   18.9411   19.7969   24.0554 H   0  0  0  0  0  0  0  0  0  0  0  0
   18.0334   19.4236   22.5925 H   0  0  0  0  0  0  0  0  0  0  0  0
   20.1599   19.7771   22.2544 C   0  0  0  0  0  0  0  0  0  0  0  0
   20.9584   20.3985   22.6827 H   0  0  0  0  0  0  0  0  0  0  0  0
   20.0661   20.0780   21.2032 H   0  0  0  0  0  0  0  0  0  0  0  0
   20.5942   18.2895   22.2873 C   0  0  0  0  0  0  0  0  0  0  0  0
   19.8422   17.6673   21.7837 H   0  0  0  0  0  0  0  0  0  0  0  0
   21.5050   18.1998   21.6806 H   0  0  0  0  0  0  0  0  0  0  0  0
   20.8765   17.7517   23.7113 C   0  0  1  0  0  0  0  0  0  0  0  0
   21.0160   18.6081   24.3781 H   0  0  0  0  0  0  0  0  0  0  0  0
   19.7060   16.9013   24.2381 C   0  0  0  0  0  0  0  0  0  0  0  0
   19.5663   16.0006   23.6272 H   0  0  0  0  0  0  0  0  0  0  0  0
   18.7652   17.4628   24.2294 H   0  0  0  0  0  0  0  0  0  0  0  0
   19.8933   16.5842   25.2714 H   0  0  0  0  0  0  0  0  0  0  0  0
   22.1555   16.9622   23.7712 N   0  3  0  0  0  0  0  0  0  0  0  0
   22.9583   17.5224   23.4703 H   0  0  0  0  0  0  0  0  0  0  0  0
   22.3507   16.6379   24.7227 H   0  0  0  0  0  0  0  0  0  0  0  0
   22.1138   16.1353   23.1695 H   0  0  0  0  0  0  0  0  0  0  0  0
  1  2  1  0  0  0  0
  1  3  1  0  0  0  0
  1  4  1  0  0  0  0
  1  5  1  0  0  0  0
  5  6  1  0  0  0  0
  5  7  1  0  0  0  0
  5  8  1  0  0  0  0
  8  9  1  0  0  0  0
  8 10  1  0  0  0  0
  8 11  1  0  0  0  0
 11 12  1  0  0  0  0
 11 13  1  0  0  0  0
 11 14  1  0  0  0  0
 14 15  1  0  0  0  0
 14 16  1  0  0  0  0
 14 17  1  0  0  0  0
 17 18  1  0  0  0  0
 17 19  1  0  0  0  0
 19 20  1  0  0  0  0
 19 21  1  0  0  0  0
 19 22  1  0  0  0  0
 17 23  1  0  0  0  0
 23 24  1  0  0  0  0
 23 25  1  0  0  0  0
 23 26  1  0  0  0  0
M  END
> <VConfSearch Rank>
551

> <Conf_Id>
100

> <Delta U+W>
3.818

> <U+W>
-26.481

> <U>
27.496

> <W>
-53.977

> <W(PB)>
-56.267

> <W(SA)>
2.290

> <Valence>
6.472

> <Coulomb>
19.839

> <VdW>
1.185

> <VdW6>
-8.405

> <VdW12>
9.590

> <Bond>
0.248

> <Angle>
1.619

> <Pdih>
4.604

> <Idih>
0.000

> <Tether>
0.000

$$$$
VeraChem MOL file


 26 25  0  0  0  0  0  0  0  0999 V2000     
   20.6136   22.0019   25.0952 C   0  0  0  0  0  0  0  0  0  0  0  0
   20.3737   23.0675   25.2046 H   0  0  0  0  0  0  0  0  0  0  0  0
   20.0523   21.4499   25.8603 H   0  0  0  0  0  0  0  0  0  0  0  0
   21.6849   21.8751   25.2990 H   0  0  0  0  0  0  0  0  0  0  0  0
   20.2559   21.5055   23.6783 C   0  0  0  0  0  0  0  0  0  0  0  0
   20.8058   22.0991   22.9345 H   0  0  0  0  0  0  0  0  0  0  0  0
   19.1863   21.6759   23.4919 H   0  0  0  0  0  0  0  0  0  0  0  0
   20.5845   20.0070   23.4971 C   0  0  0  0  0  0  0  0  0  0  0  0
   21.6547   19.8446   23.6857 H   0  0  0  0  0  0  0  0  0  0  0  0
   20.0423   19.4263   24.2525 H   0  0  0  0  0  0  0  0  0  0  0  0
   20.2320   19.5101   22.0734 C   0  0  0  0  0  0  0  0  0  0  0  0
   20.8142   20.1022   21.3537 H   0  0  0  0  0  0  0  0  0  0  0  0
   19.1776   19.7172   21.8495 H   0  0  0  0  0  0  0  0  0  0  0  0
   20.5568   18.0076   21.8424 C   0  0  0  0  0  0  0  0  0  0  0  0
   20.9036   17.8855   20.8078 H   0  0  0  0  0  0  0  0  0  0  0  0
   21.4075   17.7084   22.4687 H   0  0  0  0  0  0  0  0  0  0  0  0
   19.3860   17.0164   22.0582 C   0  0  1  0  0  0  0  0  0  0  0  0
   19.7774   16.0120   21.8691 H   0  0  0  0  0  0  0  0  0  0  0  0
   18.8417   17.0357   23.4957 C   0  0  0  0  0  0  0  0  0  0  0  0
   18.3204   17.9749   23.7154 H   0  0  0  0  0  0  0  0  0  0  0  0
   19.6534   16.9077   24.2225 H   0  0  0  0  0  0  0  0  0  0  0  0
   18.1287   16.2158   23.6459 H   0  0  0  0  0  0  0  0  0  0  0  0
   18.2761   17.2198   21.0633 N   0  3  0  0  0  0  0  0  0  0  0  0
   18.6178   17.1534   20.1003 H   0  0  0  0  0  0  0  0  0  0  0  0
   17.5403   16.5166   21.1752 H   0  0  0  0  0  0  0  0  0  0  0  0
   17.8410   18.1389   21.1727 H   0  0  0  0  0  0  0  0  0  0  0  0
  1  2  1  0  0  0  0
  1  3  1  0  0  0  0
  1  4  1  0  0  0  0
  1  5  1  0  0  0  0
  5  6  1  0  0  0  0
  5  7  1  0  0  0  0
  5  8  1  0  0  0  0
  8  9  1  0  0  0  0
  8 10  1  0  0  0  0
  8 11  1  0  0  0  0
 11 12  1  0  0  0  0
 11 13  1  0  0  0  0
 11 14  1  0  0  0  0
 14 15  1  0  0  0  0
 14 16  1  0  0  0  0
 14 17  1  0  0  0  0
 17 18  1  0  0  0  0
 17 19  1  0  0  0  0
 19 20  1  0  0  0  0
 19 21  1  0  0  0  0
 19 22  1  0  0  0  0
 17 23  1  0  0  0  0
 23 24  1  0  0  0  0
 23 25  1  0  0  0  0
 23 26  1  0  0  0  0
M  END
> <VConfSearch Rank>
552

> <Conf_Id>
142

> <Delta U+W>
2.978

> <U+W>
-27.320

> <U>
26.848

> <W>
-54.168

> <W(PB)>
-56.427

> <W(SA)>
2.259

> <Valence>
5.823

> <Coulomb>
20.057

> <VdW>
0.968

> <VdW6>
-8.367

> <VdW12>
9.335

> <Bond>
0.267

> <Angle>
1.799

> <Pdih>
3.758

> <Idih>
0.000

> <Tether>
0.000

$$$$
VeraChem MOL file


 26 25  0  0  0  0  0  0  0  0999 V2000     
   20.2955   21.8203   25.0850 C   0  0  0  0  0  0  0  0  0  0  0  0
   20.2862   22.5684   24.2818 H   0  0  0  0  0  0  0  0  0  0  0  0
   20.0679   22.3367   26.0265 H   0  0  0  0  0  0  0  0  0  0  0  0
   21.3124   21.4181   25.1691 H   0  0  0  0  0  0  0  0  0  0  0  0
   19.2597   20.7043   24.8177 C   0  0  0  0  0  0  0  0  0  0  0  0
   18.2525   21.1405   24.8743 H   0  0  0  0  0  0  0  0  0  0  0  0
   19.3126   19.9500   25.6151 H   0  0  0  0  0  0  0  0  0  0  0  0
   19.4258   20.0224   23.4378 C   0  0  0  0  0  0  0  0  0  0  0  0
   18.5590   19.3685   23.2870 H   0  0  0  0  0  0  0  0  0  0  0  0
   19.3936   20.7842   22.6468 H   0  0  0  0  0  0  0  0  0  0  0  0
   20.7255   19.1877   23.3152 C   0  0  0  0  0  0  0  0  0  0  0  0
   20.7225   18.3873   24.0670 H   0  0  0  0  0  0  0  0  0  0  0  0
   21.5855   19.8228   23.5623 H   0  0  0  0  0  0  0  0  0  0  0  0
   20.9846   18.5919   21.9023 C   0  0  0  0  0  0  0  0  0  0  0  0
   21.1056   19.4103   21.1806 H   0  0  0  0  0  0  0  0  0  0  0  0
   21.9574   18.0836   21.9298 H   0  0  0  0  0  0  0  0  0  0  0  0
   19.9483   17.5810   21.3477 C   0  0  1  0  0  0  0  0  0  0  0  0
   20.4095   17.1043   20.4772 H   0  0  0  0  0  0  0  0  0  0  0  0
   19.6138   16.4672   22.3552 C   0  0  0  0  0  0  0  0  0  0  0  0
   19.0630   16.8553   23.2203 H   0  0  0  0  0  0  0  0  0  0  0  0
   20.5294   15.9841   22.7182 H   0  0  0  0  0  0  0  0  0  0  0  0
   18.9949   15.6948   21.8824 H   0  0  0  0  0  0  0  0  0  0  0  0
   18.7018   18.2384   20.8217 N   0  3  0  0  0  0  0  0  0  0  0  0
   18.9198   18.9294   20.0982 H   0  0  0  0  0  0  0  0  0  0  0  0
   18.0652   17.5526   20.4058 H   0  0  0  0  0  0  0  0  0  0  0  0
   18.1924   18.7207   21.5646 H   0  0  0  0  0  0  0  0  0  0  0  0
  1  2  1  0  0  0  0
  1  3  1  0  0  0  0
  1  4  1  0  0  0  0
  1  5  1  0  0  0  0
  5  6  1  0  0  0  0
  5  7  1  0  0  0  0
  5  8  1  0  0  0  0
  8  9  1  0  0  0  0
  8 10  1  0  0  0  0
  8 11  1  0  0  0  0
 11 12  1  0  0  0  0
 11 13  1  0  0  0  0
 11 14  1  0  0  0  0
 14 15  1  0  0  0  0
 14 16  1  0  0  0  0
 14 17  1  0  0  0  0
 17 18  1  0  0  0  0
 17 19  1  0  0  0  0
 19 20  1  0  0  0  0
 19 21  1  0  0  0  0
 19 22  1  0  0  0  0
 17 23  1  0  0  0  0
 23 24  1  0  0  0  0
 23 25  1  0  0  0  0
 23 26  1  0  0  0  0
M  END
> <VConfSearch Rank>
553

> <Conf_Id>
119

> <Delta U+W>
3.538

> <U+W>
-26.761

> <U>
27.482

> <W>
-54.243

> <W(PB)>
-56.494

> <W(SA)>
2.251

> <Valence>
5.284

> <Coulomb>
21.247

> <VdW>
0.951

> <VdW6>
-9.416

> <VdW12>
10.367

> <Bond>
0.323

> <Angle>
2.522

> <Pdih>
2.439

> <Idih>
0.000

> <Tether>
0.000

$$$$
VeraChem MOL file


 26 25  0  0  0  0  0  0  0  0999 V2000     
   18.6334   21.9018   24.6707 C   0  0  0  0  0  0  0  0  0  0  0  0
   17.5529   21.8577   24.4826 H   0  0  0  0  0  0  0  0  0  0  0  0
   18.8775   21.1696   25.4504 H   0  0  0  0  0  0  0  0  0  0  0  0
   18.8641   22.8979   25.0703 H   0  0  0  0  0  0  0  0  0  0  0  0
   19.4345   21.6402   23.3751 C   0  0  0  0  0  0  0  0  0  0  0  0
   20.5108   21.6588   23.5962 H   0  0  0  0  0  0  0  0  0  0  0  0
   19.2509   22.4654   22.6729 H   0  0  0  0  0  0  0  0  0  0  0  0
   19.0661   20.3067   22.6810 C   0  0  0  0  0  0  0  0  0  0  0  0
   17.9945   20.3061   22.4387 H   0  0  0  0  0  0  0  0  0  0  0  0
   19.5938   20.2624   21.7210 H   0  0  0  0  0  0  0  0  0  0  0  0
   19.4055   19.0557   23.5318 C   0  0  0  0  0  0  0  0  0  0  0  0
   18.7755   19.0669   24.4310 H   0  0  0  0  0  0  0  0  0  0  0  0
   20.4421   19.1099   23.8883 H   0  0  0  0  0  0  0  0  0  0  0  0
   19.1511   17.7155   22.7866 C   0  0  0  0  0  0  0  0  0  0  0  0
   18.7655   16.9859   23.5108 H   0  0  0  0  0  0  0  0  0  0  0  0
   18.3463   17.8440   22.0507 H   0  0  0  0  0  0  0  0  0  0  0  0
   20.3825   17.0775   22.0966 C   0  0  1  0  0  0  0  0  0  0  0  0
   20.0396   16.1567   21.6147 H   0  0  0  0  0  0  0  0  0  0  0  0
   20.9863   17.9733   21.0028 C   0  0  0  0  0  0  0  0  0  0  0  0
   21.4501   18.8709   21.4288 H   0  0  0  0  0  0  0  0  0  0  0  0
   20.2175   18.2844   20.2848 H   0  0  0  0  0  0  0  0  0  0  0  0
   21.7597   17.4298   20.4463 H   0  0  0  0  0  0  0  0  0  0  0  0
   21.4355   16.6572   23.0854 N   0  3  0  0  0  0  0  0  0  0  0  0
   21.0565   16.0155   23.7876 H   0  0  0  0  0  0  0  0  0  0  0  0
   22.2132   16.1784   22.6225 H   0  0  0  0  0  0  0  0  0  0  0  0
   21.8232   17.4628   23.5821 H   0  0  0  0  0  0  0  0  0  0  0  0
  1  2  1  0  0  0  0
  1  3  1  0  0  0  0
  1  4  1  0  0  0  0
  1  5  1  0  0  0  0
  5  6  1  0  0  0  0
  5  7  1  0  0  0  0
  5  8  1  0  0  0  0
  8  9  1  0  0  0  0
  8 10  1  0  0  0  0
  8 11  1  0  0  0  0
 11 12  1  0  0  0  0
 11 13  1  0  0  0  0
 11 14  1  0  0  0  0
 14 15  1  0  0  0  0
 14 16  1  0  0  0  0
 14 17  1  0  0  0  0
 17 18  1  0  0  0  0
 17 19  1  0  0  0  0
 19 20  1  0  0  0  0
 19 21  1  0  0  0  0
 19 22  1  0  0  0  0
 17 23  1  0  0  0  0
 23 24  1  0  0  0  0
 23 25  1  0  0  0  0
 23 26  1  0  0  0  0
M  END
> <VConfSearch Rank>
554

> <Conf_Id>
127

> <Delta U+W>
3.544

> <U+W>
-26.754

> <U>
27.509

> <W>
-54.263

> <W(PB)>
-56.496

> <W(SA)>
2.232

> <Valence>
6.375

> <Coulomb>
20.014

> <VdW>
1.120

> <VdW6>
-8.976

> <VdW12>
10.096

> <Bond>
0.304

> <Angle>
1.986

> <Pdih>
4.086

> <Idih>
0.000

> <Tether>
0.000

$$$$
VeraChem MOL file


 26 25  0  0  0  0  0  0  0  0999 V2000     
   21.8331   20.7452   21.0130 C   0  0  0  0  0  0  0  0  0  0  0  0
   22.9072   20.7458   20.7864 H   0  0  0  0  0  0  0  0  0  0  0  0
   21.3678   21.5433   20.4201 H   0  0  0  0  0  0  0  0  0  0  0  0
   21.7171   21.0012   22.0719 H   0  0  0  0  0  0  0  0  0  0  0  0
   21.2095   19.3713   20.6736 C   0  0  0  0  0  0  0  0  0  0  0  0
   21.7315   18.5701   21.2151 H   0  0  0  0  0  0  0  0  0  0  0  0
   21.3827   19.1760   19.6059 H   0  0  0  0  0  0  0  0  0  0  0  0
   19.6848   19.3035   20.9470 C   0  0  0  0  0  0  0  0  0  0  0  0
   19.2341   20.2996   20.8383 H   0  0  0  0  0  0  0  0  0  0  0  0
   19.2250   18.6848   20.1639 H   0  0  0  0  0  0  0  0  0  0  0  0
   19.2943   18.6881   22.3158 C   0  0  0  0  0  0  0  0  0  0  0  0
   19.6630   17.6548   22.3614 H   0  0  0  0  0  0  0  0  0  0  0  0
   18.1994   18.6261   22.3527 H   0  0  0  0  0  0  0  0  0  0  0  0
   19.8137   19.4858   23.5416 C   0  0  0  0  0  0  0  0  0  0  0  0
   20.9100   19.4592   23.5502 H   0  0  0  0  0  0  0  0  0  0  0  0
   19.5308   20.5415   23.4378 H   0  0  0  0  0  0  0  0  0  0  0  0
   19.3194   18.9684   24.9134 C   0  0  1  0  0  0  0  0  0  0  0  0
   19.8185   19.5652   25.6832 H   0  0  0  0  0  0  0  0  0  0  0  0
   17.8028   19.1576   25.0942 C   0  0  0  0  0  0  0  0  0  0  0  0
   17.5134   20.1978   24.8998 H   0  0  0  0  0  0  0  0  0  0  0  0
   17.5074   18.9179   26.1230 H   0  0  0  0  0  0  0  0  0  0  0  0
   17.2280   18.5093   24.4226 H   0  0  0  0  0  0  0  0  0  0  0  0
   19.7195   17.5411   25.1678 N   0  3  0  0  0  0  0  0  0  0  0  0
   20.7333   17.4168   25.0968 H   0  0  0  0  0  0  0  0  0  0  0  0
   19.4385   17.2347   26.1035 H   0  0  0  0  0  0  0  0  0  0  0  0
   19.2830   16.9077   24.4935 H   0  0  0  0  0  0  0  0  0  0  0  0
  1  2  1  0  0  0  0
  1  3  1  0  0  0  0
  1  4  1  0  0  0  0
  1  5  1  0  0  0  0
  5  6  1  0  0  0  0
  5  7  1  0  0  0  0
  5  8  1  0  0  0  0
  8  9  1  0  0  0  0
  8 10  1  0  0  0  0
  8 11  1  0  0  0  0
 11 12  1  0  0  0  0
 11 13  1  0  0  0  0
 11 14  1  0  0  0  0
 14 15  1  0  0  0  0
 14 16  1  0  0  0  0
 14 17  1  0  0  0  0
 17 18  1  0  0  0  0
 17 19  1  0  0  0  0
 19 20  1  0  0  0  0
 19 21  1  0  0  0  0
 19 22  1  0  0  0  0
 17 23  1  0  0  0  0
 23 24  1  0  0  0  0
 23 25  1  0  0  0  0
 23 26  1  0  0  0  0
M  END
> <VConfSearch Rank>
555

> <Conf_Id>
131

> <Delta U+W>
3.589

> <U+W>
-26.710

> <U>
27.573

> <W>
-54.283

> <W(PB)>
-56.537

> <W(SA)>
2.254

> <Valence>
6.363

> <Coulomb>
20.026

> <VdW>
1.184

> <VdW6>
-8.939

> <VdW12>
10.123

> <Bond>
0.298

> <Angle>
2.018

> <Pdih>
4.047

> <Idih>
0.000

> <Tether>
0.000

$$$$
VeraChem MOL file


 26 25  0  0  0  0  0  0  0  0999 V2000     
   18.5989   21.5670   22.3165 C   0  0  0  0  0  0  0  0  0  0  0  0
   17.8714   20.9734   21.7480 H   0  0  0  0  0  0  0  0  0  0  0  0
   18.6933   21.1379   23.3215 H   0  0  0  0  0  0  0  0  0  0  0  0
   18.1906   22.5795   22.4304 H   0  0  0  0  0  0  0  0  0  0  0  0
   19.9643   21.6142   21.5968 C   0  0  0  0  0  0  0  0  0  0  0  0
   20.6882   22.1522   22.2248 H   0  0  0  0  0  0  0  0  0  0  0  0
   19.8580   22.2086   20.6786 H   0  0  0  0  0  0  0  0  0  0  0  0
   20.5366   20.2242   21.2182 C   0  0  0  0  0  0  0  0  0  0  0  0
   19.8710   19.7253   20.5005 H   0  0  0  0  0  0  0  0  0  0  0  0
   21.4793   20.3917   20.6791 H   0  0  0  0  0  0  0  0  0  0  0  0
   20.8288   19.2920   22.4232 C   0  0  0  0  0  0  0  0  0  0  0  0
   21.0873   19.8985   23.3006 H   0  0  0  0  0  0  0  0  0  0  0  0
   21.7216   18.6949   22.1911 H   0  0  0  0  0  0  0  0  0  0  0  0
   19.6664   18.3148   22.7421 C   0  0  0  0  0  0  0  0  0  0  0  0
   18.7562   18.8666   23.0017 H   0  0  0  0  0  0  0  0  0  0  0  0
   19.4320   17.7481   21.8314 H   0  0  0  0  0  0  0  0  0  0  0  0
   19.9945   17.3094   23.8693 C   0  0  1  0  0  0  0  0  0  0  0  0
   20.9336   16.8065   23.6187 H   0  0  0  0  0  0  0  0  0  0  0  0
   20.1607   18.0035   25.2333 C   0  0  0  0  0  0  0  0  0  0  0  0
   19.2629   18.5749   25.4999 H   0  0  0  0  0  0  0  0  0  0  0  0
   21.0160   18.6887   25.2317 H   0  0  0  0  0  0  0  0  0  0  0  0
   20.3401   17.2641   26.0235 H   0  0  0  0  0  0  0  0  0  0  0  0
   18.9481   16.2332   23.9585 N   0  3  0  0  0  0  0  0  0  0  0  0
   18.0308   16.6212   24.1939 H   0  0  0  0  0  0  0  0  0  0  0  0
   18.8505   15.7275   23.0735 H   0  0  0  0  0  0  0  0  0  0  0  0
   19.1816   15.5434   24.6783 H   0  0  0  0  0  0  0  0  0  0  0  0
  1  2  1  0  0  0  0
  1  3  1  0  0  0  0
  1  4  1  0  0  0  0
  1  5  1  0  0  0  0
  5  6  1  0  0  0  0
  5  7  1  0  0  0  0
  5  8  1  0  0  0  0
  8  9  1  0  0  0  0
  8 10  1  0  0  0  0
  8 11  1  0  0  0  0
 11 12  1  0  0  0  0
 11 13  1  0  0  0  0
 11 14  1  0  0  0  0
 14 15  1  0  0  0  0
 14 16  1  0  0  0  0
 14 17  1  0  0  0  0
 17 18  1  0  0  0  0
 17 19  1  0  0  0  0
 19 20  1  0  0  0  0
 19 21  1  0  0  0  0
 19 22  1  0  0  0  0
 17 23  1  0  0  0  0
 23 24  1  0  0  0  0
 23 25  1  0  0  0  0
 23 26  1  0  0  0  0
M  END
> <VConfSearch Rank>
556

> <Conf_Id>
80

> <Delta U+W>
3.351

> <U+W>
-26.948

> <U>
27.261

> <W>
-54.209

> <W(PB)>
-56.471

> <W(SA)>
2.263

> <Valence>
6.230

> <Coulomb>
19.945

> <VdW>
1.087

> <VdW6>
-8.618

> <VdW12>
9.704

> <Bond>
0.277

> <Angle>
1.928

> <Pdih>
4.025

> <Idih>
0.000

> <Tether>
0.000

$$$$
VeraChem MOL file


 26 25  0  0  0  0  0  0  0  0999 V2000     
   19.7113   19.6742   26.1919 C   0  0  0  0  0  0  0  0  0  0  0  0
   20.1335   20.4302   26.8664 H   0  0  0  0  0  0  0  0  0  0  0  0
   18.9194   19.1430   26.7357 H   0  0  0  0  0  0  0  0  0  0  0  0
   20.5094   18.9586   25.9580 H   0  0  0  0  0  0  0  0  0  0  0  0
   19.1564   20.3400   24.9124 C   0  0  0  0  0  0  0  0  0  0  0  0
   19.9709   20.8408   24.3734 H   0  0  0  0  0  0  0  0  0  0  0  0
   18.4601   21.1383   25.2049 H   0  0  0  0  0  0  0  0  0  0  0  0
   18.4083   19.3577   23.9739 C   0  0  0  0  0  0  0  0  0  0  0  0
   17.5103   18.9986   24.4951 H   0  0  0  0  0  0  0  0  0  0  0  0
   18.0379   19.9174   23.1076 H   0  0  0  0  0  0  0  0  0  0  0  0
   19.2236   18.1192   23.5051 C   0  0  0  0  0  0  0  0  0  0  0  0
   18.5736   17.4592   22.9143 H   0  0  0  0  0  0  0  0  0  0  0  0
   19.4959   17.5294   24.3903 H   0  0  0  0  0  0  0  0  0  0  0  0
   20.5163   18.4245   22.6973 C   0  0  0  0  0  0  0  0  0  0  0  0
   20.9770   19.3616   23.0291 H   0  0  0  0  0  0  0  0  0  0  0  0
   21.2456   17.6400   22.9385 H   0  0  0  0  0  0  0  0  0  0  0  0
   20.3460   18.4322   21.1589 C   0  0  1  0  0  0  0  0  0  0  0  0
   19.9469   17.4596   20.8550 H   0  0  0  0  0  0  0  0  0  0  0  0
   19.3789   19.5214   20.6667 C   0  0  0  0  0  0  0  0  0  0  0  0
   18.3505   19.2972   20.9704 H   0  0  0  0  0  0  0  0  0  0  0  0
   19.3831   19.5775   19.5712 H   0  0  0  0  0  0  0  0  0  0  0  0
   19.6552   20.5076   21.0601 H   0  0  0  0  0  0  0  0  0  0  0  0
   21.6770   18.5731   20.4732 N   0  3  0  0  0  0  0  0  0  0  0  0
   22.3243   17.8291   20.7489 H   0  0  0  0  0  0  0  0  0  0  0  0
   21.5796   18.5293   19.4549 H   0  0  0  0  0  0  0  0  0  0  0  0
   22.1213   19.4670   20.6990 H   0  0  0  0  0  0  0  0  0  0  0  0
  1  2  1  0  0  0  0
  1  3  1  0  0  0  0
  1  4  1  0  0  0  0
  1  5  1  0  0  0  0
  5  6  1  0  0  0  0
  5  7  1  0  0  0  0
  5  8  1  0  0  0  0
  8  9  1  0  0  0  0
  8 10  1  0  0  0  0
  8 11  1  0  0  0  0
 11 12  1  0  0  0  0
 11 13  1  0  0  0  0
 11 14  1  0  0  0  0
 14 15  1  0  0  0  0
 14 16  1  0  0  0  0
 14 17  1  0  0  0  0
 17 18  1  0  0  0  0
 17 19  1  0  0  0  0
 19 20  1  0  0  0  0
 19 21  1  0  0  0  0
 19 22  1  0  0  0  0
 17 23  1  0  0  0  0
 23 24  1  0  0  0  0
 23 25  1  0  0  0  0
 23 26  1  0  0  0  0
M  END
> <VConfSearch Rank>
557

> <Conf_Id>
136

> <Delta U+W>
4.272

> <U+W>
-26.026

> <U>
28.262

> <W>
-54.288

> <W(PB)>
-56.488

> <W(SA)>
2.200

> <Valence>
7.096

> <Coulomb>
19.990

> <VdW>
1.175

> <VdW6>
-9.404

> <VdW12>
10.580

> <Bond>
0.360

> <Angle>
2.785

> <Pdih>
3.951

> <Idih>
0.000

> <Tether>
0.000

$$$$
VeraChem MOL file


 26 25  0  0  0  0  0  0  0  0999 V2000     
   21.2915   21.7460   23.2567 C   0  0  0  0  0  0  0  0  0  0  0  0
   21.4474   20.8743   23.9042 H   0  0  0  0  0  0  0  0  0  0  0  0
   22.0635   22.4842   23.5096 H   0  0  0  0  0  0  0  0  0  0  0  0
   20.3147   22.1878   23.4926 H   0  0  0  0  0  0  0  0  0  0  0  0
   21.3827   21.3601   21.7642 C   0  0  0  0  0  0  0  0  0  0  0  0
   22.3480   20.8708   21.5729 H   0  0  0  0  0  0  0  0  0  0  0  0
   21.3836   22.2795   21.1622 H   0  0  0  0  0  0  0  0  0  0  0  0
   20.2312   20.4486   21.2680 C   0  0  0  0  0  0  0  0  0  0  0  0
   19.2690   20.9706   21.3613 H   0  0  0  0  0  0  0  0  0  0  0  0
   20.3777   20.2889   20.1908 H   0  0  0  0  0  0  0  0  0  0  0  0
   20.1609   19.0610   21.9574 C   0  0  0  0  0  0  0  0  0  0  0  0
   21.1625   18.7565   22.2914 H   0  0  0  0  0  0  0  0  0  0  0  0
   19.8516   18.3222   21.2061 H   0  0  0  0  0  0  0  0  0  0  0  0
   19.1593   19.0140   23.1406 C   0  0  0  0  0  0  0  0  0  0  0  0
   19.3885   19.8155   23.8518 H   0  0  0  0  0  0  0  0  0  0  0  0
   18.1443   19.2119   22.7713 H   0  0  0  0  0  0  0  0  0  0  0  0
   19.1817   17.6659   23.8931 C   0  0  1  0  0  0  0  0  0  0  0  0
   20.2061   17.4786   24.2295 H   0  0  0  0  0  0  0  0  0  0  0  0
   18.2720   17.7292   25.1305 C   0  0  0  0  0  0  0  0  0  0  0  0
   17.2284   17.9149   24.8471 H   0  0  0  0  0  0  0  0  0  0  0  0
   18.5901   18.5316   25.8078 H   0  0  0  0  0  0  0  0  0  0  0  0
   18.3117   16.7866   25.6903 H   0  0  0  0  0  0  0  0  0  0  0  0
   18.7963   16.5077   23.0137 N   0  3  0  0  0  0  0  0  0  0  0  0
   17.8436   16.6122   22.6549 H   0  0  0  0  0  0  0  0  0  0  0  0
   19.4222   16.4252   22.2082 H   0  0  0  0  0  0  0  0  0  0  0  0
   18.8361   15.6209   23.5240 H   0  0  0  0  0  0  0  0  0  0  0  0
  1  2  1  0  0  0  0
  1  3  1  0  0  0  0
  1  4  1  0  0  0  0
  1  5  1  0  0  0  0
  5  6  1  0  0  0  0
  5  7  1  0  0  0  0
  5  8  1  0  0  0  0
  8  9  1  0  0  0  0
  8 10  1  0  0  0  0
  8 11  1  0  0  0  0
 11 12  1  0  0  0  0
 11 13  1  0  0  0  0
 11 14  1  0  0  0  0
 14 15  1  0  0  0  0
 14 16  1  0  0  0  0
 14 17  1  0  0  0  0
 17 18  1  0  0  0  0
 17 19  1  0  0  0  0
 19 20  1  0  0  0  0
 19 21  1  0  0  0  0
 19 22  1  0  0  0  0
 17 23  1  0  0  0  0
 23 24  1  0  0  0  0
 23 25  1  0  0  0  0
 23 26  1  0  0  0  0
M  END
> <VConfSearch Rank>
558

> <Conf_Id>
124

> <Delta U+W>
3.001

> <U+W>
-27.298

> <U>
26.787

> <W>
-54.085

> <W(PB)>
-56.347

> <W(SA)>
2.262

> <Valence>
5.742

> <Coulomb>
20.023

> <VdW>
1.022

> <VdW6>
-8.392

> <VdW12>
9.414

> <Bond>
0.261

> <Angle>
1.576

> <Pdih>
3.904

> <Idih>
0.000

> <Tether>
0.000

$$$$
VeraChem MOL file


 26 25  0  0  0  0  0  0  0  0999 V2000     
   19.1269   18.3630   19.9595 C   0  0  0  0  0  0  0  0  0  0  0  0
   19.9915   18.3535   19.2832 H   0  0  0  0  0  0  0  0  0  0  0  0
   18.2351   18.1328   19.3623 H   0  0  0  0  0  0  0  0  0  0  0  0
   19.0126   19.3815   20.3463 H   0  0  0  0  0  0  0  0  0  0  0  0
   19.3013   17.3248   21.0924 C   0  0  0  0  0  0  0  0  0  0  0  0
   19.3779   16.3306   20.6303 H   0  0  0  0  0  0  0  0  0  0  0  0
   18.4033   17.2951   21.7251 H   0  0  0  0  0  0  0  0  0  0  0  0
   20.5644   17.5639   21.9595 C   0  0  0  0  0  0  0  0  0  0  0  0
   20.9674   16.5843   22.2518 H   0  0  0  0  0  0  0  0  0  0  0  0
   21.3526   18.0403   21.3604 H   0  0  0  0  0  0  0  0  0  0  0  0
   20.3189   18.3725   23.2596 C   0  0  0  0  0  0  0  0  0  0  0  0
   21.2611   18.4012   23.8221 H   0  0  0  0  0  0  0  0  0  0  0  0
   19.6023   17.8269   23.8879 H   0  0  0  0  0  0  0  0  0  0  0  0
   19.8131   19.8199   23.0212 C   0  0  0  0  0  0  0  0  0  0  0  0
   20.4525   20.3099   22.2755 H   0  0  0  0  0  0  0  0  0  0  0  0
   18.8050   19.7855   22.5902 H   0  0  0  0  0  0  0  0  0  0  0  0
   19.7646   20.7081   24.2870 C   0  0  1  0  0  0  0  0  0  0  0  0
   19.3902   21.6898   23.9808 H   0  0  0  0  0  0  0  0  0  0  0  0
   18.7981   20.1506   25.3466 C   0  0  0  0  0  0  0  0  0  0  0  0
   19.1596   19.2045   25.7668 H   0  0  0  0  0  0  0  0  0  0  0  0
   17.8042   19.9782   24.9154 H   0  0  0  0  0  0  0  0  0  0  0  0
   18.6830   20.8623   26.1733 H   0  0  0  0  0  0  0  0  0  0  0  0
   21.1284   20.9485   24.8742 N   0  3  0  0  0  0  0  0  0  0  0  0
   21.0846   21.5893   25.6716 H   0  0  0  0  0  0  0  0  0  0  0  0
   21.5506   20.0773   25.2040 H   0  0  0  0  0  0  0  0  0  0  0  0
   21.7662   21.3595   24.1866 H   0  0  0  0  0  0  0  0  0  0  0  0
  1  2  1  0  0  0  0
  1  3  1  0  0  0  0
  1  4  1  0  0  0  0
  1  5  1  0  0  0  0
  5  6  1  0  0  0  0
  5  7  1  0  0  0  0
  5  8  1  0  0  0  0
  8  9  1  0  0  0  0
  8 10  1  0  0  0  0
  8 11  1  0  0  0  0
 11 12  1  0  0  0  0
 11 13  1  0  0  0  0
 11 14  1  0  0  0  0
 14 15  1  0  0  0  0
 14 16  1  0  0  0  0
 14 17  1  0  0  0  0
 17 18  1  0  0  0  0
 17 19  1  0  0  0  0
 19 20  1  0  0  0  0
 19 21  1  0  0  0  0
 19 22  1  0  0  0  0
 17 23  1  0  0  0  0
 23 24  1  0  0  0  0
 23 25  1  0  0  0  0
 23 26  1  0  0  0  0
M  END
> <VConfSearch Rank>
559

> <Conf_Id>
105

> <Delta U+W>
3.442

> <U+W>
-26.857

> <U>
27.313

> <W>
-54.169

> <W(PB)>
-56.414

> <W(SA)>
2.245

> <Valence>
6.229

> <Coulomb>
19.943

> <VdW>
1.140

> <VdW6>
-9.001

> <VdW12>
10.140

> <Bond>
0.294

> <Angle>
1.969

> <Pdih>
3.967

> <Idih>
0.000

> <Tether>
0.000

$$$$
VeraChem MOL file


 26 25  0  0  0  0  0  0  0  0999 V2000     
   16.8989   18.6870   21.9698 C   0  0  0  0  0  0  0  0  0  0  0  0
   16.5340   17.6528   21.9211 H   0  0  0  0  0  0  0  0  0  0  0  0
   16.1471   19.3276   21.4909 H   0  0  0  0  0  0  0  0  0  0  0  0
   17.8154   18.7497   21.3734 H   0  0  0  0  0  0  0  0  0  0  0  0
   17.1255   19.1238   23.4361 C   0  0  0  0  0  0  0  0  0  0  0  0
   16.1599   19.0676   23.9579 H   0  0  0  0  0  0  0  0  0  0  0  0
   17.4301   20.1788   23.4777 H   0  0  0  0  0  0  0  0  0  0  0  0
   18.1470   18.2372   24.1941 C   0  0  0  0  0  0  0  0  0  0  0  0
   17.8216   18.1610   25.2409 H   0  0  0  0  0  0  0  0  0  0  0  0
   18.1240   17.2108   23.8026 H   0  0  0  0  0  0  0  0  0  0  0  0
   19.6010   18.7759   24.1971 C   0  0  0  0  0  0  0  0  0  0  0  0
   20.2122   18.1108   24.8229 H   0  0  0  0  0  0  0  0  0  0  0  0
   19.6171   19.7593   24.6856 H   0  0  0  0  0  0  0  0  0  0  0  0
   20.2455   18.8759   22.7925 C   0  0  0  0  0  0  0  0  0  0  0  0
   20.0916   17.9274   22.2611 H   0  0  0  0  0  0  0  0  0  0  0  0
   19.7447   19.6573   22.2074 H   0  0  0  0  0  0  0  0  0  0  0  0
   21.7588   19.1769   22.8477 C   0  0  1  0  0  0  0  0  0  0  0  0
   22.2411   18.3996   23.4484 H   0  0  0  0  0  0  0  0  0  0  0  0
   22.3630   19.1391   21.4349 C   0  0  0  0  0  0  0  0  0  0  0  0
   21.9133   19.9044   20.7899 H   0  0  0  0  0  0  0  0  0  0  0  0
   22.2004   18.1599   20.9674 H   0  0  0  0  0  0  0  0  0  0  0  0
   23.4452   19.3149   21.4705 H   0  0  0  0  0  0  0  0  0  0  0  0
   22.0600   20.4903   23.5166 N   0  3  0  0  0  0  0  0  0  0  0  0
   21.6995   20.5132   24.4742 H   0  0  0  0  0  0  0  0  0  0  0  0
   23.0680   20.6632   23.5648 H   0  0  0  0  0  0  0  0  0  0  0  0
   21.6386   21.2729   23.0095 H   0  0  0  0  0  0  0  0  0  0  0  0
  1  2  1  0  0  0  0
  1  3  1  0  0  0  0
  1  4  1  0  0  0  0
  1  5  1  0  0  0  0
  5  6  1  0  0  0  0
  5  7  1  0  0  0  0
  5  8  1  0  0  0  0
  8  9  1  0  0  0  0
  8 10  1  0  0  0  0
  8 11  1  0  0  0  0
 11 12  1  0  0  0  0
 11 13  1  0  0  0  0
 11 14  1  0  0  0  0
 14 15  1  0  0  0  0
 14 16  1  0  0  0  0
 14 17  1  0  0  0  0
 17 18  1  0  0  0  0
 17 19  1  0  0  0  0
 19 20  1  0  0  0  0
 19 21  1  0  0  0  0
 19 22  1  0  0  0  0
 17 23  1  0  0  0  0
 23 24  1  0  0  0  0
 23 25  1  0  0  0  0
 23 26  1  0  0  0  0
M  END
> <VConfSearch Rank>
560

> <Conf_Id>
107

> <Delta U+W>
2.995

> <U+W>
-27.304

> <U>
26.796

> <W>
-54.100

> <W(PB)>
-56.404

> <W(SA)>
2.304

> <Valence>
5.706

> <Coulomb>
20.107

> <VdW>
0.982

> <VdW6>
-8.396

> <VdW12>
9.378

> <Bond>
0.254

> <Angle>
1.644

> <Pdih>
3.808

> <Idih>
0.000

> <Tether>
0.000

$$$$
VeraChem MOL file


 26 25  0  0  0  0  0  0  0  0999 V2000     
   21.5610   21.3507   26.0468 C   0  0  0  0  0  0  0  0  0  0  0  0
   21.6259   22.3098   25.5166 H   0  0  0  0  0  0  0  0  0  0  0  0
   21.3601   21.5635   27.1048 H   0  0  0  0  0  0  0  0  0  0  0  0
   22.5397   20.8574   25.9823 H   0  0  0  0  0  0  0  0  0  0  0  0
   20.4506   20.4606   25.4495 C   0  0  0  0  0  0  0  0  0  0  0  0
   19.4804   20.9654   25.5592 H   0  0  0  0  0  0  0  0  0  0  0  0
   20.3872   19.5242   26.0214 H   0  0  0  0  0  0  0  0  0  0  0  0
   20.7093   20.1457   23.9595 C   0  0  0  0  0  0  0  0  0  0  0  0
   20.7752   21.0852   23.3933 H   0  0  0  0  0  0  0  0  0  0  0  0
   21.6808   19.6429   23.8548 H   0  0  0  0  0  0  0  0  0  0  0  0
   19.5989   19.2551   23.3575 C   0  0  0  0  0  0  0  0  0  0  0  0
   18.6285   19.7607   23.4596 H   0  0  0  0  0  0  0  0  0  0  0  0
   19.5353   18.3219   23.9328 H   0  0  0  0  0  0  0  0  0  0  0  0
   19.8619   18.9402   21.8647 C   0  0  0  0  0  0  0  0  0  0  0  0
   19.9766   19.8856   21.3176 H   0  0  0  0  0  0  0  0  0  0  0  0
   20.8126   18.4006   21.7606 H   0  0  0  0  0  0  0  0  0  0  0  0
   18.7262   18.1225   21.2119 C   0  0  1  0  0  0  0  0  0  0  0  0
   17.7878   18.6686   21.3494 H   0  0  0  0  0  0  0  0  0  0  0  0
   18.9778   17.9683   19.7033 C   0  0  0  0  0  0  0  0  0  0  0  0
   19.9102   17.4232   19.5099 H   0  0  0  0  0  0  0  0  0  0  0  0
   19.0486   18.9495   19.2175 H   0  0  0  0  0  0  0  0  0  0  0  0
   18.1561   17.4199   19.2266 H   0  0  0  0  0  0  0  0  0  0  0  0
   18.5420   16.7755   21.8561 N   0  3  0  0  0  0  0  0  0  0  0  0
   19.3854   16.2023   21.7708 H   0  0  0  0  0  0  0  0  0  0  0  0
   18.3281   16.8636   22.8531 H   0  0  0  0  0  0  0  0  0  0  0  0
   17.7732   16.2558   21.4233 H   0  0  0  0  0  0  0  0  0  0  0  0
  1  2  1  0  0  0  0
  1  3  1  0  0  0  0
  1  4  1  0  0  0  0
  1  5  1  0  0  0  0
  5  6  1  0  0  0  0
  5  7  1  0  0  0  0
  5  8  1  0  0  0  0
  8  9  1  0  0  0  0
  8 10  1  0  0  0  0
  8 11  1  0  0  0  0
 11 12  1  0  0  0  0
 11 13  1  0  0  0  0
 11 14  1  0  0  0  0
 14 15  1  0  0  0  0
 14 16  1  0  0  0  0
 14 17  1  0  0  0  0
 17 18  1  0  0  0  0
 17 19  1  0  0  0  0
 19 20  1  0  0  0  0
 19 21  1  0  0  0  0
 19 22  1  0  0  0  0
 17 23  1  0  0  0  0
 23 24  1  0  0  0  0
 23 25  1  0  0  0  0
 23 26  1  0  0  0  0
M  END
> <VConfSearch Rank>
561

> <Conf_Id>
122

> <Delta U+W>
0.000

> <U+W>
-30.299

> <U>
23.517

> <W>
-53.816

> <W(PB)>
-56.162

> <W(SA)>
2.346

> <Valence>
2.737

> <Coulomb>
19.862

> <VdW>
0.919

> <VdW6>
-6.793

> <VdW12>
7.712

> <Bond>
0.171

> <Angle>
0.873

> <Pdih>
1.693

> <Idih>
0.000

> <Tether>
0.000

$$$$
VeraChem MOL file


 26 25  0  0  0  0  0  0  0  0999 V2000     
   23.5274   21.0299   22.4452 C   0  0  0  0  0  0  0  0  0  0  0  0
   23.9732   21.7851   21.7850 H   0  0  0  0  0  0  0  0  0  0  0  0
   23.6516   21.3722   23.4809 H   0  0  0  0  0  0  0  0  0  0  0  0
   24.0947   20.0981   22.3227 H   0  0  0  0  0  0  0  0  0  0  0  0
   22.0365   20.8206   22.1052 C   0  0  0  0  0  0  0  0  0  0  0  0
   21.9423   20.5118   21.0546 H   0  0  0  0  0  0  0  0  0  0  0  0
   21.5025   21.7761   22.2039 H   0  0  0  0  0  0  0  0  0  0  0  0
   21.3841   19.7613   23.0209 C   0  0  0  0  0  0  0  0  0  0  0  0
   21.9224   18.8086   22.9202 H   0  0  0  0  0  0  0  0  0  0  0  0
   21.4842   20.0734   24.0698 H   0  0  0  0  0  0  0  0  0  0  0  0
   19.8908   19.5491   22.6836 C   0  0  0  0  0  0  0  0  0  0  0  0
   19.8021   19.2461   21.6321 H   0  0  0  0  0  0  0  0  0  0  0  0
   19.3523   20.5011   22.7893 H   0  0  0  0  0  0  0  0  0  0  0  0
   19.2408   18.4835   23.6003 C   0  0  0  0  0  0  0  0  0  0  0  0
   19.7343   17.5142   23.4493 H   0  0  0  0  0  0  0  0  0  0  0  0
   19.4219   18.7651   24.6461 H   0  0  0  0  0  0  0  0  0  0  0  0
   17.7166   18.3290   23.3930 C   0  0  1  0  0  0  0  0  0  0  0  0
   17.2533   19.3139   23.5071 H   0  0  0  0  0  0  0  0  0  0  0  0
   17.3729   17.7881   21.9934 C   0  0  0  0  0  0  0  0  0  0  0  0
   17.8686   16.8274   21.8063 H   0  0  0  0  0  0  0  0  0  0  0  0
   17.6761   18.4905   21.2085 H   0  0  0  0  0  0  0  0  0  0  0  0
   16.2910   17.6376   21.8926 H   0  0  0  0  0  0  0  0  0  0  0  0
   17.1116   17.4507   24.4529 N   0  3  0  0  0  0  0  0  0  0  0  0
   17.4918   16.5012   24.4146 H   0  0  0  0  0  0  0  0  0  0  0  0
   17.2901   17.8158   25.3929 H   0  0  0  0  0  0  0  0  0  0  0  0
   16.0961   17.3774   24.3433 H   0  0  0  0  0  0  0  0  0  0  0  0
  1  2  1  0  0  0  0
  1  3  1  0  0  0  0
  1  4  1  0  0  0  0
  1  5  1  0  0  0  0
  5  6  1  0  0  0  0
  5  7  1  0  0  0  0
  5  8  1  0  0  0  0
  8  9  1  0  0  0  0
  8 10  1  0  0  0  0
  8 11  1  0  0  0  0
 11 12  1  0  0  0  0
 11 13  1  0  0  0  0
 11 14  1  0  0  0  0
 14 15  1  0  0  0  0
 14 16  1  0  0  0  0
 14 17  1  0  0  0  0
 17 18  1  0  0  0  0
 17 19  1  0  0  0  0
 19 20  1  0  0  0  0
 19 21  1  0  0  0  0
 19 22  1  0  0  0  0
 17 23  1  0  0  0  0
 23 24  1  0  0  0  0
 23 25  1  0  0  0  0
 23 26  1  0  0  0  0
M  END
> <VConfSearch Rank>
562

> <Conf_Id>
54

> <Delta U+W>
0.453

> <U+W>
-29.845

> <U>
23.817

> <W>
-53.663

> <W(PB)>
-56.021

> <W(SA)>
2.358

> <Valence>
3.277

> <Coulomb>
19.492

> <VdW>
1.049

> <VdW6>
-6.949

> <VdW12>
7.998

> <Bond>
0.183

> <Angle>
1.152

> <Pdih>
1.942

> <Idih>
0.000

> <Tether>
0.000

$$$$
VeraChem MOL file


 26 25  0  0  0  0  0  0  0  0999 V2000     
   22.5010   21.3765   21.8944 C   0  0  0  0  0  0  0  0  0  0  0  0
   22.9175   20.5985   21.2416 H   0  0  0  0  0  0  0  0  0  0  0  0
   21.6697   21.8596   21.3667 H   0  0  0  0  0  0  0  0  0  0  0  0
   23.2782   22.1363   22.0478 H   0  0  0  0  0  0  0  0  0  0  0  0
   22.0513   20.7835   23.2494 C   0  0  0  0  0  0  0  0  0  0  0  0
   21.6071   21.5731   23.8714 H   0  0  0  0  0  0  0  0  0  0  0  0
   22.9413   20.4317   23.7898 H   0  0  0  0  0  0  0  0  0  0  0  0
   21.0592   19.6032   23.1107 C   0  0  0  0  0  0  0  0  0  0  0  0
   21.4976   18.8313   22.4632 H   0  0  0  0  0  0  0  0  0  0  0  0
   20.9377   19.1577   24.1051 H   0  0  0  0  0  0  0  0  0  0  0  0
   19.6711   20.0258   22.5666 C   0  0  0  0  0  0  0  0  0  0  0  0
   19.8025   20.5859   21.6324 H   0  0  0  0  0  0  0  0  0  0  0  0
   19.1981   20.7208   23.2741 H   0  0  0  0  0  0  0  0  0  0  0  0
   18.7012   18.8510   22.2713 C   0  0  0  0  0  0  0  0  0  0  0  0
   17.8081   19.2833   21.8006 H   0  0  0  0  0  0  0  0  0  0  0  0
   19.1380   18.1790   21.5208 H   0  0  0  0  0  0  0  0  0  0  0  0
   18.2616   18.0403   23.5138 C   0  0  1  0  0  0  0  0  0  0  0  0
   18.1254   18.7343   24.3489 H   0  0  0  0  0  0  0  0  0  0  0  0
   16.9194   17.3382   23.2484 C   0  0  0  0  0  0  0  0  0  0  0  0
   16.5946   16.7736   24.1311 H   0  0  0  0  0  0  0  0  0  0  0  0
   16.9966   16.6403   22.4051 H   0  0  0  0  0  0  0  0  0  0  0  0
   16.1347   18.0692   23.0167 H   0  0  0  0  0  0  0  0  0  0  0  0
   19.2868   17.0252   23.9411 N   0  3  0  0  0  0  0  0  0  0  0  0
   20.1905   17.4626   24.1340 H   0  0  0  0  0  0  0  0  0  0  0  0
   18.9943   16.5332   24.7901 H   0  0  0  0  0  0  0  0  0  0  0  0
   19.4355   16.3193   23.2152 H   0  0  0  0  0  0  0  0  0  0  0  0
  1  2  1  0  0  0  0
  1  3  1  0  0  0  0
  1  4  1  0  0  0  0
  1  5  1  0  0  0  0
  5  6  1  0  0  0  0
  5  7  1  0  0  0  0
  5  8  1  0  0  0  0
  8  9  1  0  0  0  0
  8 10  1  0  0  0  0
  8 11  1  0  0  0  0
 11 12  1  0  0  0  0
 11 13  1  0  0  0  0
 11 14  1  0  0  0  0
 14 15  1  0  0  0  0
 14 16  1  0  0  0  0
 14 17  1  0  0  0  0
 17 18  1  0  0  0  0
 17 19  1  0  0  0  0
 19 20  1  0  0  0  0
 19 21  1  0  0  0  0
 19 22  1  0  0  0  0
 17 23  1  0  0  0  0
 23 24  1  0  0  0  0
 23 25  1  0  0  0  0
 23 26  1  0  0  0  0
M  END
> <VConfSearch Rank>
563

> <Conf_Id>
110

> <Delta U+W>
3.764

> <U+W>
-26.535

> <U>
27.400

> <W>
-53.935

> <W(PB)>
-56.238

> <W(SA)>
2.303

> <Valence>
5.205

> <Coulomb>
21.096

> <VdW>
1.098

> <VdW6>
-8.389

> <VdW12>
9.488

> <Bond>
0.270

> <Angle>
1.912

> <Pdih>
3.023

> <Idih>
0.000

> <Tether>
0.000

$$$$
VeraChem MOL file


 26 25  0  0  0  0  0  0  0  0999 V2000     
   20.6556   18.5150   26.4769 C   0  0  0  0  0  0  0  0  0  0  0  0
   20.5208   17.9094   27.3824 H   0  0  0  0  0  0  0  0  0  0  0  0
   21.5272   18.1181   25.9418 H   0  0  0  0  0  0  0  0  0  0  0  0
   20.8823   19.5422   26.7908 H   0  0  0  0  0  0  0  0  0  0  0  0
   19.3828   18.4695   25.6014 C   0  0  0  0  0  0  0  0  0  0  0  0
   18.5195   18.7598   26.2163 H   0  0  0  0  0  0  0  0  0  0  0  0
   19.1950   17.4366   25.2763 H   0  0  0  0  0  0  0  0  0  0  0  0
   19.4498   19.4018   24.3678 C   0  0  0  0  0  0  0  0  0  0  0  0
   18.4705   19.3917   23.8745 H   0  0  0  0  0  0  0  0  0  0  0  0
   19.6101   20.4363   24.7013 H   0  0  0  0  0  0  0  0  0  0  0  0
   20.5579   19.0068   23.3576 C   0  0  0  0  0  0  0  0  0  0  0  0
   20.4950   17.9367   23.1166 H   0  0  0  0  0  0  0  0  0  0  0  0
   21.5346   19.1533   23.8374 H   0  0  0  0  0  0  0  0  0  0  0  0
   20.5291   19.8491   22.0545 C   0  0  0  0  0  0  0  0  0  0  0  0
   20.0877   20.8358   22.2479 H   0  0  0  0  0  0  0  0  0  0  0  0
   21.5685   20.0404   21.7563 H   0  0  0  0  0  0  0  0  0  0  0  0
   19.8197   19.1701   20.8580 C   0  0  1  0  0  0  0  0  0  0  0  0
   20.3154   18.2132   20.6678 H   0  0  0  0  0  0  0  0  0  0  0  0
   18.3305   18.8930   21.1250 C   0  0  0  0  0  0  0  0  0  0  0  0
   17.7990   19.8111   21.4046 H   0  0  0  0  0  0  0  0  0  0  0  0
   18.2048   18.1581   21.9286 H   0  0  0  0  0  0  0  0  0  0  0  0
   17.8478   18.4789   20.2313 H   0  0  0  0  0  0  0  0  0  0  0  0
   19.9796   19.9840   19.6039 N   0  3  0  0  0  0  0  0  0  0  0  0
   20.9662   20.1400   19.3783 H   0  0  0  0  0  0  0  0  0  0  0  0
   19.5537   19.5173   18.7982 H   0  0  0  0  0  0  0  0  0  0  0  0
   19.5361   20.9019   19.6943 H   0  0  0  0  0  0  0  0  0  0  0  0
  1  2  1  0  0  0  0
  1  3  1  0  0  0  0
  1  4  1  0  0  0  0
  1  5  1  0  0  0  0
  5  6  1  0  0  0  0
  5  7  1  0  0  0  0
  5  8  1  0  0  0  0
  8  9  1  0  0  0  0
  8 10  1  0  0  0  0
  8 11  1  0  0  0  0
 11 12  1  0  0  0  0
 11 13  1  0  0  0  0
 11 14  1  0  0  0  0
 14 15  1  0  0  0  0
 14 16  1  0  0  0  0
 14 17  1  0  0  0  0
 17 18  1  0  0  0  0
 17 19  1  0  0  0  0
 19 20  1  0  0  0  0
 19 21  1  0  0  0  0
 19 22  1  0  0  0  0
 17 23  1  0  0  0  0
 23 24  1  0  0  0  0
 23 25  1  0  0  0  0
 23 26  1  0  0  0  0
M  END
> <VConfSearch Rank>
564

> <Conf_Id>
34

> <Delta U+W>
3.568

> <U+W>
-26.731

> <U>
27.221

> <W>
-53.952

> <W(PB)>
-56.213

> <W(SA)>
2.261

> <Valence>
6.368

> <Coulomb>
19.698

> <VdW>
1.155

> <VdW6>
-8.532

> <VdW12>
9.687

> <Bond>
0.272

> <Angle>
1.847

> <Pdih>
4.248

> <Idih>
0.000

> <Tether>
0.000

$$$$
VeraChem MOL file


 26 25  0  0  0  0  0  0  0  0999 V2000     
   22.9237   19.4398   25.5730 C   0  0  0  0  0  0  0  0  0  0  0  0
   23.0846   20.5230   25.4965 H   0  0  0  0  0  0  0  0  0  0  0  0
   22.3618   19.2419   26.4952 H   0  0  0  0  0  0  0  0  0  0  0  0
   23.9060   18.9590   25.6672 H   0  0  0  0  0  0  0  0  0  0  0  0
   22.1701   18.9022   24.3380 C   0  0  0  0  0  0  0  0  0  0  0  0
   22.0543   17.8129   24.4274 H   0  0  0  0  0  0  0  0  0  0  0  0
   22.7716   19.0842   23.4363 H   0  0  0  0  0  0  0  0  0  0  0  0
   20.7826   19.5634   24.1820 C   0  0  0  0  0  0  0  0  0  0  0  0
   20.1866   19.3806   25.0868 H   0  0  0  0  0  0  0  0  0  0  0  0
   20.9037   20.6521   24.0958 H   0  0  0  0  0  0  0  0  0  0  0  0
   20.0247   19.0280   22.9460 C   0  0  0  0  0  0  0  0  0  0  0  0
   19.9091   17.9400   23.0381 H   0  0  0  0  0  0  0  0  0  0  0  0
   20.6304   19.2111   22.0488 H   0  0  0  0  0  0  0  0  0  0  0  0
   18.6342   19.6979   22.7937 C   0  0  0  0  0  0  0  0  0  0  0  0
   18.0590   19.5487   23.7169 H   0  0  0  0  0  0  0  0  0  0  0  0
   18.7637   20.7835   22.6911 H   0  0  0  0  0  0  0  0  0  0  0  0
   17.7895   19.1839   21.6038 C   0  0  1  0  0  0  0  0  0  0  0  0
   16.8321   19.7134   21.6324 H   0  0  0  0  0  0  0  0  0  0  0  0
   18.4505   19.4920   20.2488 C   0  0  0  0  0  0  0  0  0  0  0  0
   19.3734   18.9172   20.1072 H   0  0  0  0  0  0  0  0  0  0  0  0
   18.6933   20.5587   20.1670 H   0  0  0  0  0  0  0  0  0  0  0  0
   17.7708   19.2418   19.4251 H   0  0  0  0  0  0  0  0  0  0  0  0
   17.4601   17.7211   21.7225 N   0  3  0  0  0  0  0  0  0  0  0  0
   16.8489   17.4123   20.9612 H   0  0  0  0  0  0  0  0  0  0  0  0
   18.3051   17.1458   21.6898 H   0  0  0  0  0  0  0  0  0  0  0  0
   16.9798   17.5145   22.6029 H   0  0  0  0  0  0  0  0  0  0  0  0
  1  2  1  0  0  0  0
  1  3  1  0  0  0  0
  1  4  1  0  0  0  0
  1  5  1  0  0  0  0
  5  6  1  0  0  0  0
  5  7  1  0  0  0  0
  5  8  1  0  0  0  0
  8  9  1  0  0  0  0
  8 10  1  0  0  0  0
  8 11  1  0  0  0  0
 11 12  1  0  0  0  0
 11 13  1  0  0  0  0
 11 14  1  0  0  0  0
 14 15  1  0  0  0  0
 14 16  1  0  0  0  0
 14 17  1  0  0  0  0
 17 18  1  0  0  0  0
 17 19  1  0  0  0  0
 19 20  1  0  0  0  0
 19 21  1  0  0  0  0
 19 22  1  0  0  0  0
 17 23  1  0  0  0  0
 23 24  1  0  0  0  0
 23 25  1  0  0  0  0
 23 26  1  0  0  0  0
M  END
> <VConfSearch Rank>
565

> <Conf_Id>
132

> <Delta U+W>
0.363

> <U+W>
-29.936

> <U>
24.060

> <W>
-53.996

> <W(PB)>
-56.327

> <W(SA)>
2.332

> <Valence>
3.249

> <Coulomb>
19.781

> <VdW>
1.030

> <VdW6>
-7.421

> <VdW12>
8.451

> <Bond>
0.207

> <Angle>
1.205

> <Pdih>
1.837

> <Idih>
0.000

> <Tether>
0.000

$$$$
VeraChem MOL file


 26 25  0  0  0  0  0  0  0  0999 V2000     
   21.7949   19.2787   26.3490 C   0  0  0  0  0  0  0  0  0  0  0  0
   21.3334   19.1420   27.3355 H   0  0  0  0  0  0  0  0  0  0  0  0
   22.6526   18.5969   26.2811 H   0  0  0  0  0  0  0  0  0  0  0  0
   22.1714   20.3085   26.2928 H   0  0  0  0  0  0  0  0  0  0  0  0
   20.7733   19.0000   25.2260 C   0  0  0  0  0  0  0  0  0  0  0  0
   19.9141   19.6716   25.3530 H   0  0  0  0  0  0  0  0  0  0  0  0
   20.3937   17.9735   25.3261 H   0  0  0  0  0  0  0  0  0  0  0  0
   21.4007   19.1912   23.8248 C   0  0  0  0  0  0  0  0  0  0  0  0
   21.7303   20.2324   23.7050 H   0  0  0  0  0  0  0  0  0  0  0  0
   22.3057   18.5721   23.7532 H   0  0  0  0  0  0  0  0  0  0  0  0
   20.4531   18.8085   22.6612 C   0  0  0  0  0  0  0  0  0  0  0  0
   20.1338   17.7651   22.7844 H   0  0  0  0  0  0  0  0  0  0  0  0
   21.0314   18.8481   21.7292 H   0  0  0  0  0  0  0  0  0  0  0  0
   19.2138   19.7378   22.5442 C   0  0  0  0  0  0  0  0  0  0  0  0
   18.6182   19.6746   23.4629 H   0  0  0  0  0  0  0  0  0  0  0  0
   19.5474   20.7813   22.4702 H   0  0  0  0  0  0  0  0  0  0  0  0
   18.2789   19.4285   21.3508 C   0  0  1  0  0  0  0  0  0  0  0  0
   17.4280   20.1133   21.4201 H   0  0  0  0  0  0  0  0  0  0  0  0
   18.9639   19.6777   19.9955 C   0  0  0  0  0  0  0  0  0  0  0  0
   19.7678   18.9566   19.8069 H   0  0  0  0  0  0  0  0  0  0  0  0
   19.3903   20.6877   19.9537 H   0  0  0  0  0  0  0  0  0  0  0  0
   18.2380   19.5898   19.1779 H   0  0  0  0  0  0  0  0  0  0  0  0
   17.7032   18.0406   21.4171 N   0  3  0  0  0  0  0  0  0  0  0  0
   17.2048   17.8822   22.2974 H   0  0  0  0  0  0  0  0  0  0  0  0
   17.0392   17.8742   20.6556 H   0  0  0  0  0  0  0  0  0  0  0  0
   18.4362   17.3307   21.3456 H   0  0  0  0  0  0  0  0  0  0  0  0
  1  2  1  0  0  0  0
  1  3  1  0  0  0  0
  1  4  1  0  0  0  0
  1  5  1  0  0  0  0
  5  6  1  0  0  0  0
  5  7  1  0  0  0  0
  5  8  1  0  0  0  0
  8  9  1  0  0  0  0
  8 10  1  0  0  0  0
  8 11  1  0  0  0  0
 11 12  1  0  0  0  0
 11 13  1  0  0  0  0
 11 14  1  0  0  0  0
 14 15  1  0  0  0  0
 14 16  1  0  0  0  0
 14 17  1  0  0  0  0
 17 18  1  0  0  0  0
 17 19  1  0  0  0  0
 19 20  1  0  0  0  0
 19 21  1  0  0  0  0
 19 22  1  0  0  0  0
 17 23  1  0  0  0  0
 23 24  1  0  0  0  0
 23 25  1  0  0  0  0
 23 26  1  0  0  0  0
M  END
> <VConfSearch Rank>
566

> <Conf_Id>
46

> <Delta U+W>
1.114

> <U+W>
-29.185

> <U>
24.990

> <W>
-54.175

> <W(PB)>
-56.455

> <W(SA)>
2.279

> <Valence>
3.862

> <Coulomb>
19.956

> <VdW>
1.172

> <VdW6>
-8.054

> <VdW12>
9.226

> <Bond>
0.258

> <Angle>
1.499

> <Pdih>
2.106

> <Idih>
0.000

> <Tether>
0.000

$$$$
VeraChem MOL file


 26 25  0  0  0  0  0  0  0  0999 V2000     
   18.2575   16.3450   21.1818 C   0  0  0  0  0  0  0  0  0  0  0  0
   18.8850   16.7622   20.3846 H   0  0  0  0  0  0  0  0  0  0  0  0
   18.8211   15.5468   21.6820 H   0  0  0  0  0  0  0  0  0  0  0  0
   17.3805   15.8884   20.7051 H   0  0  0  0  0  0  0  0  0  0  0  0
   17.8199   17.4322   22.1895 C   0  0  0  0  0  0  0  0  0  0  0  0
   17.0946   16.9932   22.8888 H   0  0  0  0  0  0  0  0  0  0  0  0
   17.2883   18.2351   21.6599 H   0  0  0  0  0  0  0  0  0  0  0  0
   18.9938   18.0286   23.0033 C   0  0  0  0  0  0  0  0  0  0  0  0
   18.5728   18.6881   23.7733 H   0  0  0  0  0  0  0  0  0  0  0  0
   19.5152   17.2226   23.5378 H   0  0  0  0  0  0  0  0  0  0  0  0
   20.0057   18.8198   22.1358 C   0  0  0  0  0  0  0  0  0  0  0  0
   19.4820   19.6076   21.5784 H   0  0  0  0  0  0  0  0  0  0  0  0
   20.4412   18.1522   21.3812 H   0  0  0  0  0  0  0  0  0  0  0  0
   21.1677   19.4334   22.9589 C   0  0  0  0  0  0  0  0  0  0  0  0
   21.7308   18.6197   23.4351 H   0  0  0  0  0  0  0  0  0  0  0  0
   21.8675   19.9293   22.2732 H   0  0  0  0  0  0  0  0  0  0  0  0
   20.7202   20.4384   24.0443 C   0  0  1  0  0  0  0  0  0  0  0  0
   20.0448   19.9238   24.7341 H   0  0  0  0  0  0  0  0  0  0  0  0
   21.9338   20.9349   24.8460 C   0  0  0  0  0  0  0  0  0  0  0  0
   21.6187   21.6181   25.6442 H   0  0  0  0  0  0  0  0  0  0  0  0
   22.6450   21.4669   24.2017 H   0  0  0  0  0  0  0  0  0  0  0  0
   22.4606   20.0949   25.3157 H   0  0  0  0  0  0  0  0  0  0  0  0
   19.9528   21.5983   23.4714 N   0  3  0  0  0  0  0  0  0  0  0  0
   19.1204   21.2805   22.9678 H   0  0  0  0  0  0  0  0  0  0  0  0
   19.6418   22.2412   24.2051 H   0  0  0  0  0  0  0  0  0  0  0  0
   20.5246   22.1358   22.8146 H   0  0  0  0  0  0  0  0  0  0  0  0
  1  2  1  0  0  0  0
  1  3  1  0  0  0  0
  1  4  1  0  0  0  0
  1  5  1  0  0  0  0
  5  6  1  0  0  0  0
  5  7  1  0  0  0  0
  5  8  1  0  0  0  0
  8  9  1  0  0  0  0
  8 10  1  0  0  0  0
  8 11  1  0  0  0  0
 11 12  1  0  0  0  0
 11 13  1  0  0  0  0
 11 14  1  0  0  0  0
 14 15  1  0  0  0  0
 14 16  1  0  0  0  0
 14 17  1  0  0  0  0
 17 18  1  0  0  0  0
 17 19  1  0  0  0  0
 19 20  1  0  0  0  0
 19 21  1  0  0  0  0
 19 22  1  0  0  0  0
 17 23  1  0  0  0  0
 23 24  1  0  0  0  0
 23 25  1  0  0  0  0
 23 26  1  0  0  0  0
M  END
> <VConfSearch Rank>
567

> <Conf_Id>
113

> <Delta U+W>
1.137

> <U+W>
-29.162

> <U>
24.833

> <W>
-53.995

> <W(PB)>
-56.288

> <W(SA)>
2.294

> <Valence>
3.589

> <Coulomb>
20.270

> <VdW>
0.974

> <VdW6>
-8.255

> <VdW12>
9.229

> <Bond>
0.244

> <Angle>
1.377

> <Pdih>
1.967

> <Idih>
0.000

> <Tether>
0.000

$$$$
VeraChem MOL file


 26 25  0  0  0  0  0  0  0  0999 V2000     
   23.5123   17.8004   23.0185 C   0  0  0  0  0  0  0  0  0  0  0  0
   23.8657   16.9093   22.4837 H   0  0  0  0  0  0  0  0  0  0  0  0
   24.0210   18.6742   22.5908 H   0  0  0  0  0  0  0  0  0  0  0  0
   23.8186   17.7064   24.0685 H   0  0  0  0  0  0  0  0  0  0  0  0
   21.9796   17.9368   22.8970 C   0  0  0  0  0  0  0  0  0  0  0  0
   21.5005   17.0363   23.3060 H   0  0  0  0  0  0  0  0  0  0  0  0
   21.7102   17.9865   21.8338 H   0  0  0  0  0  0  0  0  0  0  0  0
   21.4583   19.1896   23.6401 C   0  0  0  0  0  0  0  0  0  0  0  0
   21.8083   19.1578   24.6812 H   0  0  0  0  0  0  0  0  0  0  0  0
   21.8972   20.0935   23.1956 H   0  0  0  0  0  0  0  0  0  0  0  0
   19.9144   19.3099   23.6455 C   0  0  0  0  0  0  0  0  0  0  0  0
   19.6403   20.1534   24.2924 H   0  0  0  0  0  0  0  0  0  0  0  0
   19.4868   18.4112   24.1093 H   0  0  0  0  0  0  0  0  0  0  0  0
   19.3087   19.5219   22.2311 C   0  0  0  0  0  0  0  0  0  0  0  0
   19.8231   20.3575   21.7389 H   0  0  0  0  0  0  0  0  0  0  0  0
   19.5017   18.6383   21.6100 H   0  0  0  0  0  0  0  0  0  0  0  0
   17.7876   19.8035   22.2118 C   0  0  1  0  0  0  0  0  0  0  0  0
   17.4960   19.9413   21.1659 H   0  0  0  0  0  0  0  0  0  0  0  0
   16.9745   18.6224   22.7698 C   0  0  0  0  0  0  0  0  0  0  0  0
   17.1469   18.4830   23.8437 H   0  0  0  0  0  0  0  0  0  0  0  0
   17.2379   17.6900   22.2551 H   0  0  0  0  0  0  0  0  0  0  0  0
   15.9009   18.7918   22.6221 H   0  0  0  0  0  0  0  0  0  0  0  0
   17.4301   21.0843   22.9149 N   0  3  0  0  0  0  0  0  0  0  0  0
   17.9355   21.8829   22.5208 H   0  0  0  0  0  0  0  0  0  0  0  0
   16.4295   21.2872   22.8367 H   0  0  0  0  0  0  0  0  0  0  0  0
   17.6563   21.0376   23.9113 H   0  0  0  0  0  0  0  0  0  0  0  0
  1  2  1  0  0  0  0
  1  3  1  0  0  0  0
  1  4  1  0  0  0  0
  1  5  1  0  0  0  0
  5  6  1  0  0  0  0
  5  7  1  0  0  0  0
  5  8  1  0  0  0  0
  8  9  1  0  0  0  0
  8 10  1  0  0  0  0
  8 11  1  0  0  0  0
 11 12  1  0  0  0  0
 11 13  1  0  0  0  0
 11 14  1  0  0  0  0
 14 15  1  0  0  0  0
 14 16  1  0  0  0  0
 14 17  1  0  0  0  0
 17 18  1  0  0  0  0
 17 19  1  0  0  0  0
 19 20  1  0  0  0  0
 19 21  1  0  0  0  0
 19 22  1  0  0  0  0
 17 23  1  0  0  0  0
 23 24  1  0  0  0  0
 23 25  1  0  0  0  0
 23 26  1  0  0  0  0
M  END
> <VConfSearch Rank>
568

> <Conf_Id>
45

> <Delta U+W>
1.035

> <U+W>
-29.264

> <U>
24.725

> <W>
-53.989

> <W(PB)>
-56.298

> <W(SA)>
2.309

> <Valence>
3.780

> <Coulomb>
19.804

> <VdW>
1.141

> <VdW6>
-8.104

> <VdW12>
9.246

> <Bond>
0.254

> <Angle>
1.437

> <Pdih>
2.089

> <Idih>
0.000

> <Tether>
0.000

$$$$
VeraChem MOL file


 26 25  0  0  0  0  0  0  0  0999 V2000     
   20.1112   20.7503   26.5746 C   0  0  0  0  0  0  0  0  0  0  0  0
   20.1859   20.1638   27.4995 H   0  0  0  0  0  0  0  0  0  0  0  0
   20.8809   21.5323   26.6088 H   0  0  0  0  0  0  0  0  0  0  0  0
   19.1279   21.2385   26.5635 H   0  0  0  0  0  0  0  0  0  0  0  0
   20.2942   19.8443   25.3385 C   0  0  0  0  0  0  0  0  0  0  0  0
   19.5337   19.0528   25.3629 H   0  0  0  0  0  0  0  0  0  0  0  0
   21.2733   19.3483   25.3927 H   0  0  0  0  0  0  0  0  0  0  0  0
   20.1881   20.6493   24.0214 C   0  0  0  0  0  0  0  0  0  0  0  0
   19.1887   21.0987   23.9410 H   0  0  0  0  0  0  0  0  0  0  0  0
   20.8994   21.4860   24.0584 H   0  0  0  0  0  0  0  0  0  0  0  0
   20.4848   19.8112   22.7533 C   0  0  0  0  0  0  0  0  0  0  0  0
   21.4853   19.3641   22.8345 H   0  0  0  0  0  0  0  0  0  0  0  0
   20.5211   20.4959   21.8958 H   0  0  0  0  0  0  0  0  0  0  0  0
   19.4362   18.7009   22.4855 C   0  0  0  0  0  0  0  0  0  0  0  0
   19.4197   18.0053   23.3335 H   0  0  0  0  0  0  0  0  0  0  0  0
   18.4334   19.1439   22.4222 H   0  0  0  0  0  0  0  0  0  0  0  0
   19.7284   17.8936   21.2016 C   0  0  1  0  0  0  0  0  0  0  0  0
   20.7444   17.4929   21.2725 H   0  0  0  0  0  0  0  0  0  0  0  0
   18.7519   16.7128   21.0792 C   0  0  0  0  0  0  0  0  0  0  0  0
   17.7143   17.0616   21.0045 H   0  0  0  0  0  0  0  0  0  0  0  0
   18.8280   16.0514   21.9513 H   0  0  0  0  0  0  0  0  0  0  0  0
   18.9762   16.1141   20.1878 H   0  0  0  0  0  0  0  0  0  0  0  0
   19.6831   18.7437   19.9610 N   0  3  0  0  0  0  0  0  0  0  0  0
   20.3621   19.5081   20.0056 H   0  0  0  0  0  0  0  0  0  0  0  0
   19.8959   18.1946   19.1234 H   0  0  0  0  0  0  0  0  0  0  0  0
   18.7580   19.1601   19.8273 H   0  0  0  0  0  0  0  0  0  0  0  0
  1  2  1  0  0  0  0
  1  3  1  0  0  0  0
  1  4  1  0  0  0  0
  1  5  1  0  0  0  0
  5  6  1  0  0  0  0
  5  7  1  0  0  0  0
  5  8  1  0  0  0  0
  8  9  1  0  0  0  0
  8 10  1  0  0  0  0
  8 11  1  0  0  0  0
 11 12  1  0  0  0  0
 11 13  1  0  0  0  0
 11 14  1  0  0  0  0
 14 15  1  0  0  0  0
 14 16  1  0  0  0  0
 14 17  1  0  0  0  0
 17 18  1  0  0  0  0
 17 19  1  0  0  0  0
 19 20  1  0  0  0  0
 19 21  1  0  0  0  0
 19 22  1  0  0  0  0
 17 23  1  0  0  0  0
 23 24  1  0  0  0  0
 23 25  1  0  0  0  0
 23 26  1  0  0  0  0
M  END
> <VConfSearch Rank>
569

> <Conf_Id>
121

> <Delta U+W>
0.736

> <U+W>
-29.562

> <U>
24.282

> <W>
-53.844

> <W(PB)>
-56.205

> <W(SA)>
2.361

> <Valence>
3.311

> <Coulomb>
19.887

> <VdW>
1.083

> <VdW6>
-7.444

> <VdW12>
8.527

> <Bond>
0.219

> <Angle>
1.167

> <Pdih>
1.926

> <Idih>
0.000

> <Tether>
0.000

$$$$
VeraChem MOL file


 26 25  0  0  0  0  0  0  0  0999 V2000     
   17.3774   21.4164   21.4023 C   0  0  0  0  0  0  0  0  0  0  0  0
   17.1318   22.2534   20.7358 H   0  0  0  0  0  0  0  0  0  0  0  0
   16.5770   20.6706   21.3130 H   0  0  0  0  0  0  0  0  0  0  0  0
   17.3756   21.8024   22.4290 H   0  0  0  0  0  0  0  0  0  0  0  0
   18.7477   20.8094   21.0246 C   0  0  0  0  0  0  0  0  0  0  0  0
   19.5355   21.5645   21.1549 H   0  0  0  0  0  0  0  0  0  0  0  0
   18.7386   20.5565   19.9552 H   0  0  0  0  0  0  0  0  0  0  0  0
   19.1032   19.5370   21.8313 C   0  0  0  0  0  0  0  0  0  0  0  0
   18.3168   18.7826   21.6910 H   0  0  0  0  0  0  0  0  0  0  0  0
   20.0210   19.1107   21.4057 H   0  0  0  0  0  0  0  0  0  0  0  0
   19.3083   19.8037   23.3441 C   0  0  0  0  0  0  0  0  0  0  0  0
   18.3852   20.2156   23.7720 H   0  0  0  0  0  0  0  0  0  0  0  0
   20.0769   20.5748   23.4858 H   0  0  0  0  0  0  0  0  0  0  0  0
   19.6781   18.5284   24.1455 C   0  0  0  0  0  0  0  0  0  0  0  0
   19.7784   18.7916   25.2068 H   0  0  0  0  0  0  0  0  0  0  0  0
   18.8367   17.8256   24.0850 H   0  0  0  0  0  0  0  0  0  0  0  0
   20.9629   17.8042   23.6778 C   0  0  1  0  0  0  0  0  0  0  0  0
   20.8450   17.5366   22.6237 H   0  0  0  0  0  0  0  0  0  0  0  0
   22.2119   18.6926   23.8177 C   0  0  0  0  0  0  0  0  0  0  0  0
   22.3413   19.0353   24.8519 H   0  0  0  0  0  0  0  0  0  0  0  0
   22.1477   19.5739   23.1688 H   0  0  0  0  0  0  0  0  0  0  0  0
   23.1138   18.1403   23.5267 H   0  0  0  0  0  0  0  0  0  0  0  0
   21.1567   16.5112   24.4203 N   0  3  0  0  0  0  0  0  0  0  0  0
   20.3538   15.8861   24.3055 H   0  0  0  0  0  0  0  0  0  0  0  0
   21.9838   16.0083   24.0866 H   0  0  0  0  0  0  0  0  0  0  0  0
   21.2810   16.6707   25.4236 H   0  0  0  0  0  0  0  0  0  0  0  0
  1  2  1  0  0  0  0
  1  3  1  0  0  0  0
  1  4  1  0  0  0  0
  1  5  1  0  0  0  0
  5  6  1  0  0  0  0
  5  7  1  0  0  0  0
  5  8  1  0  0  0  0
  8  9  1  0  0  0  0
  8 10  1  0  0  0  0
  8 11  1  0  0  0  0
 11 12  1  0  0  0  0
 11 13  1  0  0  0  0
 11 14  1  0  0  0  0
 14 15  1  0  0  0  0
 14 16  1  0  0  0  0
 14 17  1  0  0  0  0
 17 18  1  0  0  0  0
 17 19  1  0  0  0  0
 19 20  1  0  0  0  0
 19 21  1  0  0  0  0
 19 22  1  0  0  0  0
 17 23  1  0  0  0  0
 23 24  1  0  0  0  0
 23 25  1  0  0  0  0
 23 26  1  0  0  0  0
M  END
> <VConfSearch Rank>
570

> <Conf_Id>
5

> <Delta U+W>
1.233

> <U+W>
-29.065

> <U>
25.023

> <W>
-54.088

> <W(PB)>
-56.383

> <W(SA)>
2.296

> <Valence>
4.083

> <Coulomb>
19.893

> <VdW>
1.047

> <VdW6>
-8.479

> <VdW12>
9.527

> <Bond>
0.256

> <Angle>
1.716

> <Pdih>
2.112

> <Idih>
0.000

> <Tether>
0.000

$$$$
VeraChem MOL file


 26 25  0  0  0  0  0  0  0  0999 V2000     
   21.5252   19.3082   19.7074 C   0  0  0  0  0  0  0  0  0  0  0  0
   21.7788   18.9161   18.7140 H   0  0  0  0  0  0  0  0  0  0  0  0
   20.8330   20.1466   19.5627 H   0  0  0  0  0  0  0  0  0  0  0  0
   22.4470   19.6965   20.1598 H   0  0  0  0  0  0  0  0  0  0  0  0
   20.9009   18.1979   20.5830 C   0  0  0  0  0  0  0  0  0  0  0  0
   21.5782   17.3324   20.5890 H   0  0  0  0  0  0  0  0  0  0  0  0
   19.9630   17.8504   20.1277 H   0  0  0  0  0  0  0  0  0  0  0  0
   20.6438   18.6348   22.0456 C   0  0  0  0  0  0  0  0  0  0  0  0
   20.3370   17.7467   22.6131 H   0  0  0  0  0  0  0  0  0  0  0  0
   21.5835   18.9858   22.4937 H   0  0  0  0  0  0  0  0  0  0  0  0
   19.5562   19.7298   22.1802 C   0  0  0  0  0  0  0  0  0  0  0  0
   18.6119   19.3610   21.7565 H   0  0  0  0  0  0  0  0  0  0  0  0
   19.8406   20.6054   21.5828 H   0  0  0  0  0  0  0  0  0  0  0  0
   19.3146   20.2043   23.6359 C   0  0  0  0  0  0  0  0  0  0  0  0
   20.2305   20.6548   24.0412 H   0  0  0  0  0  0  0  0  0  0  0  0
   18.5780   21.0177   23.5982 H   0  0  0  0  0  0  0  0  0  0  0  0
   18.7955   19.0912   24.5785 C   0  0  1  0  0  0  0  0  0  0  0  0
   18.4070   18.2752   23.9615 H   0  0  0  0  0  0  0  0  0  0  0  0
   19.9183   18.5400   25.4764 C   0  0  0  0  0  0  0  0  0  0  0  0
   20.3003   19.3157   26.1518 H   0  0  0  0  0  0  0  0  0  0  0  0
   20.7604   18.1662   24.8834 H   0  0  0  0  0  0  0  0  0  0  0  0
   19.5495   17.7085   26.0894 H   0  0  0  0  0  0  0  0  0  0  0  0
   17.6434   19.5617   25.4236 N   0  3  0  0  0  0  0  0  0  0  0  0
   16.8630   19.8898   24.8474 H   0  0  0  0  0  0  0  0  0  0  0  0
   17.2859   18.8103   26.0203 H   0  0  0  0  0  0  0  0  0  0  0  0
   17.9194   20.3333   26.0369 H   0  0  0  0  0  0  0  0  0  0  0  0
  1  2  1  0  0  0  0
  1  3  1  0  0  0  0
  1  4  1  0  0  0  0
  1  5  1  0  0  0  0
  5  6  1  0  0  0  0
  5  7  1  0  0  0  0
  5  8  1  0  0  0  0
  8  9  1  0  0  0  0
  8 10  1  0  0  0  0
  8 11  1  0  0  0  0
 11 12  1  0  0  0  0
 11 13  1  0  0  0  0
 11 14  1  0  0  0  0
 14 15  1  0  0  0  0
 14 16  1  0  0  0  0
 14 17  1  0  0  0  0
 17 18  1  0  0  0  0
 17 19  1  0  0  0  0
 19 20  1  0  0  0  0
 19 21  1  0  0  0  0
 19 22  1  0  0  0  0
 17 23  1  0  0  0  0
 23 24  1  0  0  0  0
 23 25  1  0  0  0  0
 23 26  1  0  0  0  0
M  END
> <VConfSearch Rank>
571

> <Conf_Id>
100

> <Delta U+W>
3.818

> <U+W>
-26.481

> <U>
27.496

> <W>
-53.977

> <W(PB)>
-56.267

> <W(SA)>
2.290

> <Valence>
6.472

> <Coulomb>
19.839

> <VdW>
1.185

> <VdW6>
-8.405

> <VdW12>
9.590

> <Bond>
0.248

> <Angle>
1.619

> <Pdih>
4.604

> <Idih>
0.000

> <Tether>
0.000

$$$$
VeraChem MOL file


 26 25  0  0  0  0  0  0  0  0999 V2000     
   21.6647   22.2472   23.5665 C   0  0  0  0  0  0  0  0  0  0  0  0
   22.4371   22.6520   24.2332 H   0  0  0  0  0  0  0  0  0  0  0  0
   22.1325   22.0413   22.5949 H   0  0  0  0  0  0  0  0  0  0  0  0
   20.9034   23.0248   23.4216 H   0  0  0  0  0  0  0  0  0  0  0  0
   21.0437   20.9675   24.1657 C   0  0  0  0  0  0  0  0  0  0  0  0
   20.6151   21.1975   25.1513 H   0  0  0  0  0  0  0  0  0  0  0  0
   21.8340   20.2216   24.3299 H   0  0  0  0  0  0  0  0  0  0  0  0
   19.9519   20.3768   23.2464 C   0  0  0  0  0  0  0  0  0  0  0  0
   19.1664   21.1282   23.0864 H   0  0  0  0  0  0  0  0  0  0  0  0
   20.3867   20.1648   22.2625 H   0  0  0  0  0  0  0  0  0  0  0  0
   19.3238   19.0967   23.8503 C   0  0  0  0  0  0  0  0  0  0  0  0
   18.8815   19.3613   24.8208 H   0  0  0  0  0  0  0  0  0  0  0  0
   20.1051   18.3571   24.0680 H   0  0  0  0  0  0  0  0  0  0  0  0
   18.2106   18.4732   22.9623 C   0  0  0  0  0  0  0  0  0  0  0  0
   17.4343   18.0625   23.6213 H   0  0  0  0  0  0  0  0  0  0  0  0
   17.7100   19.2601   22.3829 H   0  0  0  0  0  0  0  0  0  0  0  0
   18.6565   17.3372   22.0082 C   0  0  1  0  0  0  0  0  0  0  0  0
   17.7690   17.0182   21.4529 H   0  0  0  0  0  0  0  0  0  0  0  0
   19.7037   17.7946   20.9800 C   0  0  0  0  0  0  0  0  0  0  0  0
   20.6666   18.0125   21.4569 H   0  0  0  0  0  0  0  0  0  0  0  0
   19.3644   18.6931   20.4501 H   0  0  0  0  0  0  0  0  0  0  0  0
   19.8724   17.0110   20.2312 H   0  0  0  0  0  0  0  0  0  0  0  0
   19.1346   16.1212   22.7538 N   0  3  0  0  0  0  0  0  0  0  0  0
   18.4225   15.7741   23.4025 H   0  0  0  0  0  0  0  0  0  0  0  0
   19.3631   15.3557   22.1133 H   0  0  0  0  0  0  0  0  0  0  0  0
   19.9750   16.3252   23.2999 H   0  0  0  0  0  0  0  0  0  0  0  0
  1  2  1  0  0  0  0
  1  3  1  0  0  0  0
  1  4  1  0  0  0  0
  1  5  1  0  0  0  0
  5  6  1  0  0  0  0
  5  7  1  0  0  0  0
  5  8  1  0  0  0  0
  8  9  1  0  0  0  0
  8 10  1  0  0  0  0
  8 11  1  0  0  0  0
 11 12  1  0  0  0  0
 11 13  1  0  0  0  0
 11 14  1  0  0  0  0
 14 15  1  0  0  0  0
 14 16  1  0  0  0  0
 14 17  1  0  0  0  0
 17 18  1  0  0  0  0
 17 19  1  0  0  0  0
 19 20  1  0  0  0  0
 19 21  1  0  0  0  0
 19 22  1  0  0  0  0
 17 23  1  0  0  0  0
 23 24  1  0  0  0  0
 23 25  1  0  0  0  0
 23 26  1  0  0  0  0
M  END
> <VConfSearch Rank>
572

> <Conf_Id>
142

> <Delta U+W>
2.978

> <U+W>
-27.320

> <U>
26.848

> <W>
-54.168

> <W(PB)>
-56.427

> <W(SA)>
2.259

> <Valence>
5.823

> <Coulomb>
20.057

> <VdW>
0.968

> <VdW6>
-8.367

> <VdW12>
9.335

> <Bond>
0.267

> <Angle>
1.799

> <Pdih>
3.758

> <Idih>
0.000

> <Tether>
0.000

$$$$
VeraChem MOL file


 26 25  0  0  0  0  0  0  0  0999 V2000     
   20.0188   22.3926   24.1105 C   0  0  0  0  0  0  0  0  0  0  0  0
   21.1130   22.3888   24.1981 H   0  0  0  0  0  0  0  0  0  0  0  0
   19.6897   23.4390   24.0685 H   0  0  0  0  0  0  0  0  0  0  0  0
   19.5989   21.9532   25.0235 H   0  0  0  0  0  0  0  0  0  0  0  0
   19.5595   21.6312   22.8461 C   0  0  0  0  0  0  0  0  0  0  0  0
   19.8974   22.1873   21.9604 H   0  0  0  0  0  0  0  0  0  0  0  0
   18.4616   21.6177   22.7993 H   0  0  0  0  0  0  0  0  0  0  0  0
   20.1066   20.1856   22.7602 C   0  0  0  0  0  0  0  0  0  0  0  0
   19.8558   19.7969   21.7665 H   0  0  0  0  0  0  0  0  0  0  0  0
   21.2029   20.2044   22.8293 H   0  0  0  0  0  0  0  0  0  0  0  0
   19.5250   19.2411   23.8423 C   0  0  0  0  0  0  0  0  0  0  0  0
   18.4348   19.1758   23.7279 H   0  0  0  0  0  0  0  0  0  0  0  0
   19.6928   19.6825   24.8327 H   0  0  0  0  0  0  0  0  0  0  0  0
   20.1460   17.8156   23.8627 C   0  0  0  0  0  0  0  0  0  0  0  0
   21.2158   17.8898   24.0982 H   0  0  0  0  0  0  0  0  0  0  0  0
   19.7006   17.2717   24.7061 H   0  0  0  0  0  0  0  0  0  0  0  0
   19.9690   16.9365   22.5981 C   0  0  1  0  0  0  0  0  0  0  0  0
   20.2519   15.9180   22.8816 H   0  0  0  0  0  0  0  0  0  0  0  0
   18.5093   16.8874   22.1139 C   0  0  0  0  0  0  0  0  0  0  0  0
   18.1788   17.8576   21.7241 H   0  0  0  0  0  0  0  0  0  0  0  0
   17.8382   16.5983   22.9322 H   0  0  0  0  0  0  0  0  0  0  0  0
   18.3951   16.1473   21.3125 H   0  0  0  0  0  0  0  0  0  0  0  0
   20.9058   17.3086   21.4817 N   0  3  0  0  0  0  0  0  0  0  0  0
   21.8831   17.2708   21.7848 H   0  0  0  0  0  0  0  0  0  0  0  0
   20.8091   16.6719   20.6855 H   0  0  0  0  0  0  0  0  0  0  0  0
   20.7249   18.2553   21.1427 H   0  0  0  0  0  0  0  0  0  0  0  0
  1  2  1  0  0  0  0
  1  3  1  0  0  0  0
  1  4  1  0  0  0  0
  1  5  1  0  0  0  0
  5  6  1  0  0  0  0
  5  7  1  0  0  0  0
  5  8  1  0  0  0  0
  8  9  1  0  0  0  0
  8 10  1  0  0  0  0
  8 11  1  0  0  0  0
 11 12  1  0  0  0  0
 11 13  1  0  0  0  0
 11 14  1  0  0  0  0
 14 15  1  0  0  0  0
 14 16  1  0  0  0  0
 14 17  1  0  0  0  0
 17 18  1  0  0  0  0
 17 19  1  0  0  0  0
 19 20  1  0  0  0  0
 19 21  1  0  0  0  0
 19 22  1  0  0  0  0
 17 23  1  0  0  0  0
 23 24  1  0  0  0  0
 23 25  1  0  0  0  0
 23 26  1  0  0  0  0
M  END
> <VConfSearch Rank>
573

> <Conf_Id>
119

> <Delta U+W>
3.538

> <U+W>
-26.761

> <U>
27.482

> <W>
-54.243

> <W(PB)>
-56.494

> <W(SA)>
2.251

> <Valence>
5.284

> <Coulomb>
21.247

> <VdW>
0.951

> <VdW6>
-9.416

> <VdW12>
10.367

> <Bond>
0.323

> <Angle>
2.522

> <Pdih>
2.439

> <Idih>
0.000

> <Tether>
0.000

$$$$
VeraChem MOL file


 26 25  0  0  0  0  0  0  0  0999 V2000     
   22.9379   17.7531   21.9104 C   0  0  0  0  0  0  0  0  0  0  0  0
   23.6006   17.9972   22.7508 H   0  0  0  0  0  0  0  0  0  0  0  0
   22.3309   16.8836   22.1917 H   0  0  0  0  0  0  0  0  0  0  0  0
   23.5675   17.4549   21.0621 H   0  0  0  0  0  0  0  0  0  0  0  0
   22.0548   18.9629   21.5294 C   0  0  0  0  0  0  0  0  0  0  0  0
   21.3801   18.6836   20.7082 H   0  0  0  0  0  0  0  0  0  0  0  0
   22.6996   19.7625   21.1385 H   0  0  0  0  0  0  0  0  0  0  0  0
   21.2321   19.5236   22.7145 C   0  0  0  0  0  0  0  0  0  0  0  0
   21.9144   19.8256   23.5209 H   0  0  0  0  0  0  0  0  0  0  0  0
   20.7318   20.4405   22.3815 H   0  0  0  0  0  0  0  0  0  0  0  0
   20.1880   18.5199   23.2682 C   0  0  0  0  0  0  0  0  0  0  0  0
   20.7245   17.6655   23.7014 H   0  0  0  0  0  0  0  0  0  0  0  0
   19.5824   18.1125   22.4485 H   0  0  0  0  0  0  0  0  0  0  0  0
   19.2784   19.1240   24.3746 C   0  0  0  0  0  0  0  0  0  0  0  0
   19.0850   18.3461   25.1249 H   0  0  0  0  0  0  0  0  0  0  0  0
   19.8183   19.9148   24.9118 H   0  0  0  0  0  0  0  0  0  0  0  0
   17.9056   19.6661   23.9043 C   0  0  1  0  0  0  0  0  0  0  0  0
   17.3960   20.0609   24.7888 H   0  0  0  0  0  0  0  0  0  0  0  0
   18.0313   20.8166   22.8924 C   0  0  0  0  0  0  0  0  0  0  0  0
   18.4367   20.4676   21.9352 H   0  0  0  0  0  0  0  0  0  0  0  0
   18.6842   21.6079   23.2808 H   0  0  0  0  0  0  0  0  0  0  0  0
   17.0489   21.2632   22.6962 H   0  0  0  0  0  0  0  0  0  0  0  0
   17.0163   18.5773   23.3686 N   0  3  0  0  0  0  0  0  0  0  0  0
   16.8806   17.8308   24.0561 H   0  0  0  0  0  0  0  0  0  0  0  0
   16.0901   18.9381   23.1230 H   0  0  0  0  0  0  0  0  0  0  0  0
   17.4130   18.1524   22.5271 H   0  0  0  0  0  0  0  0  0  0  0  0
  1  2  1  0  0  0  0
  1  3  1  0  0  0  0
  1  4  1  0  0  0  0
  1  5  1  0  0  0  0
  5  6  1  0  0  0  0
  5  7  1  0  0  0  0
  5  8  1  0  0  0  0
  8  9  1  0  0  0  0
  8 10  1  0  0  0  0
  8 11  1  0  0  0  0
 11 12  1  0  0  0  0
 11 13  1  0  0  0  0
 11 14  1  0  0  0  0
 14 15  1  0  0  0  0
 14 16  1  0  0  0  0
 14 17  1  0  0  0  0
 17 18  1  0  0  0  0
 17 19  1  0  0  0  0
 19 20  1  0  0  0  0
 19 21  1  0  0  0  0
 19 22  1  0  0  0  0
 17 23  1  0  0  0  0
 23 24  1  0  0  0  0
 23 25  1  0  0  0  0
 23 26  1  0  0  0  0
M  END
> <VConfSearch Rank>
574

> <Conf_Id>
127

> <Delta U+W>
3.544

> <U+W>
-26.754

> <U>
27.509

> <W>
-54.263

> <W(PB)>
-56.496

> <W(SA)>
2.232

> <Valence>
6.375

> <Coulomb>
20.014

> <VdW>
1.120

> <VdW6>
-8.976

> <VdW12>
10.096

> <Bond>
0.304

> <Angle>
1.986

> <Pdih>
4.086

> <Idih>
0.000

> <Tether>
0.000

$$$$
VeraChem MOL file


 26 25  0  0  0  0  0  0  0  0999 V2000     
   17.0567   17.8351   22.1323 C   0  0  0  0  0  0  0  0  0  0  0  0
   16.2193   18.0774   21.4653 H   0  0  0  0  0  0  0  0  0  0  0  0
   16.8027   16.9074   22.6614 H   0  0  0  0  0  0  0  0  0  0  0  0
   17.1319   18.6366   22.8753 H   0  0  0  0  0  0  0  0  0  0  0  0
   18.3630   17.6673   21.3214 C   0  0  0  0  0  0  0  0  0  0  0  0
   18.5691   18.5744   20.7364 H   0  0  0  0  0  0  0  0  0  0  0  0
   18.2045   16.8647   20.5875 H   0  0  0  0  0  0  0  0  0  0  0  0
   19.5881   17.3001   22.1980 C   0  0  0  0  0  0  0  0  0  0  0  0
   19.2654   16.7440   23.0890 H   0  0  0  0  0  0  0  0  0  0  0  0
   20.2187   16.6036   21.6282 H   0  0  0  0  0  0  0  0  0  0  0  0
   20.4774   18.5010   22.6120 C   0  0  0  0  0  0  0  0  0  0  0  0
   20.8764   18.9791   21.7075 H   0  0  0  0  0  0  0  0  0  0  0  0
   21.3427   18.1024   23.1566 H   0  0  0  0  0  0  0  0  0  0  0  0
   19.7508   19.5568   23.4872 C   0  0  0  0  0  0  0  0  0  0  0  0
   18.9484   20.0201   22.9006 H   0  0  0  0  0  0  0  0  0  0  0  0
   19.2647   19.0571   24.3354 H   0  0  0  0  0  0  0  0  0  0  0  0
   20.6549   20.6907   24.0266 C   0  0  1  0  0  0  0  0  0  0  0  0
   20.0071   21.3978   24.5540 H   0  0  0  0  0  0  0  0  0  0  0  0
   21.6942   20.1748   25.0375 C   0  0  0  0  0  0  0  0  0  0  0  0
   21.2098   19.5980   25.8351 H   0  0  0  0  0  0  0  0  0  0  0  0
   22.2200   21.0147   25.5079 H   0  0  0  0  0  0  0  0  0  0  0  0
   22.4462   19.5364   24.5594 H   0  0  0  0  0  0  0  0  0  0  0  0
   21.3155   21.4726   22.9246 N   0  3  0  0  0  0  0  0  0  0  0  0
   20.6265   21.8603   22.2739 H   0  0  0  0  0  0  0  0  0  0  0  0
   21.8600   22.2561   23.2962 H   0  0  0  0  0  0  0  0  0  0  0  0
   21.9539   20.8844   22.3836 H   0  0  0  0  0  0  0  0  0  0  0  0
  1  2  1  0  0  0  0
  1  3  1  0  0  0  0
  1  4  1  0  0  0  0
  1  5  1  0  0  0  0
  5  6  1  0  0  0  0
  5  7  1  0  0  0  0
  5  8  1  0  0  0  0
  8  9  1  0  0  0  0
  8 10  1  0  0  0  0
  8 11  1  0  0  0  0
 11 12  1  0  0  0  0
 11 13  1  0  0  0  0
 11 14  1  0  0  0  0
 14 15  1  0  0  0  0
 14 16  1  0  0  0  0
 14 17  1  0  0  0  0
 17 18  1  0  0  0  0
 17 19  1  0  0  0  0
 19 20  1  0  0  0  0
 19 21  1  0  0  0  0
 19 22  1  0  0  0  0
 17 23  1  0  0  0  0
 23 24  1  0  0  0  0
 23 25  1  0  0  0  0
 23 26  1  0  0  0  0
M  END
> <VConfSearch Rank>
575

> <Conf_Id>
131

> <Delta U+W>
3.589

> <U+W>
-26.710

> <U>
27.573

> <W>
-54.283

> <W(PB)>
-56.537

> <W(SA)>
2.254

> <Valence>
6.363

> <Coulomb>
20.026

> <VdW>
1.184

> <VdW6>
-8.939

> <VdW12>
10.123

> <Bond>
0.298

> <Angle>
2.018

> <Pdih>
4.047

> <Idih>
0.000

> <Tether>
0.000

$$$$
VeraChem MOL file


 26 25  0  0  0  0  0  0  0  0999 V2000     
   19.7643   21.8470   22.3988 C   0  0  0  0  0  0  0  0  0  0  0  0
   19.0041   21.5984   21.6471 H   0  0  0  0  0  0  0  0  0  0  0  0
   19.4829   21.3799   23.3505 H   0  0  0  0  0  0  0  0  0  0  0  0
   19.7446   22.9341   22.5498 H   0  0  0  0  0  0  0  0  0  0  0  0
   21.1681   21.3914   21.9445 C   0  0  0  0  0  0  0  0  0  0  0  0
   21.8921   21.5879   22.7475 H   0  0  0  0  0  0  0  0  0  0  0  0
   21.4818   22.0126   21.0939 H   0  0  0  0  0  0  0  0  0  0  0  0
   21.2519   19.9023   21.5220 C   0  0  0  0  0  0  0  0  0  0  0  0
   20.6137   19.7225   20.6460 H   0  0  0  0  0  0  0  0  0  0  0  0
   22.2797   19.7136   21.1820 H   0  0  0  0  0  0  0  0  0  0  0  0
   20.9225   18.8880   22.6485 C   0  0  0  0  0  0  0  0  0  0  0  0
   21.1985   19.3178   23.6199 H   0  0  0  0  0  0  0  0  0  0  0  0
   21.5590   18.0023   22.5148 H   0  0  0  0  0  0  0  0  0  0  0  0
   19.4426   18.4216   22.6439 C   0  0  0  0  0  0  0  0  0  0  0  0
   18.7678   19.2712   22.7965 H   0  0  0  0  0  0  0  0  0  0  0  0
   19.2100   18.0204   21.6488 H   0  0  0  0  0  0  0  0  0  0  0  0
   19.1347   17.3287   23.6928 C   0  0  1  0  0  0  0  0  0  0  0  0
   19.8518   16.5128   23.5596 H   0  0  0  0  0  0  0  0  0  0  0  0
   19.2584   17.8579   25.1331 C   0  0  0  0  0  0  0  0  0  0  0  0
   18.6006   18.7205   25.2968 H   0  0  0  0  0  0  0  0  0  0  0  0
   20.2865   18.1618   25.3605 H   0  0  0  0  0  0  0  0  0  0  0  0
   18.9840   17.0793   25.8554 H   0  0  0  0  0  0  0  0  0  0  0  0
   17.7710   16.7343   23.4733 N   0  3  0  0  0  0  0  0  0  0  0  0
   17.0343   17.4363   23.5827 H   0  0  0  0  0  0  0  0  0  0  0  0
   17.6796   16.3360   22.5344 H   0  0  0  0  0  0  0  0  0  0  0  0
   17.5785   15.9832   24.1420 H   0  0  0  0  0  0  0  0  0  0  0  0
  1  2  1  0  0  0  0
  1  3  1  0  0  0  0
  1  4  1  0  0  0  0
  1  5  1  0  0  0  0
  5  6  1  0  0  0  0
  5  7  1  0  0  0  0
  5  8  1  0  0  0  0
  8  9  1  0  0  0  0
  8 10  1  0  0  0  0
  8 11  1  0  0  0  0
 11 12  1  0  0  0  0
 11 13  1  0  0  0  0
 11 14  1  0  0  0  0
 14 15  1  0  0  0  0
 14 16  1  0  0  0  0
 14 17  1  0  0  0  0
 17 18  1  0  0  0  0
 17 19  1  0  0  0  0
 19 20  1  0  0  0  0
 19 21  1  0  0  0  0
 19 22  1  0  0  0  0
 17 23  1  0  0  0  0
 23 24  1  0  0  0  0
 23 25  1  0  0  0  0
 23 26  1  0  0  0  0
M  END
> <VConfSearch Rank>
576

> <Conf_Id>
80

> <Delta U+W>
3.351

> <U+W>
-26.948

> <U>
27.261

> <W>
-54.209

> <W(PB)>
-56.471

> <W(SA)>
2.263

> <Valence>
6.230

> <Coulomb>
19.945

> <VdW>
1.087

> <VdW6>
-8.618

> <VdW12>
9.704

> <Bond>
0.277

> <Angle>
1.928

> <Pdih>
4.025

> <Idih>
0.000

> <Tether>
0.000

$$$$
VeraChem MOL file


 26 25  0  0  0  0  0  0  0  0999 V2000     
   20.5628   21.3272   25.2589 C   0  0  0  0  0  0  0  0  0  0  0  0
   21.4455   21.9294   25.5098 H   0  0  0  0  0  0  0  0  0  0  0  0
   19.7031   21.7518   25.7931 H   0  0  0  0  0  0  0  0  0  0  0  0
   20.7378   20.3124   25.6374 H   0  0  0  0  0  0  0  0  0  0  0  0
   20.3239   21.3274   23.7321 C   0  0  0  0  0  0  0  0  0  0  0  0
   21.1844   20.8742   23.2232 H   0  0  0  0  0  0  0  0  0  0  0  0
   20.2873   22.3684   23.3819 H   0  0  0  0  0  0  0  0  0  0  0  0
   19.0095   20.6219   23.3077 C   0  0  0  0  0  0  0  0  0  0  0  0
   18.1638   21.1983   23.7072 H   0  0  0  0  0  0  0  0  0  0  0  0
   18.9161   20.6855   22.2177 H   0  0  0  0  0  0  0  0  0  0  0  0
   18.8538   19.1470   23.7754 C   0  0  0  0  0  0  0  0  0  0  0  0
   17.8599   18.7779   23.4875 H   0  0  0  0  0  0  0  0  0  0  0  0
   18.8545   19.1307   24.8732 H   0  0  0  0  0  0  0  0  0  0  0  0
   19.9376   18.1560   23.2653 C   0  0  0  0  0  0  0  0  0  0  0  0
   20.9062   18.6550   23.1506 H   0  0  0  0  0  0  0  0  0  0  0  0
   20.0887   17.4039   24.0509 H   0  0  0  0  0  0  0  0  0  0  0  0
   19.5759   17.3941   21.9674 C   0  0  1  0  0  0  0  0  0  0  0  0
   18.6393   16.8546   22.1384 H   0  0  0  0  0  0  0  0  0  0  0  0
   19.3785   18.3248   20.7595 C   0  0  0  0  0  0  0  0  0  0  0  0
   18.4763   18.9347   20.8794 H   0  0  0  0  0  0  0  0  0  0  0  0
   19.2503   17.7428   19.8385 H   0  0  0  0  0  0  0  0  0  0  0  0
   20.2391   18.9917   20.6249 H   0  0  0  0  0  0  0  0  0  0  0  0
   20.6112   16.3498   21.6528 N   0  3  0  0  0  0  0  0  0  0  0  0
   20.7264   15.6877   22.4254 H   0  0  0  0  0  0  0  0  0  0  0  0
   20.3550   15.8072   20.8232 H   0  0  0  0  0  0  0  0  0  0  0  0
   21.5254   16.7724   21.4707 H   0  0  0  0  0  0  0  0  0  0  0  0
  1  2  1  0  0  0  0
  1  3  1  0  0  0  0
  1  4  1  0  0  0  0
  1  5  1  0  0  0  0
  5  6  1  0  0  0  0
  5  7  1  0  0  0  0
  5  8  1  0  0  0  0
  8  9  1  0  0  0  0
  8 10  1  0  0  0  0
  8 11  1  0  0  0  0
 11 12  1  0  0  0  0
 11 13  1  0  0  0  0
 11 14  1  0  0  0  0
 14 15  1  0  0  0  0
 14 16  1  0  0  0  0
 14 17  1  0  0  0  0
 17 18  1  0  0  0  0
 17 19  1  0  0  0  0
 19 20  1  0  0  0  0
 19 21  1  0  0  0  0
 19 22  1  0  0  0  0
 17 23  1  0  0  0  0
 23 24  1  0  0  0  0
 23 25  1  0  0  0  0
 23 26  1  0  0  0  0
M  END
> <VConfSearch Rank>
577

> <Conf_Id>
136

> <Delta U+W>
4.272

> <U+W>
-26.026

> <U>
28.262

> <W>
-54.288

> <W(PB)>
-56.488

> <W(SA)>
2.200

> <Valence>
7.096

> <Coulomb>
19.990

> <VdW>
1.175

> <VdW6>
-9.404

> <VdW12>
10.580

> <Bond>
0.360

> <Angle>
2.785

> <Pdih>
3.951

> <Idih>
0.000

> <Tether>
0.000

$$$$
VeraChem MOL file


 26 25  0  0  0  0  0  0  0  0999 V2000     
   17.1913   17.7947   22.6524 C   0  0  0  0  0  0  0  0  0  0  0  0
   17.4924   18.6764   22.0732 H   0  0  0  0  0  0  0  0  0  0  0  0
   16.2477   17.4298   22.2267 H   0  0  0  0  0  0  0  0  0  0  0  0
   16.9951   18.1050   23.6868 H   0  0  0  0  0  0  0  0  0  0  0  0
   18.2703   16.6913   22.5967 C   0  0  0  0  0  0  0  0  0  0  0  0
   18.4838   16.4433   21.5476 H   0  0  0  0  0  0  0  0  0  0  0  0
   17.8619   15.7764   23.0482 H   0  0  0  0  0  0  0  0  0  0  0  0
   19.5910   17.0514   23.3242 C   0  0  0  0  0  0  0  0  0  0  0  0
   19.4031   17.2020   24.3962 H   0  0  0  0  0  0  0  0  0  0  0  0
   20.2522   16.1761   23.2601 H   0  0  0  0  0  0  0  0  0  0  0  0
   20.3445   18.2710   22.7323 C   0  0  0  0  0  0  0  0  0  0  0  0
   20.1196   18.3676   21.6611 H   0  0  0  0  0  0  0  0  0  0  0  0
   21.4223   18.0724   22.8017 H   0  0  0  0  0  0  0  0  0  0  0  0
   20.0367   19.5996   23.4710 C   0  0  0  0  0  0  0  0  0  0  0  0
   18.9536   19.7620   23.5048 H   0  0  0  0  0  0  0  0  0  0  0  0
   20.3689   19.5255   24.5150 H   0  0  0  0  0  0  0  0  0  0  0  0
   20.6984   20.8248   22.8038 C   0  0  1  0  0  0  0  0  0  0  0  0
   20.3725   20.8636   21.7597 H   0  0  0  0  0  0  0  0  0  0  0  0
   20.2475   22.1200   23.4979 C   0  0  0  0  0  0  0  0  0  0  0  0
   20.5517   22.1323   24.5520 H   0  0  0  0  0  0  0  0  0  0  0  0
   19.1562   22.2255   23.4560 H   0  0  0  0  0  0  0  0  0  0  0  0
   20.6853   22.9971   23.0055 H   0  0  0  0  0  0  0  0  0  0  0  0
   22.1998   20.7312   22.7855 N   0  3  0  0  0  0  0  0  0  0  0  0
   22.5828   20.6878   23.7335 H   0  0  0  0  0  0  0  0  0  0  0  0
   22.5164   19.8958   22.2862 H   0  0  0  0  0  0  0  0  0  0  0  0
   22.6197   21.5419   22.3221 H   0  0  0  0  0  0  0  0  0  0  0  0
  1  2  1  0  0  0  0
  1  3  1  0  0  0  0
  1  4  1  0  0  0  0
  1  5  1  0  0  0  0
  5  6  1  0  0  0  0
  5  7  1  0  0  0  0
  5  8  1  0  0  0  0
  8  9  1  0  0  0  0
  8 10  1  0  0  0  0
  8 11  1  0  0  0  0
 11 12  1  0  0  0  0
 11 13  1  0  0  0  0
 11 14  1  0  0  0  0
 14 15  1  0  0  0  0
 14 16  1  0  0  0  0
 14 17  1  0  0  0  0
 17 18  1  0  0  0  0
 17 19  1  0  0  0  0
 19 20  1  0  0  0  0
 19 21  1  0  0  0  0
 19 22  1  0  0  0  0
 17 23  1  0  0  0  0
 23 24  1  0  0  0  0
 23 25  1  0  0  0  0
 23 26  1  0  0  0  0
M  END
> <VConfSearch Rank>
578

> <Conf_Id>
124

> <Delta U+W>
3.001

> <U+W>
-27.298

> <U>
26.787

> <W>
-54.085

> <W(PB)>
-56.347

> <W(SA)>
2.262

> <Valence>
5.742

> <Coulomb>
20.023

> <VdW>
1.022

> <VdW6>
-8.392

> <VdW12>
9.414

> <Bond>
0.261

> <Angle>
1.576

> <Pdih>
3.904

> <Idih>
0.000

> <Tether>
0.000

$$$$
VeraChem MOL file


 26 25  0  0  0  0  0  0  0  0999 V2000     
   19.0522   16.0768   23.1501 C   0  0  0  0  0  0  0  0  0  0  0  0
   19.0604   15.6713   24.1701 H   0  0  0  0  0  0  0  0  0  0  0  0
   18.8181   15.2510   22.4659 H   0  0  0  0  0  0  0  0  0  0  0  0
   20.0649   16.4232   22.9169 H   0  0  0  0  0  0  0  0  0  0  0  0
   18.0036   17.2053   23.0135 C   0  0  0  0  0  0  0  0  0  0  0  0
   17.0155   16.7762   23.2315 H   0  0  0  0  0  0  0  0  0  0  0  0
   17.9562   17.5593   21.9743 H   0  0  0  0  0  0  0  0  0  0  0  0
   18.2478   18.3947   23.9779 C   0  0  0  0  0  0  0  0  0  0  0  0
   17.2698   18.7814   24.2964 H   0  0  0  0  0  0  0  0  0  0  0  0
   18.7401   18.0454   24.8959 H   0  0  0  0  0  0  0  0  0  0  0  0
   19.0390   19.5790   23.3648 C   0  0  0  0  0  0  0  0  0  0  0  0
   19.0725   20.3842   24.1100 H   0  0  0  0  0  0  0  0  0  0  0  0
   18.4780   19.9760   22.5082 H   0  0  0  0  0  0  0  0  0  0  0  0
   20.4829   19.2185   22.9257 C   0  0  0  0  0  0  0  0  0  0  0  0
   20.9887   18.6866   23.7420 H   0  0  0  0  0  0  0  0  0  0  0  0
   20.4414   18.5208   22.0802 H   0  0  0  0  0  0  0  0  0  0  0  0
   21.3563   20.4259   22.5101 C   0  0  1  0  0  0  0  0  0  0  0  0
   22.3369   20.0339   22.2228 H   0  0  0  0  0  0  0  0  0  0  0  0
   20.7758   21.1664   21.2926 C   0  0  0  0  0  0  0  0  0  0  0  0
   19.8293   21.6644   21.5348 H   0  0  0  0  0  0  0  0  0  0  0  0
   20.5964   20.4715   20.4628 H   0  0  0  0  0  0  0  0  0  0  0  0
   21.4768   21.9324   20.9392 H   0  0  0  0  0  0  0  0  0  0  0  0
   21.6063   21.3751   23.6498 N   0  3  0  0  0  0  0  0  0  0  0  0
   22.2376   22.1326   23.3742 H   0  0  0  0  0  0  0  0  0  0  0  0
   20.7365   21.8040   23.9747 H   0  0  0  0  0  0  0  0  0  0  0  0
   22.0323   20.8980   24.4494 H   0  0  0  0  0  0  0  0  0  0  0  0
  1  2  1  0  0  0  0
  1  3  1  0  0  0  0
  1  4  1  0  0  0  0
  1  5  1  0  0  0  0
  5  6  1  0  0  0  0
  5  7  1  0  0  0  0
  5  8  1  0  0  0  0
  8  9  1  0  0  0  0
  8 10  1  0  0  0  0
  8 11  1  0  0  0  0
 11 12  1  0  0  0  0
 11 13  1  0  0  0  0
 11 14  1  0  0  0  0
 14 15  1  0  0  0  0
 14 16  1  0  0  0  0
 14 17  1  0  0  0  0
 17 18  1  0  0  0  0
 17 19  1  0  0  0  0
 19 20  1  0  0  0  0
 19 21  1  0  0  0  0
 19 22  1  0  0  0  0
 17 23  1  0  0  0  0
 23 24  1  0  0  0  0
 23 25  1  0  0  0  0
 23 26  1  0  0  0  0
M  END
> <VConfSearch Rank>
579

> <Conf_Id>
105

> <Delta U+W>
3.442

> <U+W>
-26.857

> <U>
27.313

> <W>
-54.169

> <W(PB)>
-56.414

> <W(SA)>
2.245

> <Valence>
6.229

> <Coulomb>
19.943

> <VdW>
1.140

> <VdW6>
-9.001

> <VdW12>
10.140

> <Bond>
0.294

> <Angle>
1.969

> <Pdih>
3.967

> <Idih>
0.000

> <Tether>
0.000

$$$$
VeraChem MOL file


 26 25  0  0  0  0  0  0  0  0999 V2000     
   16.9280   20.2312   22.7288 C   0  0  0  0  0  0  0  0  0  0  0  0
   16.6167   20.5767   21.7345 H   0  0  0  0  0  0  0  0  0  0  0  0
   16.1466   20.5237   23.4421 H   0  0  0  0  0  0  0  0  0  0  0  0
   17.8427   20.7686   23.0015 H   0  0  0  0  0  0  0  0  0  0  0  0
   17.1256   18.6974   22.7432 C   0  0  0  0  0  0  0  0  0  0  0  0
   16.1619   18.2307   22.4955 H   0  0  0  0  0  0  0  0  0  0  0  0
   17.3757   18.3539   23.7566 H   0  0  0  0  0  0  0  0  0  0  0  0
   18.1879   18.2017   21.7283 C   0  0  0  0  0  0  0  0  0  0  0  0
   17.8623   17.2252   21.3436 H   0  0  0  0  0  0  0  0  0  0  0  0
   18.2191   18.8674   20.8548 H   0  0  0  0  0  0  0  0  0  0  0  0
   19.6124   18.0197   22.3131 C   0  0  0  0  0  0  0  0  0  0  0  0
   20.2541   17.5959   21.5282 H   0  0  0  0  0  0  0  0  0  0  0  0
   19.5761   17.2731   23.1177 H   0  0  0  0  0  0  0  0  0  0  0  0
   20.2570   19.3266   22.8371 C   0  0  0  0  0  0  0  0  0  0  0  0
   20.1541   20.1070   22.0715 H   0  0  0  0  0  0  0  0  0  0  0  0
   19.7195   19.6765   23.7272 H   0  0  0  0  0  0  0  0  0  0  0  0
   21.7526   19.1606   23.1822 C   0  0  1  0  0  0  0  0  0  0  0  0
   22.2715   18.7948   22.2908 H   0  0  0  0  0  0  0  0  0  0  0  0
   22.3641   20.5151   23.5746 C   0  0  0  0  0  0  0  0  0  0  0  0
   21.8787   20.9260   24.4687 H   0  0  0  0  0  0  0  0  0  0  0  0
   22.2538   21.2429   22.7611 H   0  0  0  0  0  0  0  0  0  0  0  0
   23.4357   20.4111   23.7847 H   0  0  0  0  0  0  0  0  0  0  0  0
   21.9834   18.1425   24.2655 N   0  3  0  0  0  0  0  0  0  0  0  0
   21.6181   17.2243   23.9993 H   0  0  0  0  0  0  0  0  0  0  0  0
   22.9810   18.0287   24.4658 H   0  0  0  0  0  0  0  0  0  0  0  0
   21.5248   18.4158   25.1386 H   0  0  0  0  0  0  0  0  0  0  0  0
  1  2  1  0  0  0  0
  1  3  1  0  0  0  0
  1  4  1  0  0  0  0
  1  5  1  0  0  0  0
  5  6  1  0  0  0  0
  5  7  1  0  0  0  0
  5  8  1  0  0  0  0
  8  9  1  0  0  0  0
  8 10  1  0  0  0  0
  8 11  1  0  0  0  0
 11 12  1  0  0  0  0
 11 13  1  0  0  0  0
 11 14  1  0  0  0  0
 14 15  1  0  0  0  0
 14 16  1  0  0  0  0
 14 17  1  0  0  0  0
 17 18  1  0  0  0  0
 17 19  1  0  0  0  0
 19 20  1  0  0  0  0
 19 21  1  0  0  0  0
 19 22  1  0  0  0  0
 17 23  1  0  0  0  0
 23 24  1  0  0  0  0
 23 25  1  0  0  0  0
 23 26  1  0  0  0  0
M  END
> <VConfSearch Rank>
580

> <Conf_Id>
107

> <Delta U+W>
2.995

> <U+W>
-27.304

> <U>
26.796

> <W>
-54.100

> <W(PB)>
-56.404

> <W(SA)>
2.304

> <Valence>
5.706

> <Coulomb>
20.107

> <VdW>
0.982

> <VdW6>
-8.396

> <VdW12>
9.378

> <Bond>
0.254

> <Angle>
1.644

> <Pdih>
3.808

> <Idih>
0.000

> <Tether>
0.000

$$$$
VeraChem MOL file


 26 25  0  0  0  0  0  0  0  0999 V2000     
   15.6654   19.1034   23.3974 C   0  0  0  0  0  0  0  0  0  0  0  0
   15.6193   18.4925   24.3085 H   0  0  0  0  0  0  0  0  0  0  0  0
   14.8503   19.8373   23.4422 H   0  0  0  0  0  0  0  0  0  0  0  0
   15.4814   18.4476   22.5364 H   0  0  0  0  0  0  0  0  0  0  0  0
   17.0308   19.8122   23.2732 C   0  0  0  0  0  0  0  0  0  0  0  0
   17.1711   20.4857   24.1303 H   0  0  0  0  0  0  0  0  0  0  0  0
   17.0342   20.4411   22.3719 H   0  0  0  0  0  0  0  0  0  0  0  0
   18.1966   18.8007   23.2083 C   0  0  0  0  0  0  0  0  0  0  0  0
   18.1863   18.1725   24.1098 H   0  0  0  0  0  0  0  0  0  0  0  0
   18.0510   18.1287   22.3511 H   0  0  0  0  0  0  0  0  0  0  0  0
   19.5658   19.5067   23.0846 C   0  0  0  0  0  0  0  0  0  0  0  0
   19.7116   20.1757   23.9442 H   0  0  0  0  0  0  0  0  0  0  0  0
   19.5652   20.1371   22.1855 H   0  0  0  0  0  0  0  0  0  0  0  0
   20.7318   18.4905   23.0183 C   0  0  0  0  0  0  0  0  0  0  0  0
   20.6817   17.8352   23.8982 H   0  0  0  0  0  0  0  0  0  0  0  0
   20.6116   17.8439   22.1389 H   0  0  0  0  0  0  0  0  0  0  0  0
   22.1195   19.1667   22.9801 C   0  0  1  0  0  0  0  0  0  0  0  0
   22.2055   19.8224   23.8521 H   0  0  0  0  0  0  0  0  0  0  0  0
   23.2318   18.1088   23.0607 C   0  0  0  0  0  0  0  0  0  0  0  0
   23.1912   17.4238   22.2046 H   0  0  0  0  0  0  0  0  0  0  0  0
   23.1391   17.5146   23.9784 H   0  0  0  0  0  0  0  0  0  0  0  0
   24.2202   18.5846   23.0713 H   0  0  0  0  0  0  0  0  0  0  0  0
   22.3045   20.0348   21.7654 N   0  3  0  0  0  0  0  0  0  0  0  0
   22.2342   19.4894   20.9024 H   0  0  0  0  0  0  0  0  0  0  0  0
   21.5975   20.7735   21.7221 H   0  0  0  0  0  0  0  0  0  0  0  0
   23.2219   20.4895   21.7667 H   0  0  0  0  0  0  0  0  0  0  0  0
  1  2  1  0  0  0  0
  1  3  1  0  0  0  0
  1  4  1  0  0  0  0
  1  5  1  0  0  0  0
  5  6  1  0  0  0  0
  5  7  1  0  0  0  0
  5  8  1  0  0  0  0
  8  9  1  0  0  0  0
  8 10  1  0  0  0  0
  8 11  1  0  0  0  0
 11 12  1  0  0  0  0
 11 13  1  0  0  0  0
 11 14  1  0  0  0  0
 14 15  1  0  0  0  0
 14 16  1  0  0  0  0
 14 17  1  0  0  0  0
 17 18  1  0  0  0  0
 17 19  1  0  0  0  0
 19 20  1  0  0  0  0
 19 21  1  0  0  0  0
 19 22  1  0  0  0  0
 17 23  1  0  0  0  0
 23 24  1  0  0  0  0
 23 25  1  0  0  0  0
 23 26  1  0  0  0  0
M  END
> <VConfSearch Rank>
581

> <Conf_Id>
122

> <Delta U+W>
0.000

> <U+W>
-30.299

> <U>
23.517

> <W>
-53.816

> <W(PB)>
-56.162

> <W(SA)>
2.346

> <Valence>
2.737

> <Coulomb>
19.862

> <VdW>
0.919

> <VdW6>
-6.793

> <VdW12>
7.712

> <Bond>
0.171

> <Angle>
0.873

> <Pdih>
1.693

> <Idih>
0.000

> <Tether>
0.000

$$$$
VeraChem MOL file


 26 25  0  0  0  0  0  0  0  0999 V2000     
   17.9340   15.5169   21.9613 C   0  0  0  0  0  0  0  0  0  0  0  0
   17.1043   15.1767   21.3280 H   0  0  0  0  0  0  0  0  0  0  0  0
   18.8358   14.9690   21.6581 H   0  0  0  0  0  0  0  0  0  0  0  0
   17.7003   15.2434   22.9985 H   0  0  0  0  0  0  0  0  0  0  0  0
   18.1372   17.0404   21.8215 C   0  0  0  0  0  0  0  0  0  0  0  0
   17.2086   17.5588   22.0988 H   0  0  0  0  0  0  0  0  0  0  0  0
   18.3354   17.2867   20.7688 H   0  0  0  0  0  0  0  0  0  0  0  0
   19.3005   17.5458   22.7034 C   0  0  0  0  0  0  0  0  0  0  0  0
   19.0987   17.2958   23.7542 H   0  0  0  0  0  0  0  0  0  0  0  0
   20.2251   17.0219   22.4240 H   0  0  0  0  0  0  0  0  0  0  0  0
   19.5073   19.0713   22.5658 C   0  0  0  0  0  0  0  0  0  0  0  0
   18.5755   19.5837   22.8389 H   0  0  0  0  0  0  0  0  0  0  0  0
   19.7137   19.3199   21.5155 H   0  0  0  0  0  0  0  0  0  0  0  0
   20.6711   19.5755   23.4544 C   0  0  0  0  0  0  0  0  0  0  0  0
   20.4387   19.3874   24.5110 H   0  0  0  0  0  0  0  0  0  0  0  0
   21.5678   18.9854   23.2233 H   0  0  0  0  0  0  0  0  0  0  0  0
   21.0057   21.0714   23.2537 C   0  0  1  0  0  0  0  0  0  0  0  0
   21.1920   21.2414   22.1888 H   0  0  0  0  0  0  0  0  0  0  0  0
   19.8528   21.9891   23.6991 C   0  0  0  0  0  0  0  0  0  0  0  0
   19.5851   21.8096   24.7478 H   0  0  0  0  0  0  0  0  0  0  0  0
   18.9588   21.8339   23.0844 H   0  0  0  0  0  0  0  0  0  0  0  0
   20.1370   23.0436   23.5965 H   0  0  0  0  0  0  0  0  0  0  0  0
   22.2737   21.4442   23.9705 N   0  3  0  0  0  0  0  0  0  0  0  0
   22.1838   21.3160   24.9819 H   0  0  0  0  0  0  0  0  0  0  0  0
   23.0656   20.8753   23.6575 H   0  0  0  0  0  0  0  0  0  0  0  0
   22.5210   22.4245   23.8080 H   0  0  0  0  0  0  0  0  0  0  0  0
  1  2  1  0  0  0  0
  1  3  1  0  0  0  0
  1  4  1  0  0  0  0
  1  5  1  0  0  0  0
  5  6  1  0  0  0  0
  5  7  1  0  0  0  0
  5  8  1  0  0  0  0
  8  9  1  0  0  0  0
  8 10  1  0  0  0  0
  8 11  1  0  0  0  0
 11 12  1  0  0  0  0
 11 13  1  0  0  0  0
 11 14  1  0  0  0  0
 14 15  1  0  0  0  0
 14 16  1  0  0  0  0
 14 17  1  0  0  0  0
 17 18  1  0  0  0  0
 17 19  1  0  0  0  0
 19 20  1  0  0  0  0
 19 21  1  0  0  0  0
 19 22  1  0  0  0  0
 17 23  1  0  0  0  0
 23 24  1  0  0  0  0
 23 25  1  0  0  0  0
 23 26  1  0  0  0  0
M  END
> <VConfSearch Rank>
582

> <Conf_Id>
54

> <Delta U+W>
0.453

> <U+W>
-29.845

> <U>
23.817

> <W>
-53.663

> <W(PB)>
-56.021

> <W(SA)>
2.358

> <Valence>
3.277

> <Coulomb>
19.492

> <VdW>
1.049

> <VdW6>
-6.949

> <VdW12>
7.998

> <Bond>
0.183

> <Angle>
1.152

> <Pdih>
1.942

> <Idih>
0.000

> <Tether>
0.000

$$$$
VeraChem MOL file


 26 25  0  0  0  0  0  0  0  0999 V2000     
   17.3499   16.5754   22.0945 C   0  0  0  0  0  0  0  0  0  0  0  0
   16.6981   17.3445   21.6600 H   0  0  0  0  0  0  0  0  0  0  0  0
   18.1088   16.3067   21.3497 H   0  0  0  0  0  0  0  0  0  0  0  0
   16.7384   15.6822   22.2769 H   0  0  0  0  0  0  0  0  0  0  0  0
   17.9905   17.0689   23.4120 C   0  0  0  0  0  0  0  0  0  0  0  0
   18.6641   16.2969   23.8096 H   0  0  0  0  0  0  0  0  0  0  0  0
   17.1960   17.1977   24.1605 H   0  0  0  0  0  0  0  0  0  0  0  0
   18.7537   18.4080   23.2665 C   0  0  0  0  0  0  0  0  0  0  0  0
   18.0827   19.1667   22.8405 H   0  0  0  0  0  0  0  0  0  0  0  0
   19.0208   18.7450   24.2751 H   0  0  0  0  0  0  0  0  0  0  0  0
   20.0388   18.2947   22.4081 C   0  0  0  0  0  0  0  0  0  0  0  0
   19.7911   17.8366   21.4424 H   0  0  0  0  0  0  0  0  0  0  0  0
   20.7452   17.6099   22.8974 H   0  0  0  0  0  0  0  0  0  0  0  0
   20.7477   19.6433   22.1143 C   0  0  0  0  0  0  0  0  0  0  0  0
   21.5715   19.4280   21.4206 H   0  0  0  0  0  0  0  0  0  0  0  0
   20.0705   20.3170   21.5728 H   0  0  0  0  0  0  0  0  0  0  0  0
   21.3240   20.3617   23.3578 C   0  0  1  0  0  0  0  0  0  0  0  0
   21.7318   19.6055   24.0356 H   0  0  0  0  0  0  0  0  0  0  0  0
   22.4658   21.3074   22.9494 C   0  0  0  0  0  0  0  0  0  0  0  0
   22.8888   21.8086   23.8288 H   0  0  0  0  0  0  0  0  0  0  0  0
   22.1127   22.0783   22.2530 H   0  0  0  0  0  0  0  0  0  0  0  0
   23.2778   20.7527   22.4629 H   0  0  0  0  0  0  0  0  0  0  0  0
   20.2812   21.1300   24.1235 N   0  3  0  0  0  0  0  0  0  0  0  0
   19.5104   20.5261   24.4175 H   0  0  0  0  0  0  0  0  0  0  0  0
   20.6760   21.5589   24.9653 H   0  0  0  0  0  0  0  0  0  0  0  0
   19.8829   21.8825   23.5557 H   0  0  0  0  0  0  0  0  0  0  0  0
  1  2  1  0  0  0  0
  1  3  1  0  0  0  0
  1  4  1  0  0  0  0
  1  5  1  0  0  0  0
  5  6  1  0  0  0  0
  5  7  1  0  0  0  0
  5  8  1  0  0  0  0
  8  9  1  0  0  0  0
  8 10  1  0  0  0  0
  8 11  1  0  0  0  0
 11 12  1  0  0  0  0
 11 13  1  0  0  0  0
 11 14  1  0  0  0  0
 14 15  1  0  0  0  0
 14 16  1  0  0  0  0
 14 17  1  0  0  0  0
 17 18  1  0  0  0  0
 17 19  1  0  0  0  0
 19 20  1  0  0  0  0
 19 21  1  0  0  0  0
 19 22  1  0  0  0  0
 17 23  1  0  0  0  0
 23 24  1  0  0  0  0
 23 25  1  0  0  0  0
 23 26  1  0  0  0  0
M  END
> <VConfSearch Rank>
583

> <Conf_Id>
110

> <Delta U+W>
3.764

> <U+W>
-26.535

> <U>
27.400

> <W>
-53.935

> <W(PB)>
-56.238

> <W(SA)>
2.303

> <Valence>
5.205

> <Coulomb>
21.096

> <VdW>
1.098

> <VdW6>
-8.389

> <VdW12>
9.488

> <Bond>
0.270

> <Angle>
1.912

> <Pdih>
3.023

> <Idih>
0.000

> <Tether>
0.000

$$$$
VeraChem MOL file


 26 25  0  0  0  0  0  0  0  0999 V2000     
   16.3998   17.8292   22.6569 C   0  0  0  0  0  0  0  0  0  0  0  0
   15.5095   17.6451   22.0417 H   0  0  0  0  0  0  0  0  0  0  0  0
   17.0187   16.9241   22.6201 H   0  0  0  0  0  0  0  0  0  0  0  0
   16.0673   17.9775   23.6925 H   0  0  0  0  0  0  0  0  0  0  0  0
   17.1696   19.0648   22.1379 C   0  0  0  0  0  0  0  0  0  0  0  0
   16.4758   19.9151   22.0788 H   0  0  0  0  0  0  0  0  0  0  0  0
   17.5167   18.8795   21.1118 H   0  0  0  0  0  0  0  0  0  0  0  0
   18.3689   19.4636   23.0314 C   0  0  0  0  0  0  0  0  0  0  0  0
   18.7806   20.4075   22.6545 H   0  0  0  0  0  0  0  0  0  0  0  0
   18.0111   19.6742   24.0487 H   0  0  0  0  0  0  0  0  0  0  0  0
   19.4802   18.3837   23.0874 C   0  0  0  0  0  0  0  0  0  0  0  0
   19.7550   18.0616   22.0736 H   0  0  0  0  0  0  0  0  0  0  0  0
   19.0765   17.4946   23.5897 H   0  0  0  0  0  0  0  0  0  0  0  0
   20.7442   18.8433   23.8616 C   0  0  0  0  0  0  0  0  0  0  0  0
   20.4786   19.6036   24.6081 H   0  0  0  0  0  0  0  0  0  0  0  0
   21.1188   17.9830   24.4320 H   0  0  0  0  0  0  0  0  0  0  0  0
   21.9033   19.3502   22.9697 C   0  0  1  0  0  0  0  0  0  0  0  0
   22.1689   18.5507   22.2713 H   0  0  0  0  0  0  0  0  0  0  0  0
   21.5262   20.5960   22.1504 C   0  0  0  0  0  0  0  0  0  0  0  0
   21.1700   21.4059   22.7990 H   0  0  0  0  0  0  0  0  0  0  0  0
   20.7430   20.3640   21.4193 H   0  0  0  0  0  0  0  0  0  0  0  0
   22.3924   20.9660   21.5883 H   0  0  0  0  0  0  0  0  0  0  0  0
   23.1350   19.6206   23.7887 N   0  3  0  0  0  0  0  0  0  0  0  0
   23.4344   18.7892   24.3061 H   0  0  0  0  0  0  0  0  0  0  0  0
   23.9202   19.9106   23.1989 H   0  0  0  0  0  0  0  0  0  0  0  0
   22.9744   20.3662   24.4711 H   0  0  0  0  0  0  0  0  0  0  0  0
  1  2  1  0  0  0  0
  1  3  1  0  0  0  0
  1  4  1  0  0  0  0
  1  5  1  0  0  0  0
  5  6  1  0  0  0  0
  5  7  1  0  0  0  0
  5  8  1  0  0  0  0
  8  9  1  0  0  0  0
  8 10  1  0  0  0  0
  8 11  1  0  0  0  0
 11 12  1  0  0  0  0
 11 13  1  0  0  0  0
 11 14  1  0  0  0  0
 14 15  1  0  0  0  0
 14 16  1  0  0  0  0
 14 17  1  0  0  0  0
 17 18  1  0  0  0  0
 17 19  1  0  0  0  0
 19 20  1  0  0  0  0
 19 21  1  0  0  0  0
 19 22  1  0  0  0  0
 17 23  1  0  0  0  0
 23 24  1  0  0  0  0
 23 25  1  0  0  0  0
 23 26  1  0  0  0  0
M  END
> <VConfSearch Rank>
584

> <Conf_Id>
34

> <Delta U+W>
3.568

> <U+W>
-26.731

> <U>
27.221

> <W>
-53.952

> <W(PB)>
-56.213

> <W(SA)>
2.261

> <Valence>
6.368

> <Coulomb>
19.698

> <VdW>
1.155

> <VdW6>
-8.532

> <VdW12>
9.687

> <Bond>
0.272

> <Angle>
1.847

> <Pdih>
4.248

> <Idih>
0.000

> <Tether>
0.000

$$$$
VeraChem MOL file


 26 25  0  0  0  0  0  0  0  0999 V2000     
   20.0252   22.4143   20.5552 C   0  0  0  0  0  0  0  0  0  0  0  0
   20.3500   23.1387   21.3135 H   0  0  0  0  0  0  0  0  0  0  0  0
   20.9012   22.1273   19.9590 H   0  0  0  0  0  0  0  0  0  0  0  0
   19.3148   22.9201   19.8884 H   0  0  0  0  0  0  0  0  0  0  0  0
   19.3721   21.1794   21.2115 C   0  0  0  0  0  0  0  0  0  0  0  0
   19.0275   20.4899   20.4281 H   0  0  0  0  0  0  0  0  0  0  0  0
   18.4804   21.4935   21.7721 H   0  0  0  0  0  0  0  0  0  0  0  0
   20.3517   20.4484   22.1561 C   0  0  0  0  0  0  0  0  0  0  0  0
   21.2421   20.1390   21.5914 H   0  0  0  0  0  0  0  0  0  0  0  0
   20.6952   21.1426   22.9356 H   0  0  0  0  0  0  0  0  0  0  0  0
   19.7014   19.2112   22.8157 C   0  0  0  0  0  0  0  0  0  0  0  0
   19.3592   18.5233   22.0314 H   0  0  0  0  0  0  0  0  0  0  0  0
   18.8109   19.5303   23.3730 H   0  0  0  0  0  0  0  0  0  0  0  0
   20.6892   18.4839   23.7648 C   0  0  0  0  0  0  0  0  0  0  0  0
   21.5948   18.2149   23.2054 H   0  0  0  0  0  0  0  0  0  0  0  0
   21.0151   19.1782   24.5507 H   0  0  0  0  0  0  0  0  0  0  0  0
   20.1300   17.2051   24.4325 C   0  0  1  0  0  0  0  0  0  0  0  0
   20.9321   16.7811   25.0445 H   0  0  0  0  0  0  0  0  0  0  0  0
   18.9453   17.5102   25.3658 C   0  0  0  0  0  0  0  0  0  0  0  0
   18.0653   17.8500   24.8070 H   0  0  0  0  0  0  0  0  0  0  0  0
   19.2120   18.2866   26.0936 H   0  0  0  0  0  0  0  0  0  0  0  0
   18.6589   16.6126   25.9275 H   0  0  0  0  0  0  0  0  0  0  0  0
   19.7668   16.1450   23.4293 N   0  3  0  0  0  0  0  0  0  0  0  0
   19.4586   15.2840   23.8898 H   0  0  0  0  0  0  0  0  0  0  0  0
   19.0067   16.4553   22.8191 H   0  0  0  0  0  0  0  0  0  0  0  0
   20.5631   15.9041   22.8324 H   0  0  0  0  0  0  0  0  0  0  0  0
  1  2  1  0  0  0  0
  1  3  1  0  0  0  0
  1  4  1  0  0  0  0
  1  5  1  0  0  0  0
  5  6  1  0  0  0  0
  5  7  1  0  0  0  0
  5  8  1  0  0  0  0
  8  9  1  0  0  0  0
  8 10  1  0  0  0  0
  8 11  1  0  0  0  0
 11 12  1  0  0  0  0
 11 13  1  0  0  0  0
 11 14  1  0  0  0  0
 14 15  1  0  0  0  0
 14 16  1  0  0  0  0
 14 17  1  0  0  0  0
 17 18  1  0  0  0  0
 17 19  1  0  0  0  0
 19 20  1  0  0  0  0
 19 21  1  0  0  0  0
 19 22  1  0  0  0  0
 17 23  1  0  0  0  0
 23 24  1  0  0  0  0
 23 25  1  0  0  0  0
 23 26  1  0  0  0  0
M  END
> <VConfSearch Rank>
585

> <Conf_Id>
132

> <Delta U+W>
0.363

> <U+W>
-29.936

> <U>
24.060

> <W>
-53.996

> <W(PB)>
-56.327

> <W(SA)>
2.332

> <Valence>
3.249

> <Coulomb>
19.781

> <VdW>
1.030

> <VdW6>
-7.421

> <VdW12>
8.451

> <Bond>
0.207

> <Angle>
1.205

> <Pdih>
1.837

> <Idih>
0.000

> <Tether>
0.000

$$$$
VeraChem MOL file


 26 25  0  0  0  0  0  0  0  0999 V2000     
   17.2445   20.2685   20.2288 C   0  0  0  0  0  0  0  0  0  0  0  0
   16.6367   21.1800   20.2976 H   0  0  0  0  0  0  0  0  0  0  0  0
   17.7505   20.2741   19.2545 H   0  0  0  0  0  0  0  0  0  0  0  0
   16.5645   19.4071   20.2560 H   0  0  0  0  0  0  0  0  0  0  0  0
   18.2654   20.2056   21.3847 C   0  0  0  0  0  0  0  0  0  0  0  0
   17.7240   20.2442   22.3390 H   0  0  0  0  0  0  0  0  0  0  0  0
   18.9116   21.0938   21.3481 H   0  0  0  0  0  0  0  0  0  0  0  0
   19.1313   18.9256   21.3110 C   0  0  0  0  0  0  0  0  0  0  0  0
   18.4900   18.0382   21.4030 H   0  0  0  0  0  0  0  0  0  0  0  0
   19.5956   18.8675   20.3167 H   0  0  0  0  0  0  0  0  0  0  0  0
   20.2522   18.8702   22.3782 C   0  0  0  0  0  0  0  0  0  0  0  0
   20.8923   19.7564   22.2751 H   0  0  0  0  0  0  0  0  0  0  0  0
   20.8858   18.0020   22.1560 H   0  0  0  0  0  0  0  0  0  0  0  0
   19.7147   18.7635   23.8317 C   0  0  0  0  0  0  0  0  0  0  0  0
   19.1073   19.6462   24.0654 H   0  0  0  0  0  0  0  0  0  0  0  0
   19.0388   17.9015   23.9073 H   0  0  0  0  0  0  0  0  0  0  0  0
   20.8060   18.6369   24.9213 C   0  0  1  0  0  0  0  0  0  0  0  0
   20.2968   18.6273   25.8900 H   0  0  0  0  0  0  0  0  0  0  0  0
   21.5975   17.3226   24.8018 C   0  0  0  0  0  0  0  0  0  0  0  0
   22.2187   17.3021   23.8987 H   0  0  0  0  0  0  0  0  0  0  0  0
   20.9199   16.4603   24.7736 H   0  0  0  0  0  0  0  0  0  0  0  0
   22.2608   17.1954   25.6662 H   0  0  0  0  0  0  0  0  0  0  0  0
   21.7306   19.8229   24.9484 N   0  3  0  0  0  0  0  0  0  0  0  0
   21.2150   20.6984   25.0748 H   0  0  0  0  0  0  0  0  0  0  0  0
   22.4067   19.7528   25.7142 H   0  0  0  0  0  0  0  0  0  0  0  0
   22.2609   19.9003   24.0771 H   0  0  0  0  0  0  0  0  0  0  0  0
  1  2  1  0  0  0  0
  1  3  1  0  0  0  0
  1  4  1  0  0  0  0
  1  5  1  0  0  0  0
  5  6  1  0  0  0  0
  5  7  1  0  0  0  0
  5  8  1  0  0  0  0
  8  9  1  0  0  0  0
  8 10  1  0  0  0  0
  8 11  1  0  0  0  0
 11 12  1  0  0  0  0
 11 13  1  0  0  0  0
 11 14  1  0  0  0  0
 14 15  1  0  0  0  0
 14 16  1  0  0  0  0
 14 17  1  0  0  0  0
 17 18  1  0  0  0  0
 17 19  1  0  0  0  0
 19 20  1  0  0  0  0
 19 21  1  0  0  0  0
 19 22  1  0  0  0  0
 17 23  1  0  0  0  0
 23 24  1  0  0  0  0
 23 25  1  0  0  0  0
 23 26  1  0  0  0  0
M  END
> <VConfSearch Rank>
586

> <Conf_Id>
46

> <Delta U+W>
1.114

> <U+W>
-29.185

> <U>
24.990

> <W>
-54.175

> <W(PB)>
-56.455

> <W(SA)>
2.279

> <Valence>
3.862

> <Coulomb>
19.956

> <VdW>
1.172

> <VdW6>
-8.054

> <VdW12>
9.226

> <Bond>
0.258

> <Angle>
1.499

> <Pdih>
2.106

> <Idih>
0.000

> <Tether>
0.000

$$$$
VeraChem MOL file


 26 25  0  0  0  0  0  0  0  0999 V2000     
   18.6692   15.7455   22.1835 C   0  0  0  0  0  0  0  0  0  0  0  0
   17.7801   16.1600   22.6744 H   0  0  0  0  0  0  0  0  0  0  0  0
   18.5687   15.8995   21.1013 H   0  0  0  0  0  0  0  0  0  0  0  0
   18.6733   14.6637   22.3694 H   0  0  0  0  0  0  0  0  0  0  0  0
   19.9678   16.3906   22.7187 C   0  0  0  0  0  0  0  0  0  0  0  0
   20.8284   15.8556   22.2933 H   0  0  0  0  0  0  0  0  0  0  0  0
   20.0280   16.2525   23.8072 H   0  0  0  0  0  0  0  0  0  0  0  0
   20.0988   17.8937   22.3728 C   0  0  0  0  0  0  0  0  0  0  0  0
   21.0999   18.2261   22.6769 H   0  0  0  0  0  0  0  0  0  0  0  0
   20.0474   18.0242   21.2831 H   0  0  0  0  0  0  0  0  0  0  0  0
   19.0257   18.7790   23.0561 C   0  0  0  0  0  0  0  0  0  0  0  0
   19.0559   18.6284   24.1433 H   0  0  0  0  0  0  0  0  0  0  0  0
   18.0269   18.4584   22.7328 H   0  0  0  0  0  0  0  0  0  0  0  0
   19.1748   20.2862   22.7238 C   0  0  0  0  0  0  0  0  0  0  0  0
   19.0518   20.4225   21.6411 H   0  0  0  0  0  0  0  0  0  0  0  0
   18.3524   20.8389   23.1971 H   0  0  0  0  0  0  0  0  0  0  0  0
   20.5218   20.9059   23.1594 C   0  0  1  0  0  0  0  0  0  0  0  0
   21.3295   20.3625   22.6605 H   0  0  0  0  0  0  0  0  0  0  0  0
   20.5979   22.3784   22.7256 C   0  0  0  0  0  0  0  0  0  0  0  0
   21.5679   22.8133   22.9965 H   0  0  0  0  0  0  0  0  0  0  0  0
   19.8106   22.9747   23.2034 H   0  0  0  0  0  0  0  0  0  0  0  0
   20.4840   22.4705   21.6383 H   0  0  0  0  0  0  0  0  0  0  0  0
   20.7618   20.7761   24.6386 N   0  3  0  0  0  0  0  0  0  0  0  0
   20.7517   19.7955   24.9319 H   0  0  0  0  0  0  0  0  0  0  0  0
   21.6686   21.1683   24.9073 H   0  0  0  0  0  0  0  0  0  0  0  0
   20.0435   21.2670   25.1775 H   0  0  0  0  0  0  0  0  0  0  0  0
  1  2  1  0  0  0  0
  1  3  1  0  0  0  0
  1  4  1  0  0  0  0
  1  5  1  0  0  0  0
  5  6  1  0  0  0  0
  5  7  1  0  0  0  0
  5  8  1  0  0  0  0
  8  9  1  0  0  0  0
  8 10  1  0  0  0  0
  8 11  1  0  0  0  0
 11 12  1  0  0  0  0
 11 13  1  0  0  0  0
 11 14  1  0  0  0  0
 14 15  1  0  0  0  0
 14 16  1  0  0  0  0
 14 17  1  0  0  0  0
 17 18  1  0  0  0  0
 17 19  1  0  0  0  0
 19 20  1  0  0  0  0
 19 21  1  0  0  0  0
 19 22  1  0  0  0  0
 17 23  1  0  0  0  0
 23 24  1  0  0  0  0
 23 25  1  0  0  0  0
 23 26  1  0  0  0  0
M  END
> <VConfSearch Rank>
587

> <Conf_Id>
113

> <Delta U+W>
1.137

> <U+W>
-29.162

> <U>
24.833

> <W>
-53.995

> <W(PB)>
-56.288

> <W(SA)>
2.294

> <Valence>
3.589

> <Coulomb>
20.270

> <VdW>
0.974

> <VdW6>
-8.255

> <VdW12>
9.229

> <Bond>
0.244

> <Angle>
1.377

> <Pdih>
1.967

> <Idih>
0.000

> <Tether>
0.000

$$$$
VeraChem MOL file


 26 25  0  0  0  0  0  0  0  0999 V2000     
   21.2691   22.4272   24.5177 C   0  0  0  0  0  0  0  0  0  0  0  0
   21.4581   23.3550   23.9624 H   0  0  0  0  0  0  0  0  0  0  0  0
   20.4792   22.6293   25.2529 H   0  0  0  0  0  0  0  0  0  0  0  0
   22.1860   22.1686   25.0632 H   0  0  0  0  0  0  0  0  0  0  0  0
   20.8552   21.2920   23.5573 C   0  0  0  0  0  0  0  0  0  0  0  0
   21.6515   21.1332   22.8168 H   0  0  0  0  0  0  0  0  0  0  0  0
   19.9609   21.6043   23.0020 H   0  0  0  0  0  0  0  0  0  0  0  0
   20.5789   19.9738   24.3186 C   0  0  0  0  0  0  0  0  0  0  0  0
   21.4573   19.7243   24.9296 H   0  0  0  0  0  0  0  0  0  0  0  0
   19.7467   20.1192   25.0212 H   0  0  0  0  0  0  0  0  0  0  0  0
   20.2712   18.7737   23.3894 C   0  0  0  0  0  0  0  0  0  0  0  0
   20.2103   17.8695   24.0090 H   0  0  0  0  0  0  0  0  0  0  0  0
   21.1168   18.6247   22.7050 H   0  0  0  0  0  0  0  0  0  0  0  0
   18.9538   18.9410   22.5838 C   0  0  0  0  0  0  0  0  0  0  0  0
   18.1385   19.1967   23.2731 H   0  0  0  0  0  0  0  0  0  0  0  0
   19.0469   19.7900   21.8952 H   0  0  0  0  0  0  0  0  0  0  0  0
   18.5314   17.6982   21.7650 C   0  0  1  0  0  0  0  0  0  0  0  0
   17.5930   17.9462   21.2592 H   0  0  0  0  0  0  0  0  0  0  0  0
   19.5642   17.3423   20.6814 C   0  0  0  0  0  0  0  0  0  0  0  0
   20.5069   16.9928   21.1190 H   0  0  0  0  0  0  0  0  0  0  0  0
   19.7803   18.2118   20.0482 H   0  0  0  0  0  0  0  0  0  0  0  0
   19.1804   16.5457   20.0324 H   0  0  0  0  0  0  0  0  0  0  0  0
   18.2322   16.5090   22.6361 N   0  3  0  0  0  0  0  0  0  0  0  0
   17.5141   16.7252   23.3332 H   0  0  0  0  0  0  0  0  0  0  0  0
   17.8928   15.7166   22.0836 H   0  0  0  0  0  0  0  0  0  0  0  0
   19.0662   16.1969   23.1392 H   0  0  0  0  0  0  0  0  0  0  0  0
  1  2  1  0  0  0  0
  1  3  1  0  0  0  0
  1  4  1  0  0  0  0
  1  5  1  0  0  0  0
  5  6  1  0  0  0  0
  5  7  1  0  0  0  0
  5  8  1  0  0  0  0
  8  9  1  0  0  0  0
  8 10  1  0  0  0  0
  8 11  1  0  0  0  0
 11 12  1  0  0  0  0
 11 13  1  0  0  0  0
 11 14  1  0  0  0  0
 14 15  1  0  0  0  0
 14 16  1  0  0  0  0
 14 17  1  0  0  0  0
 17 18  1  0  0  0  0
 17 19  1  0  0  0  0
 19 20  1  0  0  0  0
 19 21  1  0  0  0  0
 19 22  1  0  0  0  0
 17 23  1  0  0  0  0
 23 24  1  0  0  0  0
 23 25  1  0  0  0  0
 23 26  1  0  0  0  0
M  END
> <VConfSearch Rank>
588

> <Conf_Id>
45

> <Delta U+W>
1.035

> <U+W>
-29.264

> <U>
24.725

> <W>
-53.989

> <W(PB)>
-56.298

> <W(SA)>
2.309

> <Valence>
3.780

> <Coulomb>
19.804

> <VdW>
1.141

> <VdW6>
-8.104

> <VdW12>
9.246

> <Bond>
0.254

> <Angle>
1.437

> <Pdih>
2.089

> <Idih>
0.000

> <Tether>
0.000

$$$$
VeraChem MOL file


 26 25  0  0  0  0  0  0  0  0999 V2000     
   21.5627   22.5031   21.7588 C   0  0  0  0  0  0  0  0  0  0  0  0
   22.3031   22.5520   20.9497 H   0  0  0  0  0  0  0  0  0  0  0  0
   20.8343   23.3085   21.5976 H   0  0  0  0  0  0  0  0  0  0  0  0
   22.0841   22.6978   22.7051 H   0  0  0  0  0  0  0  0  0  0  0  0
   20.8701   21.1239   21.7810 C   0  0  0  0  0  0  0  0  0  0  0  0
   21.6344   20.3449   21.9017 H   0  0  0  0  0  0  0  0  0  0  0  0
   20.3829   20.9458   20.8122 H   0  0  0  0  0  0  0  0  0  0  0  0
   19.8244   21.0298   22.9174 C   0  0  0  0  0  0  0  0  0  0  0  0
   20.3215   21.1516   23.8897 H   0  0  0  0  0  0  0  0  0  0  0  0
   19.1219   21.8695   22.8239 H   0  0  0  0  0  0  0  0  0  0  0  0
   19.0131   19.7106   22.9100 C   0  0  0  0  0  0  0  0  0  0  0  0
   18.5152   19.5913   21.9377 H   0  0  0  0  0  0  0  0  0  0  0  0
   18.2139   19.8004   23.6574 H   0  0  0  0  0  0  0  0  0  0  0  0
   19.8699   18.4550   23.2161 C   0  0  0  0  0  0  0  0  0  0  0  0
   20.6523   18.3550   22.4539 H   0  0  0  0  0  0  0  0  0  0  0  0
   20.3825   18.5804   24.1790 H   0  0  0  0  0  0  0  0  0  0  0  0
   19.0421   17.1512   23.2353 C   0  0  1  0  0  0  0  0  0  0  0  0
   18.5132   17.0669   22.2808 H   0  0  0  0  0  0  0  0  0  0  0  0
   19.9678   15.9329   23.3828 C   0  0  0  0  0  0  0  0  0  0  0  0
   20.5239   15.9688   24.3280 H   0  0  0  0  0  0  0  0  0  0  0  0
   20.6934   15.8923   22.5608 H   0  0  0  0  0  0  0  0  0  0  0  0
   19.3895   15.0009   23.3616 H   0  0  0  0  0  0  0  0  0  0  0  0
   17.9932   17.1478   24.3140 N   0  3  0  0  0  0  0  0  0  0  0  0
   17.3388   17.9267   24.2027 H   0  0  0  0  0  0  0  0  0  0  0  0
   17.4446   16.2834   24.2995 H   0  0  0  0  0  0  0  0  0  0  0  0
   18.4134   17.2283   25.2436 H   0  0  0  0  0  0  0  0  0  0  0  0
  1  2  1  0  0  0  0
  1  3  1  0  0  0  0
  1  4  1  0  0  0  0
  1  5  1  0  0  0  0
  5  6  1  0  0  0  0
  5  7  1  0  0  0  0
  5  8  1  0  0  0  0
  8  9  1  0  0  0  0
  8 10  1  0  0  0  0
  8 11  1  0  0  0  0
 11 12  1  0  0  0  0
 11 13  1  0  0  0  0
 11 14  1  0  0  0  0
 14 15  1  0  0  0  0
 14 16  1  0  0  0  0
 14 17  1  0  0  0  0
 17 18  1  0  0  0  0
 17 19  1  0  0  0  0
 19 20  1  0  0  0  0
 19 21  1  0  0  0  0
 19 22  1  0  0  0  0
 17 23  1  0  0  0  0
 23 24  1  0  0  0  0
 23 25  1  0  0  0  0
 23 26  1  0  0  0  0
M  END
> <VConfSearch Rank>
589

> <Conf_Id>
121

> <Delta U+W>
0.736

> <U+W>
-29.562

> <U>
24.282

> <W>
-53.844

> <W(PB)>
-56.205

> <W(SA)>
2.361

> <Valence>
3.311

> <Coulomb>
19.887

> <VdW>
1.083

> <VdW6>
-7.444

> <VdW12>
8.527

> <Bond>
0.219

> <Angle>
1.167

> <Pdih>
1.926

> <Idih>
0.000

> <Tether>
0.000

$$$$
VeraChem MOL file


 26 25  0  0  0  0  0  0  0  0999 V2000     
   22.4870   16.8141   22.0055 C   0  0  0  0  0  0  0  0  0  0  0  0
   23.5203   16.6091   21.6970 H   0  0  0  0  0  0  0  0  0  0  0  0
   22.1717   16.0067   22.6790 H   0  0  0  0  0  0  0  0  0  0  0  0
   21.8614   16.7758   21.1052 H   0  0  0  0  0  0  0  0  0  0  0  0
   22.3947   18.1894   22.7048 C   0  0  0  0  0  0  0  0  0  0  0  0
   22.6821   18.9826   22.0006 H   0  0  0  0  0  0  0  0  0  0  0  0
   23.1313   18.2206   23.5198 H   0  0  0  0  0  0  0  0  0  0  0  0
   20.9944   18.4915   23.2912 C   0  0  0  0  0  0  0  0  0  0  0  0
   20.7156   17.7001   24.0005 H   0  0  0  0  0  0  0  0  0  0  0  0
   21.0634   19.4195   23.8737 H   0  0  0  0  0  0  0  0  0  0  0  0
   19.8925   18.6380   22.2112 C   0  0  0  0  0  0  0  0  0  0  0  0
   19.8137   17.7045   21.6393 H   0  0  0  0  0  0  0  0  0  0  0  0
   20.1805   19.4119   21.4875 H   0  0  0  0  0  0  0  0  0  0  0  0
   18.4943   18.9547   22.8028 C   0  0  0  0  0  0  0  0  0  0  0  0
   17.7664   19.0150   21.9830 H   0  0  0  0  0  0  0  0  0  0  0  0
   18.1815   18.1057   23.4250 H   0  0  0  0  0  0  0  0  0  0  0  0
   18.4133   20.2464   23.6506 C   0  0  1  0  0  0  0  0  0  0  0  0
   19.1336   20.1681   24.4702 H   0  0  0  0  0  0  0  0  0  0  0  0
   18.7486   21.5021   22.8261 C   0  0  0  0  0  0  0  0  0  0  0  0
   18.0868   21.5938   21.9560 H   0  0  0  0  0  0  0  0  0  0  0  0
   19.7848   21.4784   22.4692 H   0  0  0  0  0  0  0  0  0  0  0  0
   18.6362   22.4067   23.4363 H   0  0  0  0  0  0  0  0  0  0  0  0
   17.0610   20.3894   24.2921 N   0  3  0  0  0  0  0  0  0  0  0  0
   16.8352   19.5824   24.8807 H   0  0  0  0  0  0  0  0  0  0  0  0
   17.0148   21.2218   24.8866 H   0  0  0  0  0  0  0  0  0  0  0  0
   16.3209   20.4745   23.5903 H   0  0  0  0  0  0  0  0  0  0  0  0
  1  2  1  0  0  0  0
  1  3  1  0  0  0  0
  1  4  1  0  0  0  0
  1  5  1  0  0  0  0
  5  6  1  0  0  0  0
  5  7  1  0  0  0  0
  5  8  1  0  0  0  0
  8  9  1  0  0  0  0
  8 10  1  0  0  0  0
  8 11  1  0  0  0  0
 11 12  1  0  0  0  0
 11 13  1  0  0  0  0
 11 14  1  0  0  0  0
 14 15  1  0  0  0  0
 14 16  1  0  0  0  0
 14 17  1  0  0  0  0
 17 18  1  0  0  0  0
 17 19  1  0  0  0  0
 19 20  1  0  0  0  0
 19 21  1  0  0  0  0
 19 22  1  0  0  0  0
 17 23  1  0  0  0  0
 23 24  1  0  0  0  0
 23 25  1  0  0  0  0
 23 26  1  0  0  0  0
M  END
> <VConfSearch Rank>
590

> <Conf_Id>
5

> <Delta U+W>
1.233

> <U+W>
-29.065

> <U>
25.023

> <W>
-54.088

> <W(PB)>
-56.383

> <W(SA)>
2.296

> <Valence>
4.083

> <Coulomb>
19.893

> <VdW>
1.047

> <VdW6>
-8.479

> <VdW12>
9.527

> <Bond>
0.256

> <Angle>
1.716

> <Pdih>
2.112

> <Idih>
0.000

> <Tether>
0.000

$$$$
VeraChem MOL file


 26 25  0  0  0  0  0  0  0  0999 V2000     
   16.3115   20.1460   23.4655 C   0  0  0  0  0  0  0  0  0  0  0  0
   15.2290   20.0239   23.3303 H   0  0  0  0  0  0  0  0  0  0  0  0
   16.5481   19.8585   24.4972 H   0  0  0  0  0  0  0  0  0  0  0  0
   16.5468   21.2110   23.3419 H   0  0  0  0  0  0  0  0  0  0  0  0
   17.0841   19.2833   22.4417 C   0  0  0  0  0  0  0  0  0  0  0  0
   16.7166   19.5207   21.4335 H   0  0  0  0  0  0  0  0  0  0  0  0
   16.8592   18.2205   22.6079 H   0  0  0  0  0  0  0  0  0  0  0  0
   18.6155   19.5069   22.4752 C   0  0  0  0  0  0  0  0  0  0  0  0
   19.0535   18.9637   21.6279 H   0  0  0  0  0  0  0  0  0  0  0  0
   18.8340   20.5714   22.3136 H   0  0  0  0  0  0  0  0  0  0  0  0
   19.2803   19.0277   23.7899 C   0  0  0  0  0  0  0  0  0  0  0  0
   19.0823   17.9561   23.9300 H   0  0  0  0  0  0  0  0  0  0  0  0
   18.8182   19.5403   24.6432 H   0  0  0  0  0  0  0  0  0  0  0  0
   20.8084   19.2796   23.8531 C   0  0  0  0  0  0  0  0  0  0  0  0
   21.0141   20.3572   23.8010 H   0  0  0  0  0  0  0  0  0  0  0  0
   21.1528   18.9618   24.8462 H   0  0  0  0  0  0  0  0  0  0  0  0
   21.6127   18.5216   22.7690 C   0  0  1  0  0  0  0  0  0  0  0  0
   20.9815   17.7195   22.3743 H   0  0  0  0  0  0  0  0  0  0  0  0
   22.0142   19.4503   21.6085 C   0  0  0  0  0  0  0  0  0  0  0  0
   22.6937   20.2403   21.9522 H   0  0  0  0  0  0  0  0  0  0  0  0
   21.1394   19.9319   21.1578 H   0  0  0  0  0  0  0  0  0  0  0  0
   22.5244   18.8842   20.8195 H   0  0  0  0  0  0  0  0  0  0  0  0
   22.8328   17.8516   23.3393 N   0  3  0  0  0  0  0  0  0  0  0  0
   22.5872   17.1915   24.0828 H   0  0  0  0  0  0  0  0  0  0  0  0
   23.3408   17.3263   22.6220 H   0  0  0  0  0  0  0  0  0  0  0  0
   23.4840   18.5343   23.7361 H   0  0  0  0  0  0  0  0  0  0  0  0
  1  2  1  0  0  0  0
  1  3  1  0  0  0  0
  1  4  1  0  0  0  0
  1  5  1  0  0  0  0
  5  6  1  0  0  0  0
  5  7  1  0  0  0  0
  5  8  1  0  0  0  0
  8  9  1  0  0  0  0
  8 10  1  0  0  0  0
  8 11  1  0  0  0  0
 11 12  1  0  0  0  0
 11 13  1  0  0  0  0
 11 14  1  0  0  0  0
 14 15  1  0  0  0  0
 14 16  1  0  0  0  0
 14 17  1  0  0  0  0
 17 18  1  0  0  0  0
 17 19  1  0  0  0  0
 19 20  1  0  0  0  0
 19 21  1  0  0  0  0
 19 22  1  0  0  0  0
 17 23  1  0  0  0  0
 23 24  1  0  0  0  0
 23 25  1  0  0  0  0
 23 26  1  0  0  0  0
M  END
> <VConfSearch Rank>
591

> <Conf_Id>
100

> <Delta U+W>
3.818

> <U+W>
-26.481

> <U>
27.496

> <W>
-53.977

> <W(PB)>
-56.267

> <W(SA)>
2.290

> <Valence>
6.472

> <Coulomb>
19.839

> <VdW>
1.185

> <VdW6>
-8.405

> <VdW12>
9.590

> <Bond>
0.248

> <Angle>
1.619

> <Pdih>
4.604

> <Idih>
0.000

> <Tether>
0.000

$$$$
VeraChem MOL file


 26 25  0  0  0  0  0  0  0  0999 V2000     
   18.5281   22.0904   24.7262 C   0  0  0  0  0  0  0  0  0  0  0  0
   17.5929   22.6362   24.9065 H   0  0  0  0  0  0  0  0  0  0  0  0
   18.7595   21.5109   25.6294 H   0  0  0  0  0  0  0  0  0  0  0  0
   19.3267   22.8295   24.5801 H   0  0  0  0  0  0  0  0  0  0  0  0
   18.3927   21.1692   23.4952 C   0  0  0  0  0  0  0  0  0  0  0  0
   18.1271   21.7727   22.6159 H   0  0  0  0  0  0  0  0  0  0  0  0
   17.5656   20.4640   23.6574 H   0  0  0  0  0  0  0  0  0  0  0  0
   19.6967   20.3888   23.2185 C   0  0  0  0  0  0  0  0  0  0  0  0
   20.5186   21.1002   23.0584 H   0  0  0  0  0  0  0  0  0  0  0  0
   19.9597   19.8021   24.1065 H   0  0  0  0  0  0  0  0  0  0  0  0
   19.5637   19.4695   21.9795 C   0  0  0  0  0  0  0  0  0  0  0  0
   19.3239   20.1010   21.1128 H   0  0  0  0  0  0  0  0  0  0  0  0
   18.7102   18.7900   22.1012 H   0  0  0  0  0  0  0  0  0  0  0  0
   20.8581   18.6716   21.6567 C   0  0  0  0  0  0  0  0  0  0  0  0
   20.9513   18.5937   20.5655 H   0  0  0  0  0  0  0  0  0  0  0  0
   21.7389   19.2412   21.9811 H   0  0  0  0  0  0  0  0  0  0  0  0
   20.9344   17.2352   22.2317 C   0  0  1  0  0  0  0  0  0  0  0  0
   21.9000   16.8192   21.9278 H   0  0  0  0  0  0  0  0  0  0  0  0
   20.8808   17.2009   23.7676 C   0  0  0  0  0  0  0  0  0  0  0  0
   19.8909   17.4882   24.1416 H   0  0  0  0  0  0  0  0  0  0  0  0
   21.6282   17.8776   24.1998 H   0  0  0  0  0  0  0  0  0  0  0  0
   21.0955   16.1901   24.1355 H   0  0  0  0  0  0  0  0  0  0  0  0
   19.8907   16.3279   21.6397 N   0  3  0  0  0  0  0  0  0  0  0  0
   19.9532   16.2997   20.6180 H   0  0  0  0  0  0  0  0  0  0  0  0
   19.9947   15.3673   21.9785 H   0  0  0  0  0  0  0  0  0  0  0  0
   18.9465   16.6379   21.8818 H   0  0  0  0  0  0  0  0  0  0  0  0
  1  2  1  0  0  0  0
  1  3  1  0  0  0  0
  1  4  1  0  0  0  0
  1  5  1  0  0  0  0
  5  6  1  0  0  0  0
  5  7  1  0  0  0  0
  5  8  1  0  0  0  0
  8  9  1  0  0  0  0
  8 10  1  0  0  0  0
  8 11  1  0  0  0  0
 11 12  1  0  0  0  0
 11 13  1  0  0  0  0
 11 14  1  0  0  0  0
 14 15  1  0  0  0  0
 14 16  1  0  0  0  0
 14 17  1  0  0  0  0
 17 18  1  0  0  0  0
 17 19  1  0  0  0  0
 19 20  1  0  0  0  0
 19 21  1  0  0  0  0
 19 22  1  0  0  0  0
 17 23  1  0  0  0  0
 23 24  1  0  0  0  0
 23 25  1  0  0  0  0
 23 26  1  0  0  0  0
M  END
> <VConfSearch Rank>
592

> <Conf_Id>
142

> <Delta U+W>
2.978

> <U+W>
-27.320

> <U>
26.848

> <W>
-54.168

> <W(PB)>
-56.427

> <W(SA)>
2.259

> <Valence>
5.823

> <Coulomb>
20.057

> <VdW>
0.968

> <VdW6>
-8.367

> <VdW12>
9.335

> <Bond>
0.267

> <Angle>
1.799

> <Pdih>
3.758

> <Idih>
0.000

> <Tether>
0.000

$$$$
VeraChem MOL file


 26 25  0  0  0  0  0  0  0  0999 V2000     
   19.2125   21.9601   21.0012 C   0  0  0  0  0  0  0  0  0  0  0  0
   19.1511   22.6329   21.8664 H   0  0  0  0  0  0  0  0  0  0  0  0
   19.4187   22.5730   20.1142 H   0  0  0  0  0  0  0  0  0  0  0  0
   18.2301   21.4944   20.8569 H   0  0  0  0  0  0  0  0  0  0  0  0
   20.3232   20.9028   21.1966 C   0  0  0  0  0  0  0  0  0  0  0  0
   21.2960   21.4140   21.2035 H   0  0  0  0  0  0  0  0  0  0  0  0
   20.3415   20.2202   20.3356 H   0  0  0  0  0  0  0  0  0  0  0  0
   20.1824   20.0912   22.5073 C   0  0  0  0  0  0  0  0  0  0  0  0
   21.0924   19.4911   22.6226 H   0  0  0  0  0  0  0  0  0  0  0  0
   20.1430   20.7803   23.3622 H   0  0  0  0  0  0  0  0  0  0  0  0
   18.9462   19.1570   22.5241 C   0  0  0  0  0  0  0  0  0  0  0  0
   19.0229   18.4287   21.7059 H   0  0  0  0  0  0  0  0  0  0  0  0
   18.0463   19.7475   22.3116 H   0  0  0  0  0  0  0  0  0  0  0  0
   18.7057   18.4213   23.8730 C   0  0  0  0  0  0  0  0  0  0  0  0
   18.5107   19.1617   24.6598 H   0  0  0  0  0  0  0  0  0  0  0  0
   17.7741   17.8483   23.7768 H   0  0  0  0  0  0  0  0  0  0  0  0
   19.8038   17.4430   24.3636 C   0  0  1  0  0  0  0  0  0  0  0  0
   19.3630   16.8589   25.1774 H   0  0  0  0  0  0  0  0  0  0  0  0
   20.2390   16.4499   23.2719 C   0  0  0  0  0  0  0  0  0  0  0  0
   20.7755   16.9519   22.4579 H   0  0  0  0  0  0  0  0  0  0  0  0
   19.3688   15.9357   22.8453 H   0  0  0  0  0  0  0  0  0  0  0  0
   20.9046   15.6855   23.6912 H   0  0  0  0  0  0  0  0  0  0  0  0
   20.9878   18.1398   24.9760 N   0  3  0  0  0  0  0  0  0  0  0  0
   20.7054   18.7464   25.7511 H   0  0  0  0  0  0  0  0  0  0  0  0
   21.6657   17.4677   25.3466 H   0  0  0  0  0  0  0  0  0  0  0  0
   21.4738   18.7215   24.2909 H   0  0  0  0  0  0  0  0  0  0  0  0
  1  2  1  0  0  0  0
  1  3  1  0  0  0  0
  1  4  1  0  0  0  0
  1  5  1  0  0  0  0
  5  6  1  0  0  0  0
  5  7  1  0  0  0  0
  5  8  1  0  0  0  0
  8  9  1  0  0  0  0
  8 10  1  0  0  0  0
  8 11  1  0  0  0  0
 11 12  1  0  0  0  0
 11 13  1  0  0  0  0
 11 14  1  0  0  0  0
 14 15  1  0  0  0  0
 14 16  1  0  0  0  0
 14 17  1  0  0  0  0
 17 18  1  0  0  0  0
 17 19  1  0  0  0  0
 19 20  1  0  0  0  0
 19 21  1  0  0  0  0
 19 22  1  0  0  0  0
 17 23  1  0  0  0  0
 23 24  1  0  0  0  0
 23 25  1  0  0  0  0
 23 26  1  0  0  0  0
M  END
> <VConfSearch Rank>
593

> <Conf_Id>
119

> <Delta U+W>
3.538

> <U+W>
-26.761

> <U>
27.482

> <W>
-54.243

> <W(PB)>
-56.494

> <W(SA)>
2.251

> <Valence>
5.284

> <Coulomb>
21.247

> <VdW>
0.951

> <VdW6>
-9.416

> <VdW12>
10.367

> <Bond>
0.323

> <Angle>
2.522

> <Pdih>
2.439

> <Idih>
0.000

> <Tether>
0.000

$$$$
VeraChem MOL file


 26 25  0  0  0  0  0  0  0  0999 V2000     
   16.4766   18.2864   22.3164 C   0  0  0  0  0  0  0  0  0  0  0  0
   15.9765   19.2614   22.3824 H   0  0  0  0  0  0  0  0  0  0  0  0
   16.9696   18.2176   21.3388 H   0  0  0  0  0  0  0  0  0  0  0  0
   15.7024   17.5091   22.3504 H   0  0  0  0  0  0  0  0  0  0  0  0
   17.4829   18.0983   23.4743 C   0  0  0  0  0  0  0  0  0  0  0  0
   17.9917   17.1300   23.3679 H   0  0  0  0  0  0  0  0  0  0  0  0
   16.9276   18.0509   24.4215 H   0  0  0  0  0  0  0  0  0  0  0  0
   18.5319   19.2324   23.5702 C   0  0  0  0  0  0  0  0  0  0  0  0
   18.0174   20.1940   23.7034 H   0  0  0  0  0  0  0  0  0  0  0  0
   19.1233   19.0766   24.4801 H   0  0  0  0  0  0  0  0  0  0  0  0
   19.4669   19.3119   22.3360 C   0  0  0  0  0  0  0  0  0  0  0  0
   18.8630   19.5856   21.4608 H   0  0  0  0  0  0  0  0  0  0  0  0
   19.8878   18.3226   22.1153 H   0  0  0  0  0  0  0  0  0  0  0  0
   20.5974   20.3681   22.4858 C   0  0  0  0  0  0  0  0  0  0  0  0
   20.7614   20.8390   21.5076 H   0  0  0  0  0  0  0  0  0  0  0  0
   20.2646   21.1809   23.1448 H   0  0  0  0  0  0  0  0  0  0  0  0
   21.9655   19.8337   22.9783 C   0  0  1  0  0  0  0  0  0  0  0  0
   22.6424   20.6915   23.0394 H   0  0  0  0  0  0  0  0  0  0  0  0
   21.8926   19.2029   24.3783 C   0  0  0  0  0  0  0  0  0  0  0  0
   21.3155   18.2705   24.3696 H   0  0  0  0  0  0  0  0  0  0  0  0
   21.4299   19.8937   25.0938 H   0  0  0  0  0  0  0  0  0  0  0  0
   22.8992   18.9692   24.7460 H   0  0  0  0  0  0  0  0  0  0  0  0
   22.5931   18.8834   21.9953 N   0  3  0  0  0  0  0  0  0  0  0  0
   22.6974   19.3129   21.0717 H   0  0  0  0  0  0  0  0  0  0  0  0
   23.5247   18.5895   22.3021 H   0  0  0  0  0  0  0  0  0  0  0  0
   22.0276   18.0391   21.8800 H   0  0  0  0  0  0  0  0  0  0  0  0
  1  2  1  0  0  0  0
  1  3  1  0  0  0  0
  1  4  1  0  0  0  0
  1  5  1  0  0  0  0
  5  6  1  0  0  0  0
  5  7  1  0  0  0  0
  5  8  1  0  0  0  0
  8  9  1  0  0  0  0
  8 10  1  0  0  0  0
  8 11  1  0  0  0  0
 11 12  1  0  0  0  0
 11 13  1  0  0  0  0
 11 14  1  0  0  0  0
 14 15  1  0  0  0  0
 14 16  1  0  0  0  0
 14 17  1  0  0  0  0
 17 18  1  0  0  0  0
 17 19  1  0  0  0  0
 19 20  1  0  0  0  0
 19 21  1  0  0  0  0
 19 22  1  0  0  0  0
 17 23  1  0  0  0  0
 23 24  1  0  0  0  0
 23 25  1  0  0  0  0
 23 26  1  0  0  0  0
M  END
> <VConfSearch Rank>
594

> <Conf_Id>
127

> <Delta U+W>
3.544

> <U+W>
-26.754

> <U>
27.509

> <W>
-54.263

> <W(PB)>
-56.496

> <W(SA)>
2.232

> <Valence>
6.375

> <Coulomb>
20.014

> <VdW>
1.120

> <VdW6>
-8.976

> <VdW12>
10.096

> <Bond>
0.304

> <Angle>
1.986

> <Pdih>
4.086

> <Idih>
0.000

> <Tether>
0.000

$$$$
VeraChem MOL file


 26 25  0  0  0  0  0  0  0  0999 V2000     
   21.6104   21.2382   21.2772 C   0  0  0  0  0  0  0  0  0  0  0  0
   21.7140   22.3281   21.1976 H   0  0  0  0  0  0  0  0  0  0  0  0
   22.2718   20.7856   20.5271 H   0  0  0  0  0  0  0  0  0  0  0  0
   20.5782   20.9828   21.0138 H   0  0  0  0  0  0  0  0  0  0  0  0
   21.9838   20.7620   22.7005 C   0  0  0  0  0  0  0  0  0  0  0  0
   21.3669   21.2768   23.4501 H   0  0  0  0  0  0  0  0  0  0  0  0
   23.0198   21.0705   22.8992 H   0  0  0  0  0  0  0  0  0  0  0  0
   21.8829   19.2254   22.8812 C   0  0  0  0  0  0  0  0  0  0  0  0
   22.0666   18.7170   21.9246 H   0  0  0  0  0  0  0  0  0  0  0  0
   22.6973   18.9058   23.5461 H   0  0  0  0  0  0  0  0  0  0  0  0
   20.5521   18.7277   23.5025 C   0  0  0  0  0  0  0  0  0  0  0  0
   20.4394   19.1648   24.5034 H   0  0  0  0  0  0  0  0  0  0  0  0
   20.6377   17.6434   23.6481 H   0  0  0  0  0  0  0  0  0  0  0  0
   19.2957   19.0421   22.6474 C   0  0  0  0  0  0  0  0  0  0  0  0
   19.1626   20.1290   22.5892 H   0  0  0  0  0  0  0  0  0  0  0  0
   19.4571   18.6948   21.6184 H   0  0  0  0  0  0  0  0  0  0  0  0
   17.9761   18.4338   23.1789 C   0  0  1  0  0  0  0  0  0  0  0  0
   17.1699   18.7954   22.5330 H   0  0  0  0  0  0  0  0  0  0  0  0
   17.9727   16.8966   23.1042 C   0  0  0  0  0  0  0  0  0  0  0  0
   18.2245   16.5546   22.0928 H   0  0  0  0  0  0  0  0  0  0  0  0
   16.9782   16.5040   23.3493 H   0  0  0  0  0  0  0  0  0  0  0  0
   18.6886   16.4527   23.8057 H   0  0  0  0  0  0  0  0  0  0  0  0
   17.6426   18.9076   24.5668 N   0  3  0  0  0  0  0  0  0  0  0  0
   17.5955   19.9293   24.6137 H   0  0  0  0  0  0  0  0  0  0  0  0
   16.7374   18.5449   24.8787 H   0  0  0  0  0  0  0  0  0  0  0  0
   18.3459   18.5999   25.2429 H   0  0  0  0  0  0  0  0  0  0  0  0
  1  2  1  0  0  0  0
  1  3  1  0  0  0  0
  1  4  1  0  0  0  0
  1  5  1  0  0  0  0
  5  6  1  0  0  0  0
  5  7  1  0  0  0  0
  5  8  1  0  0  0  0
  8  9  1  0  0  0  0
  8 10  1  0  0  0  0
  8 11  1  0  0  0  0
 11 12  1  0  0  0  0
 11 13  1  0  0  0  0
 11 14  1  0  0  0  0
 14 15  1  0  0  0  0
 14 16  1  0  0  0  0
 14 17  1  0  0  0  0
 17 18  1  0  0  0  0
 17 19  1  0  0  0  0
 19 20  1  0  0  0  0
 19 21  1  0  0  0  0
 19 22  1  0  0  0  0
 17 23  1  0  0  0  0
 23 24  1  0  0  0  0
 23 25  1  0  0  0  0
 23 26  1  0  0  0  0
M  END
> <VConfSearch Rank>
595

> <Conf_Id>
131

> <Delta U+W>
3.589

> <U+W>
-26.710

> <U>
27.573

> <W>
-54.283

> <W(PB)>
-56.537

> <W(SA)>
2.254

> <Valence>
6.363

> <Coulomb>
20.026

> <VdW>
1.184

> <VdW6>
-8.939

> <VdW12>
10.123

> <Bond>
0.298

> <Angle>
2.018

> <Pdih>
4.047

> <Idih>
0.000

> <Tether>
0.000

$$$$
VeraChem MOL file


 26 25  0  0  0  0  0  0  0  0999 V2000     
   20.8155   20.3812   25.2642 C   0  0  0  0  0  0  0  0  0  0  0  0
   19.9203   21.0140   25.2080 H   0  0  0  0  0  0  0  0  0  0  0  0
   20.5078   19.3307   25.1935 H   0  0  0  0  0  0  0  0  0  0  0  0
   21.2661   20.5238   26.2549 H   0  0  0  0  0  0  0  0  0  0  0  0
   21.8262   20.7449   24.1548 C   0  0  0  0  0  0  0  0  0  0  0  0
   22.6749   20.0477   24.1929 H   0  0  0  0  0  0  0  0  0  0  0  0
   22.2408   21.7400   24.3687 H   0  0  0  0  0  0  0  0  0  0  0  0
   21.2289   20.7592   22.7245 C   0  0  0  0  0  0  0  0  0  0  0  0
   20.4539   21.5340   22.6473 H   0  0  0  0  0  0  0  0  0  0  0  0
   22.0274   21.0710   22.0370 H   0  0  0  0  0  0  0  0  0  0  0  0
   20.6786   19.3932   22.2368 C   0  0  0  0  0  0  0  0  0  0  0  0
   21.2440   18.5808   22.7108 H   0  0  0  0  0  0  0  0  0  0  0  0
   20.8683   19.3081   21.1578 H   0  0  0  0  0  0  0  0  0  0  0  0
   19.1541   19.2241   22.4716 C   0  0  0  0  0  0  0  0  0  0  0  0
   18.9177   19.2803   23.5400 H   0  0  0  0  0  0  0  0  0  0  0  0
   18.6361   20.0686   21.9983 H   0  0  0  0  0  0  0  0  0  0  0  0
   18.5796   17.9130   21.8886 C   0  0  1  0  0  0  0  0  0  0  0  0
   18.8707   17.8485   20.8356 H   0  0  0  0  0  0  0  0  0  0  0  0
   19.1166   16.6700   22.6210 C   0  0  0  0  0  0  0  0  0  0  0  0
   18.9025   16.7194   23.6959 H   0  0  0  0  0  0  0  0  0  0  0  0
   20.1998   16.5661   22.4909 H   0  0  0  0  0  0  0  0  0  0  0  0
   18.6541   15.7580   22.2239 H   0  0  0  0  0  0  0  0  0  0  0  0
   17.0761   17.9208   21.9129 N   0  3  0  0  0  0  0  0  0  0  0  0
   16.7172   17.9772   22.8697 H   0  0  0  0  0  0  0  0  0  0  0  0
   16.6945   18.7165   21.3935 H   0  0  0  0  0  0  0  0  0  0  0  0
   16.6909   17.0705   21.4920 H   0  0  0  0  0  0  0  0  0  0  0  0
  1  2  1  0  0  0  0
  1  3  1  0  0  0  0
  1  4  1  0  0  0  0
  1  5  1  0  0  0  0
  5  6  1  0  0  0  0
  5  7  1  0  0  0  0
  5  8  1  0  0  0  0
  8  9  1  0  0  0  0
  8 10  1  0  0  0  0
  8 11  1  0  0  0  0
 11 12  1  0  0  0  0
 11 13  1  0  0  0  0
 11 14  1  0  0  0  0
 14 15  1  0  0  0  0
 14 16  1  0  0  0  0
 14 17  1  0  0  0  0
 17 18  1  0  0  0  0
 17 19  1  0  0  0  0
 19 20  1  0  0  0  0
 19 21  1  0  0  0  0
 19 22  1  0  0  0  0
 17 23  1  0  0  0  0
 23 24  1  0  0  0  0
 23 25  1  0  0  0  0
 23 26  1  0  0  0  0
M  END
> <VConfSearch Rank>
596

> <Conf_Id>
80

> <Delta U+W>
3.351

> <U+W>
-26.948

> <U>
27.261

> <W>
-54.209

> <W(PB)>
-56.471

> <W(SA)>
2.263

> <Valence>
6.230

> <Coulomb>
19.945

> <VdW>
1.087

> <VdW6>
-8.618

> <VdW12>
9.704

> <Bond>
0.277

> <Angle>
1.928

> <Pdih>
4.025

> <Idih>
0.000

> <Tether>
0.000

$$$$
VeraChem MOL file


 26 25  0  0  0  0  0  0  0  0999 V2000     
   22.0602   16.6842   22.9003 C   0  0  0  0  0  0  0  0  0  0  0  0
   22.0262   15.5920   22.7965 H   0  0  0  0  0  0  0  0  0  0  0  0
   23.0972   17.0053   22.7375 H   0  0  0  0  0  0  0  0  0  0  0  0
   21.7820   16.9258   23.9337 H   0  0  0  0  0  0  0  0  0  0  0  0
   21.1053   17.3541   21.8866 C   0  0  0  0  0  0  0  0  0  0  0  0
   20.0732   17.0386   22.0868 H   0  0  0  0  0  0  0  0  0  0  0  0
   21.3400   16.9784   20.8809 H   0  0  0  0  0  0  0  0  0  0  0  0
   21.2051   18.9017   21.8664 C   0  0  0  0  0  0  0  0  0  0  0  0
   22.2063   19.1784   21.5083 H   0  0  0  0  0  0  0  0  0  0  0  0
   20.5096   19.2859   21.1117 H   0  0  0  0  0  0  0  0  0  0  0  0
   20.9654   19.6112   23.2292 C   0  0  0  0  0  0  0  0  0  0  0  0
   21.1375   20.6900   23.1120 H   0  0  0  0  0  0  0  0  0  0  0  0
   21.7380   19.2765   23.9338 H   0  0  0  0  0  0  0  0  0  0  0  0
   19.5714   19.3809   23.8776 C   0  0  0  0  0  0  0  0  0  0  0  0
   19.1846   18.3840   23.6385 H   0  0  0  0  0  0  0  0  0  0  0  0
   19.7124   19.3851   24.9664 H   0  0  0  0  0  0  0  0  0  0  0  0
   18.5065   20.4557   23.5510 C   0  0  1  0  0  0  0  0  0  0  0  0
   18.8977   21.4291   23.8626 H   0  0  0  0  0  0  0  0  0  0  0  0
   18.1700   20.5325   22.0527 C   0  0  0  0  0  0  0  0  0  0  0  0
   19.0181   20.9256   21.4813 H   0  0  0  0  0  0  0  0  0  0  0  0
   17.3260   21.2114   21.8791 H   0  0  0  0  0  0  0  0  0  0  0  0
   17.9028   19.5464   21.6528 H   0  0  0  0  0  0  0  0  0  0  0  0
   17.2540   20.2300   24.3522 N   0  3  0  0  0  0  0  0  0  0  0  0
   17.4455   20.2229   25.3581 H   0  0  0  0  0  0  0  0  0  0  0  0
   16.5623   20.9649   24.1797 H   0  0  0  0  0  0  0  0  0  0  0  0
   16.8150   19.3361   24.1161 H   0  0  0  0  0  0  0  0  0  0  0  0
  1  2  1  0  0  0  0
  1  3  1  0  0  0  0
  1  4  1  0  0  0  0
  1  5  1  0  0  0  0
  5  6  1  0  0  0  0
  5  7  1  0  0  0  0
  5  8  1  0  0  0  0
  8  9  1  0  0  0  0
  8 10  1  0  0  0  0
  8 11  1  0  0  0  0
 11 12  1  0  0  0  0
 11 13  1  0  0  0  0
 11 14  1  0  0  0  0
 14 15  1  0  0  0  0
 14 16  1  0  0  0  0
 14 17  1  0  0  0  0
 17 18  1  0  0  0  0
 17 19  1  0  0  0  0
 19 20  1  0  0  0  0
 19 21  1  0  0  0  0
 19 22  1  0  0  0  0
 17 23  1  0  0  0  0
 23 24  1  0  0  0  0
 23 25  1  0  0  0  0
 23 26  1  0  0  0  0
M  END
> <VConfSearch Rank>
597

> <Conf_Id>
136

> <Delta U+W>
4.272

> <U+W>
-26.026

> <U>
28.262

> <W>
-54.288

> <W(PB)>
-56.488

> <W(SA)>
2.200

> <Valence>
7.096

> <Coulomb>
19.990

> <VdW>
1.175

> <VdW6>
-9.404

> <VdW12>
10.580

> <Bond>
0.360

> <Angle>
2.785

> <Pdih>
3.951

> <Idih>
0.000

> <Tether>
0.000

$$$$
VeraChem MOL file


 26 25  0  0  0  0  0  0  0  0999 V2000     
   21.3487   18.2813   20.6224 C   0  0  0  0  0  0  0  0  0  0  0  0
   20.3220   18.6640   20.5702 H   0  0  0  0  0  0  0  0  0  0  0  0
   21.7003   18.1450   19.5915 H   0  0  0  0  0  0  0  0  0  0  0  0
   21.3313   17.2951   21.1042 H   0  0  0  0  0  0  0  0  0  0  0  0
   22.2734   19.2567   21.3829 C   0  0  0  0  0  0  0  0  0  0  0  0
   22.2254   20.2475   20.9100 H   0  0  0  0  0  0  0  0  0  0  0  0
   23.3124   18.9165   21.2709 H   0  0  0  0  0  0  0  0  0  0  0  0
   21.9592   19.3875   22.8953 C   0  0  0  0  0  0  0  0  0  0  0  0
   22.1037   18.4205   23.3964 H   0  0  0  0  0  0  0  0  0  0  0  0
   22.7098   20.0614   23.3311 H   0  0  0  0  0  0  0  0  0  0  0  0
   20.5530   19.9569   23.2176 C   0  0  0  0  0  0  0  0  0  0  0  0
   20.2178   20.6132   22.4025 H   0  0  0  0  0  0  0  0  0  0  0  0
   20.6390   20.5944   24.1075 H   0  0  0  0  0  0  0  0  0  0  0  0
   19.4951   18.8574   23.4957 C   0  0  0  0  0  0  0  0  0  0  0  0
   19.4702   18.1480   22.6609 H   0  0  0  0  0  0  0  0  0  0  0  0
   19.7896   18.2793   24.3816 H   0  0  0  0  0  0  0  0  0  0  0  0
   18.0750   19.4284   23.6998 C   0  0  1  0  0  0  0  0  0  0  0  0
   17.8137   20.0198   22.8168 H   0  0  0  0  0  0  0  0  0  0  0  0
   17.0542   18.2872   23.8350 C   0  0  0  0  0  0  0  0  0  0  0  0
   17.2715   17.6617   24.7099 H   0  0  0  0  0  0  0  0  0  0  0  0
   17.0662   17.6457   22.9449 H   0  0  0  0  0  0  0  0  0  0  0  0
   16.0381   18.6859   23.9436 H   0  0  0  0  0  0  0  0  0  0  0  0
   17.9901   20.3549   24.8821 N   0  3  0  0  0  0  0  0  0  0  0  0
   18.2253   19.8716   25.7529 H   0  0  0  0  0  0  0  0  0  0  0  0
   18.6327   21.1455   24.7846 H   0  0  0  0  0  0  0  0  0  0  0  0
   17.0470   20.7388   24.9897 H   0  0  0  0  0  0  0  0  0  0  0  0
  1  2  1  0  0  0  0
  1  3  1  0  0  0  0
  1  4  1  0  0  0  0
  1  5  1  0  0  0  0
  5  6  1  0  0  0  0
  5  7  1  0  0  0  0
  5  8  1  0  0  0  0
  8  9  1  0  0  0  0
  8 10  1  0  0  0  0
  8 11  1  0  0  0  0
 11 12  1  0  0  0  0
 11 13  1  0  0  0  0
 11 14  1  0  0  0  0
 14 15  1  0  0  0  0
 14 16  1  0  0  0  0
 14 17  1  0  0  0  0
 17 18  1  0  0  0  0
 17 19  1  0  0  0  0
 19 20  1  0  0  0  0
 19 21  1  0  0  0  0
 19 22  1  0  0  0  0
 17 23  1  0  0  0  0
 23 24  1  0  0  0  0
 23 25  1  0  0  0  0
 23 26  1  0  0  0  0
M  END
> <VConfSearch Rank>
598

> <Conf_Id>
124

> <Delta U+W>
3.001

> <U+W>
-27.298

> <U>
26.787

> <W>
-54.085

> <W(PB)>
-56.347

> <W(SA)>
2.262

> <Valence>
5.742

> <Coulomb>
20.023

> <VdW>
1.022

> <VdW6>
-8.392

> <VdW12>
9.414

> <Bond>
0.261

> <Angle>
1.576

> <Pdih>
3.904

> <Idih>
0.000

> <Tether>
0.000

$$$$
VeraChem MOL file


 26 25  0  0  0  0  0  0  0  0999 V2000     
   17.2337   19.9140   21.2670 C   0  0  0  0  0  0  0  0  0  0  0  0
   16.7838   19.0614   20.7420 H   0  0  0  0  0  0  0  0  0  0  0  0
   16.6615   20.8108   20.9964 H   0  0  0  0  0  0  0  0  0  0  0  0
   18.2528   20.0443   20.8869 H   0  0  0  0  0  0  0  0  0  0  0  0
   17.2054   19.6966   22.7979 C   0  0  0  0  0  0  0  0  0  0  0  0
   16.1545   19.6058   23.1066 H   0  0  0  0  0  0  0  0  0  0  0  0
   17.5968   20.5825   23.3171 H   0  0  0  0  0  0  0  0  0  0  0  0
   17.9647   18.4242   23.2547 C   0  0  0  0  0  0  0  0  0  0  0  0
   17.4254   17.9943   24.1102 H   0  0  0  0  0  0  0  0  0  0  0  0
   17.9299   17.6574   22.4685 H   0  0  0  0  0  0  0  0  0  0  0  0
   19.4298   18.6648   23.7018 C   0  0  0  0  0  0  0  0  0  0  0  0
   19.8283   17.7138   24.0782 H   0  0  0  0  0  0  0  0  0  0  0  0
   19.4325   19.3579   24.5536 H   0  0  0  0  0  0  0  0  0  0  0  0
   20.3550   19.2071   22.5804 C   0  0  0  0  0  0  0  0  0  0  0  0
   20.2326   18.5919   21.6794 H   0  0  0  0  0  0  0  0  0  0  0  0
   20.0389   20.2216   22.3081 H   0  0  0  0  0  0  0  0  0  0  0  0
   21.8581   19.2532   22.9437 C   0  0  1  0  0  0  0  0  0  0  0  0
   22.3900   19.6548   22.0755 H   0  0  0  0  0  0  0  0  0  0  0  0
   22.1359   20.1882   24.1337 C   0  0  0  0  0  0  0  0  0  0  0  0
   21.7061   19.7983   25.0641 H   0  0  0  0  0  0  0  0  0  0  0  0
   21.7162   21.1854   23.9522 H   0  0  0  0  0  0  0  0  0  0  0  0
   23.2159   20.3047   24.2863 H   0  0  0  0  0  0  0  0  0  0  0  0
   22.4340   17.8851   23.1868 N   0  3  0  0  0  0  0  0  0  0  0  0
   23.4418   17.9292   23.3623 H   0  0  0  0  0  0  0  0  0  0  0  0
   22.0009   17.4377   23.9983 H   0  0  0  0  0  0  0  0  0  0  0  0
   22.2907   17.2688   22.3818 H   0  0  0  0  0  0  0  0  0  0  0  0
  1  2  1  0  0  0  0
  1  3  1  0  0  0  0
  1  4  1  0  0  0  0
  1  5  1  0  0  0  0
  5  6  1  0  0  0  0
  5  7  1  0  0  0  0
  5  8  1  0  0  0  0
  8  9  1  0  0  0  0
  8 10  1  0  0  0  0
  8 11  1  0  0  0  0
 11 12  1  0  0  0  0
 11 13  1  0  0  0  0
 11 14  1  0  0  0  0
 14 15  1  0  0  0  0
 14 16  1  0  0  0  0
 14 17  1  0  0  0  0
 17 18  1  0  0  0  0
 17 19  1  0  0  0  0
 19 20  1  0  0  0  0
 19 21  1  0  0  0  0
 19 22  1  0  0  0  0
 17 23  1  0  0  0  0
 23 24  1  0  0  0  0
 23 25  1  0  0  0  0
 23 26  1  0  0  0  0
M  END
> <VConfSearch Rank>
599

> <Conf_Id>
105

> <Delta U+W>
3.442

> <U+W>
-26.857

> <U>
27.313

> <W>
-54.169

> <W(PB)>
-56.414

> <W(SA)>
2.245

> <Valence>
6.229

> <Coulomb>
19.943

> <VdW>
1.140

> <VdW6>
-9.001

> <VdW12>
10.140

> <Bond>
0.294

> <Angle>
1.969

> <Pdih>
3.967

> <Idih>
0.000

> <Tether>
0.000

$$$$
VeraChem MOL file


 26 25  0  0  0  0  0  0  0  0999 V2000     
   21.6515   19.1018   25.4069 C   0  0  0  0  0  0  0  0  0  0  0  0
   22.6221   19.5993   25.2823 H   0  0  0  0  0  0  0  0  0  0  0  0
   21.6628   18.5893   26.3775 H   0  0  0  0  0  0  0  0  0  0  0  0
   21.5630   18.3356   24.6292 H   0  0  0  0  0  0  0  0  0  0  0  0
   20.4948   20.1269   25.3508 C   0  0  0  0  0  0  0  0  0  0  0  0
   20.6333   20.8376   26.1777 H   0  0  0  0  0  0  0  0  0  0  0  0
   19.5335   19.6288   25.5388 H   0  0  0  0  0  0  0  0  0  0  0  0
   20.4387   20.9232   24.0215 C   0  0  0  0  0  0  0  0  0  0  0  0
   20.0964   21.9424   24.2488 H   0  0  0  0  0  0  0  0  0  0  0  0
   21.4484   21.0374   23.6037 H   0  0  0  0  0  0  0  0  0  0  0  0
   19.4804   20.3385   22.9519 C   0  0  0  0  0  0  0  0  0  0  0  0
   19.4668   21.0229   22.0923 H   0  0  0  0  0  0  0  0  0  0  0  0
   18.4585   20.3288   23.3542 H   0  0  0  0  0  0  0  0  0  0  0  0
   19.8650   18.9216   22.4593 C   0  0  0  0  0  0  0  0  0  0  0  0
   20.9314   18.9123   22.1974 H   0  0  0  0  0  0  0  0  0  0  0  0
   19.7265   18.1949   23.2695 H   0  0  0  0  0  0  0  0  0  0  0  0
   19.0458   18.4715   21.2305 C   0  0  1  0  0  0  0  0  0  0  0  0
   19.1800   19.2144   20.4383 H   0  0  0  0  0  0  0  0  0  0  0  0
   19.5576   17.1174   20.7139 C   0  0  0  0  0  0  0  0  0  0  0  0
   19.4427   16.3335   21.4729 H   0  0  0  0  0  0  0  0  0  0  0  0
   20.6193   17.1790   20.4444 H   0  0  0  0  0  0  0  0  0  0  0  0
   19.0045   16.8094   19.8180 H   0  0  0  0  0  0  0  0  0  0  0  0
   17.5702   18.4051   21.5161 N   0  3  0  0  0  0  0  0  0  0  0  0
   17.2074   19.3122   21.8210 H   0  0  0  0  0  0  0  0  0  0  0  0
   17.0404   18.1272   20.6852 H   0  0  0  0  0  0  0  0  0  0  0  0
   17.3626   17.7261   22.2531 H   0  0  0  0  0  0  0  0  0  0  0  0
  1  2  1  0  0  0  0
  1  3  1  0  0  0  0
  1  4  1  0  0  0  0
  1  5  1  0  0  0  0
  5  6  1  0  0  0  0
  5  7  1  0  0  0  0
  5  8  1  0  0  0  0
  8  9  1  0  0  0  0
  8 10  1  0  0  0  0
  8 11  1  0  0  0  0
 11 12  1  0  0  0  0
 11 13  1  0  0  0  0
 11 14  1  0  0  0  0
 14 15  1  0  0  0  0
 14 16  1  0  0  0  0
 14 17  1  0  0  0  0
 17 18  1  0  0  0  0
 17 19  1  0  0  0  0
 19 20  1  0  0  0  0
 19 21  1  0  0  0  0
 19 22  1  0  0  0  0
 17 23  1  0  0  0  0
 23 24  1  0  0  0  0
 23 25  1  0  0  0  0
 23 26  1  0  0  0  0
M  END
> <VConfSearch Rank>
600

> <Conf_Id>
107

> <Delta U+W>
2.995

> <U+W>
-27.304

> <U>
26.796

> <W>
-54.100

> <W(PB)>
-56.404

> <W(SA)>
2.304

> <Valence>
5.706

> <Coulomb>
20.107

> <VdW>
0.982

> <VdW6>
-8.396

> <VdW12>
9.378

> <Bond>
0.254

> <Angle>
1.644

> <Pdih>
3.808

> <Idih>
0.000

> <Tether>
0.000

$$$$
VeraChem MOL file


 26 25  0  0  0  0  0  0  0  0999 V2000     
   19.6808   22.0501   25.9415 C   0  0  0  0  0  0  0  0  0  0  0  0
   18.9079   21.5819   26.5650 H   0  0  0  0  0  0  0  0  0  0  0  0
   20.3831   22.5677   26.6077 H   0  0  0  0  0  0  0  0  0  0  0  0
   19.1978   22.8057   25.3082 H   0  0  0  0  0  0  0  0  0  0  0  0
   20.4165   20.9971   25.0860 C   0  0  0  0  0  0  0  0  0  0  0  0
   20.9171   20.2756   25.7469 H   0  0  0  0  0  0  0  0  0  0  0  0
   21.2048   21.4900   24.4998 H   0  0  0  0  0  0  0  0  0  0  0  0
   19.4497   20.2529   24.1384 C   0  0  0  0  0  0  0  0  0  0  0  0
   18.6620   19.7650   24.7292 H   0  0  0  0  0  0  0  0  0  0  0  0
   18.9505   20.9784   23.4811 H   0  0  0  0  0  0  0  0  0  0  0  0
   20.1826   19.1969   23.2804 C   0  0  0  0  0  0  0  0  0  0  0  0
   20.6784   18.4702   23.9390 H   0  0  0  0  0  0  0  0  0  0  0  0
   20.9719   19.6914   22.6987 H   0  0  0  0  0  0  0  0  0  0  0  0
   19.2113   18.4540   22.3310 C   0  0  0  0  0  0  0  0  0  0  0  0
   18.4007   18.0134   22.9267 H   0  0  0  0  0  0  0  0  0  0  0  0
   18.7416   19.1710   21.6445 H   0  0  0  0  0  0  0  0  0  0  0  0
   19.8990   17.3335   21.5211 C   0  0  1  0  0  0  0  0  0  0  0  0
   20.3787   16.6465   22.2252 H   0  0  0  0  0  0  0  0  0  0  0  0
   18.8584   16.5443   20.7105 C   0  0  0  0  0  0  0  0  0  0  0  0
   18.3475   17.1897   19.9850 H   0  0  0  0  0  0  0  0  0  0  0  0
   18.1000   16.1061   21.3712 H   0  0  0  0  0  0  0  0  0  0  0  0
   19.3353   15.7232   20.1613 H   0  0  0  0  0  0  0  0  0  0  0  0
   20.9837   17.8566   20.6193 N   0  3  0  0  0  0  0  0  0  0  0  0
   20.6108   18.5136   19.9289 H   0  0  0  0  0  0  0  0  0  0  0  0
   21.7087   18.3458   21.1508 H   0  0  0  0  0  0  0  0  0  0  0  0
   21.4408   17.0983   20.1051 H   0  0  0  0  0  0  0  0  0  0  0  0
  1  2  1  0  0  0  0
  1  3  1  0  0  0  0
  1  4  1  0  0  0  0
  1  5  1  0  0  0  0
  5  6  1  0  0  0  0
  5  7  1  0  0  0  0
  5  8  1  0  0  0  0
  8  9  1  0  0  0  0
  8 10  1  0  0  0  0
  8 11  1  0  0  0  0
 11 12  1  0  0  0  0
 11 13  1  0  0  0  0
 11 14  1  0  0  0  0
 14 15  1  0  0  0  0
 14 16  1  0  0  0  0
 14 17  1  0  0  0  0
 17 18  1  0  0  0  0
 17 19  1  0  0  0  0
 19 20  1  0  0  0  0
 19 21  1  0  0  0  0
 19 22  1  0  0  0  0
 17 23  1  0  0  0  0
 23 24  1  0  0  0  0
 23 25  1  0  0  0  0
 23 26  1  0  0  0  0
M  END
> <VConfSearch Rank>
601

> <Conf_Id>
122

> <Delta U+W>
0.000

> <U+W>
-30.299

> <U>
23.517

> <W>
-53.816

> <W(PB)>
-56.162

> <W(SA)>
2.346

> <Valence>
2.737

> <Coulomb>
19.862

> <VdW>
0.919

> <VdW6>
-6.793

> <VdW12>
7.712

> <Bond>
0.171

> <Angle>
0.873

> <Pdih>
1.693

> <Idih>
0.000

> <Tether>
0.000

$$$$
VeraChem MOL file


 26 25  0  0  0  0  0  0  0  0999 V2000     
   16.4444   16.7283   23.6284 C   0  0  0  0  0  0  0  0  0  0  0  0
   16.2306   15.7072   23.9699 H   0  0  0  0  0  0  0  0  0  0  0  0
   15.9049   17.4232   24.2852 H   0  0  0  0  0  0  0  0  0  0  0  0
   16.0413   16.8352   22.6128 H   0  0  0  0  0  0  0  0  0  0  0  0
   17.9625   17.0053   23.6548 C   0  0  0  0  0  0  0  0  0  0  0  0
   18.4774   16.2740   23.0161 H   0  0  0  0  0  0  0  0  0  0  0  0
   18.3422   16.8576   24.6756 H   0  0  0  0  0  0  0  0  0  0  0  0
   18.2911   18.4375   23.1781 C   0  0  0  0  0  0  0  0  0  0  0  0
   17.9080   18.5810   22.1583 H   0  0  0  0  0  0  0  0  0  0  0  0
   17.7712   19.1639   23.8180 H   0  0  0  0  0  0  0  0  0  0  0  0
   19.8107   18.7188   23.2036 C   0  0  0  0  0  0  0  0  0  0  0  0
   20.3205   17.9825   22.5684 H   0  0  0  0  0  0  0  0  0  0  0  0
   20.1921   18.5798   24.2247 H   0  0  0  0  0  0  0  0  0  0  0  0
   20.1372   20.1536   22.7210 C   0  0  0  0  0  0  0  0  0  0  0  0
   19.8160   20.2758   21.6780 H   0  0  0  0  0  0  0  0  0  0  0  0
   19.5463   20.8644   23.3138 H   0  0  0  0  0  0  0  0  0  0  0  0
   21.6306   20.5308   22.8528 C   0  0  1  0  0  0  0  0  0  0  0  0
   21.9372   20.3611   23.8895 H   0  0  0  0  0  0  0  0  0  0  0  0
   22.5274   19.6811   21.9344 C   0  0  0  0  0  0  0  0  0  0  0  0
   22.2173   19.7682   20.8856 H   0  0  0  0  0  0  0  0  0  0  0  0
   22.4969   18.6221   22.2153 H   0  0  0  0  0  0  0  0  0  0  0  0
   23.5728   20.0053   22.0078 H   0  0  0  0  0  0  0  0  0  0  0  0
   21.8463   21.9939   22.5812 N   0  3  0  0  0  0  0  0  0  0  0  0
   21.5843   22.2396   21.6228 H   0  0  0  0  0  0  0  0  0  0  0  0
   21.2921   22.5805   23.2116 H   0  0  0  0  0  0  0  0  0  0  0  0
   22.8280   22.2569   22.7062 H   0  0  0  0  0  0  0  0  0  0  0  0
  1  2  1  0  0  0  0
  1  3  1  0  0  0  0
  1  4  1  0  0  0  0
  1  5  1  0  0  0  0
  5  6  1  0  0  0  0
  5  7  1  0  0  0  0
  5  8  1  0  0  0  0
  8  9  1  0  0  0  0
  8 10  1  0  0  0  0
  8 11  1  0  0  0  0
 11 12  1  0  0  0  0
 11 13  1  0  0  0  0
 11 14  1  0  0  0  0
 14 15  1  0  0  0  0
 14 16  1  0  0  0  0
 14 17  1  0  0  0  0
 17 18  1  0  0  0  0
 17 19  1  0  0  0  0
 19 20  1  0  0  0  0
 19 21  1  0  0  0  0
 19 22  1  0  0  0  0
 17 23  1  0  0  0  0
 23 24  1  0  0  0  0
 23 25  1  0  0  0  0
 23 26  1  0  0  0  0
M  END
> <VConfSearch Rank>
602

> <Conf_Id>
54

> <Delta U+W>
0.453

> <U+W>
-29.845

> <U>
23.817

> <W>
-53.663

> <W(PB)>
-56.021

> <W(SA)>
2.358

> <Valence>
3.277

> <Coulomb>
19.492

> <VdW>
1.049

> <VdW6>
-6.949

> <VdW12>
7.998

> <Bond>
0.183

> <Angle>
1.152

> <Pdih>
1.942

> <Idih>
0.000

> <Tether>
0.000

$$$$
VeraChem MOL file


 26 25  0  0  0  0  0  0  0  0999 V2000     
   21.2123   22.1838   21.5321 C   0  0  0  0  0  0  0  0  0  0  0  0
   21.5250   21.6395   20.6316 H   0  0  0  0  0  0  0  0  0  0  0  0
   20.1487   22.4318   21.4322 H   0  0  0  0  0  0  0  0  0  0  0  0
   21.7685   23.1297   21.5617 H   0  0  0  0  0  0  0  0  0  0  0  0
   21.4894   21.3548   22.8072 C   0  0  0  0  0  0  0  0  0  0  0  0
   21.1373   21.9044   23.6914 H   0  0  0  0  0  0  0  0  0  0  0  0
   22.5768   21.2480   22.9255 H   0  0  0  0  0  0  0  0  0  0  0  0
   20.8546   19.9431   22.7788 C   0  0  0  0  0  0  0  0  0  0  0  0
   21.1873   19.4109   21.8769 H   0  0  0  0  0  0  0  0  0  0  0  0
   21.2454   19.3899   23.6410 H   0  0  0  0  0  0  0  0  0  0  0  0
   19.3064   19.9622   22.8425 C   0  0  0  0  0  0  0  0  0  0  0  0
   18.9188   20.6212   22.0555 H   0  0  0  0  0  0  0  0  0  0  0  0
   18.9859   20.4052   23.7955 H   0  0  0  0  0  0  0  0  0  0  0  0
   18.6293   18.5775   22.6639 C   0  0  0  0  0  0  0  0  0  0  0  0
   17.5458   18.7529   22.6271 H   0  0  0  0  0  0  0  0  0  0  0  0
   18.8952   18.1489   21.6886 H   0  0  0  0  0  0  0  0  0  0  0  0
   18.9267   17.5564   23.7879 C   0  0  1  0  0  0  0  0  0  0  0  0
   18.9545   18.0913   24.7422 H   0  0  0  0  0  0  0  0  0  0  0  0
   17.8116   16.4999   23.8611 C   0  0  0  0  0  0  0  0  0  0  0  0
   18.0090   15.7814   24.6663 H   0  0  0  0  0  0  0  0  0  0  0  0
   17.7294   15.9438   22.9188 H   0  0  0  0  0  0  0  0  0  0  0  0
   16.8415   16.9689   24.0674 H   0  0  0  0  0  0  0  0  0  0  0  0
   20.2578   16.8752   23.6204 N   0  3  0  0  0  0  0  0  0  0  0  0
   21.0230   17.5517   23.5768 H   0  0  0  0  0  0  0  0  0  0  0  0
   20.4524   16.2385   24.3984 H   0  0  0  0  0  0  0  0  0  0  0  0
   20.2865   16.3226   22.7595 H   0  0  0  0  0  0  0  0  0  0  0  0
  1  2  1  0  0  0  0
  1  3  1  0  0  0  0
  1  4  1  0  0  0  0
  1  5  1  0  0  0  0
  5  6  1  0  0  0  0
  5  7  1  0  0  0  0
  5  8  1  0  0  0  0
  8  9  1  0  0  0  0
  8 10  1  0  0  0  0
  8 11  1  0  0  0  0
 11 12  1  0  0  0  0
 11 13  1  0  0  0  0
 11 14  1  0  0  0  0
 14 15  1  0  0  0  0
 14 16  1  0  0  0  0
 14 17  1  0  0  0  0
 17 18  1  0  0  0  0
 17 19  1  0  0  0  0
 19 20  1  0  0  0  0
 19 21  1  0  0  0  0
 19 22  1  0  0  0  0
 17 23  1  0  0  0  0
 23 24  1  0  0  0  0
 23 25  1  0  0  0  0
 23 26  1  0  0  0  0
M  END
> <VConfSearch Rank>
603

> <Conf_Id>
110

> <Delta U+W>
3.764

> <U+W>
-26.535

> <U>
27.400

> <W>
-53.935

> <W(PB)>
-56.238

> <W(SA)>
2.303

> <Valence>
5.205

> <Coulomb>
21.096

> <VdW>
1.098

> <VdW6>
-8.389

> <VdW12>
9.488

> <Bond>
0.270

> <Angle>
1.912

> <Pdih>
3.023

> <Idih>
0.000

> <Tether>
0.000

$$$$
VeraChem MOL file


 26 25  0  0  0  0  0  0  0  0999 V2000     
   20.6171   22.1863   21.0165 C   0  0  0  0  0  0  0  0  0  0  0  0
   21.1482   23.1440   20.9413 H   0  0  0  0  0  0  0  0  0  0  0  0
   21.2481   21.4218   20.5465 H   0  0  0  0  0  0  0  0  0  0  0  0
   19.6887   22.2709   20.4369 H   0  0  0  0  0  0  0  0  0  0  0  0
   20.3204   21.8471   22.4949 C   0  0  0  0  0  0  0  0  0  0  0  0
   19.7930   22.6951   22.9538 H   0  0  0  0  0  0  0  0  0  0  0  0
   21.2652   21.7386   23.0457 H   0  0  0  0  0  0  0  0  0  0  0  0
   19.4615   20.5722   22.6742 C   0  0  0  0  0  0  0  0  0  0  0  0
   19.2066   20.4748   23.7363 H   0  0  0  0  0  0  0  0  0  0  0  0
   18.5073   20.6983   22.1443 H   0  0  0  0  0  0  0  0  0  0  0  0
   20.1632   19.2825   22.1756 C   0  0  0  0  0  0  0  0  0  0  0  0
   21.1773   19.2106   22.5924 H   0  0  0  0  0  0  0  0  0  0  0  0
   20.2865   19.3521   21.0867 H   0  0  0  0  0  0  0  0  0  0  0  0
   19.3652   17.9890   22.4892 C   0  0  0  0  0  0  0  0  0  0  0  0
   18.2920   18.2108   22.5598 H   0  0  0  0  0  0  0  0  0  0  0  0
   19.4742   17.3120   21.6316 H   0  0  0  0  0  0  0  0  0  0  0  0
   19.8380   17.2237   23.7488 C   0  0  1  0  0  0  0  0  0  0  0  0
   20.8976   16.9816   23.6212 H   0  0  0  0  0  0  0  0  0  0  0  0
   19.6870   18.0462   25.0397 C   0  0  0  0  0  0  0  0  0  0  0  0
   18.6535   18.3885   25.1746 H   0  0  0  0  0  0  0  0  0  0  0  0
   20.3463   18.9218   25.0279 H   0  0  0  0  0  0  0  0  0  0  0  0
   19.9638   17.4462   25.9153 H   0  0  0  0  0  0  0  0  0  0  0  0
   19.1189   15.9100   23.8830 N   0  3  0  0  0  0  0  0  0  0  0  0
   19.2462   15.3234   23.0534 H   0  0  0  0  0  0  0  0  0  0  0  0
   19.4608   15.3769   24.6876 H   0  0  0  0  0  0  0  0  0  0  0  0
   18.1127   16.0456   24.0122 H   0  0  0  0  0  0  0  0  0  0  0  0
  1  2  1  0  0  0  0
  1  3  1  0  0  0  0
  1  4  1  0  0  0  0
  1  5  1  0  0  0  0
  5  6  1  0  0  0  0
  5  7  1  0  0  0  0
  5  8  1  0  0  0  0
  8  9  1  0  0  0  0
  8 10  1  0  0  0  0
  8 11  1  0  0  0  0
 11 12  1  0  0  0  0
 11 13  1  0  0  0  0
 11 14  1  0  0  0  0
 14 15  1  0  0  0  0
 14 16  1  0  0  0  0
 14 17  1  0  0  0  0
 17 18  1  0  0  0  0
 17 19  1  0  0  0  0
 19 20  1  0  0  0  0
 19 21  1  0  0  0  0
 19 22  1  0  0  0  0
 17 23  1  0  0  0  0
 23 24  1  0  0  0  0
 23 25  1  0  0  0  0
 23 26  1  0  0  0  0
M  END
> <VConfSearch Rank>
604

> <Conf_Id>
34

> <Delta U+W>
3.568

> <U+W>
-26.731

> <U>
27.221

> <W>
-53.952

> <W(PB)>
-56.213

> <W(SA)>
2.261

> <Valence>
6.368

> <Coulomb>
19.698

> <VdW>
1.155

> <VdW6>
-8.532

> <VdW12>
9.687

> <Bond>
0.272

> <Angle>
1.847

> <Pdih>
4.248

> <Idih>
0.000

> <Tether>
0.000

$$$$
VeraChem MOL file


 26 25  0  0  0  0  0  0  0  0999 V2000     
   22.6402   20.2979   25.6396 C   0  0  0  0  0  0  0  0  0  0  0  0
   22.0598   20.1341   26.5569 H   0  0  0  0  0  0  0  0  0  0  0  0
   23.3375   19.4582   25.5216 H   0  0  0  0  0  0  0  0  0  0  0  0
   23.2331   21.2118   25.7747 H   0  0  0  0  0  0  0  0  0  0  0  0
   21.7134   20.4261   24.4121 C   0  0  0  0  0  0  0  0  0  0  0  0
   22.3196   20.6230   23.5168 H   0  0  0  0  0  0  0  0  0  0  0  0
   21.0518   21.2937   24.5441 H   0  0  0  0  0  0  0  0  0  0  0  0
   20.8666   19.1517   24.1992 C   0  0  0  0  0  0  0  0  0  0  0  0
   21.5327   18.2873   24.0704 H   0  0  0  0  0  0  0  0  0  0  0  0
   20.2647   18.9579   25.0978 H   0  0  0  0  0  0  0  0  0  0  0  0
   19.9368   19.2761   22.9709 C   0  0  0  0  0  0  0  0  0  0  0  0
   20.5446   19.4714   22.0776 H   0  0  0  0  0  0  0  0  0  0  0  0
   19.2793   20.1447   23.1074 H   0  0  0  0  0  0  0  0  0  0  0  0
   19.0876   17.9947   22.7647 C   0  0  0  0  0  0  0  0  0  0  0  0
   19.7569   17.1285   22.6793 H   0  0  0  0  0  0  0  0  0  0  0  0
   18.4763   17.8166   23.6594 H   0  0  0  0  0  0  0  0  0  0  0  0
   18.1604   18.0192   21.5265 C   0  0  1  0  0  0  0  0  0  0  0  0
   17.6485   17.0527   21.4850 H   0  0  0  0  0  0  0  0  0  0  0  0
   17.0821   19.1118   21.6322 C   0  0  0  0  0  0  0  0  0  0  0  0
   17.5166   20.1172   21.5815 H   0  0  0  0  0  0  0  0  0  0  0  0
   16.5282   19.0232   22.5750 H   0  0  0  0  0  0  0  0  0  0  0  0
   16.3596   19.0179   20.8123 H   0  0  0  0  0  0  0  0  0  0  0  0
   18.9261   18.1405   20.2376 N   0  3  0  0  0  0  0  0  0  0  0  0
   18.3032   18.0915   19.4264 H   0  0  0  0  0  0  0  0  0  0  0  0
   19.4279   19.0303   20.1856 H   0  0  0  0  0  0  0  0  0  0  0  0
   19.6162   17.3906   20.1386 H   0  0  0  0  0  0  0  0  0  0  0  0
  1  2  1  0  0  0  0
  1  3  1  0  0  0  0
  1  4  1  0  0  0  0
  1  5  1  0  0  0  0
  5  6  1  0  0  0  0
  5  7  1  0  0  0  0
  5  8  1  0  0  0  0
  8  9  1  0  0  0  0
  8 10  1  0  0  0  0
  8 11  1  0  0  0  0
 11 12  1  0  0  0  0
 11 13  1  0  0  0  0
 11 14  1  0  0  0  0
 14 15  1  0  0  0  0
 14 16  1  0  0  0  0
 14 17  1  0  0  0  0
 17 18  1  0  0  0  0
 17 19  1  0  0  0  0
 19 20  1  0  0  0  0
 19 21  1  0  0  0  0
 19 22  1  0  0  0  0
 17 23  1  0  0  0  0
 23 24  1  0  0  0  0
 23 25  1  0  0  0  0
 23 26  1  0  0  0  0
M  END
> <VConfSearch Rank>
605

> <Conf_Id>
132

> <Delta U+W>
0.363

> <U+W>
-29.936

> <U>
24.060

> <W>
-53.996

> <W(PB)>
-56.327

> <W(SA)>
2.332

> <Valence>
3.249

> <Coulomb>
19.781

> <VdW>
1.030

> <VdW6>
-7.421

> <VdW12>
8.451

> <Bond>
0.207

> <Angle>
1.205

> <Pdih>
1.837

> <Idih>
0.000

> <Tether>
0.000

$$$$
VeraChem MOL file


 26 25  0  0  0  0  0  0  0  0999 V2000     
   16.8798   19.8579   20.4708 C   0  0  0  0  0  0  0  0  0  0  0  0
   15.8172   19.7739   20.7332 H   0  0  0  0  0  0  0  0  0  0  0  0
   17.0409   20.8518   20.0332 H   0  0  0  0  0  0  0  0  0  0  0  0
   17.0973   19.1060   19.7010 H   0  0  0  0  0  0  0  0  0  0  0  0
   17.7670   19.6487   21.7163 C   0  0  0  0  0  0  0  0  0  0  0  0
   17.5468   18.6633   22.1476 H   0  0  0  0  0  0  0  0  0  0  0  0
   17.5063   20.3963   22.4784 H   0  0  0  0  0  0  0  0  0  0  0  0
   19.2708   19.7581   21.3694 C   0  0  0  0  0  0  0  0  0  0  0  0
   19.5431   18.9748   20.6486 H   0  0  0  0  0  0  0  0  0  0  0  0
   19.4499   20.7170   20.8637 H   0  0  0  0  0  0  0  0  0  0  0  0
   20.2019   19.6749   22.6041 C   0  0  0  0  0  0  0  0  0  0  0  0
   19.9281   20.4646   23.3162 H   0  0  0  0  0  0  0  0  0  0  0  0
   21.2236   19.8980   22.2708 H   0  0  0  0  0  0  0  0  0  0  0  0
   20.1745   18.2887   23.3047 C   0  0  0  0  0  0  0  0  0  0  0  0
   19.1606   18.0789   23.6662 H   0  0  0  0  0  0  0  0  0  0  0  0
   20.4028   17.5053   22.5701 H   0  0  0  0  0  0  0  0  0  0  0  0
   21.1438   18.1456   24.5022 C   0  0  1  0  0  0  0  0  0  0  0  0
   20.9828   17.1521   24.9322 H   0  0  0  0  0  0  0  0  0  0  0  0
   22.6184   18.2289   24.0700 C   0  0  0  0  0  0  0  0  0  0  0  0
   22.8843   19.2337   23.7215 H   0  0  0  0  0  0  0  0  0  0  0  0
   22.8291   17.5171   23.2623 H   0  0  0  0  0  0  0  0  0  0  0  0
   23.2781   17.9818   24.9108 H   0  0  0  0  0  0  0  0  0  0  0  0
   20.8475   19.1284   25.6015 N   0  3  0  0  0  0  0  0  0  0  0  0
   19.8802   19.0472   25.9273 H   0  0  0  0  0  0  0  0  0  0  0  0
   21.4564   18.9792   26.4110 H   0  0  0  0  0  0  0  0  0  0  0  0
   20.9868   20.0914   25.2861 H   0  0  0  0  0  0  0  0  0  0  0  0
  1  2  1  0  0  0  0
  1  3  1  0  0  0  0
  1  4  1  0  0  0  0
  1  5  1  0  0  0  0
  5  6  1  0  0  0  0
  5  7  1  0  0  0  0
  5  8  1  0  0  0  0
  8  9  1  0  0  0  0
  8 10  1  0  0  0  0
  8 11  1  0  0  0  0
 11 12  1  0  0  0  0
 11 13  1  0  0  0  0
 11 14  1  0  0  0  0
 14 15  1  0  0  0  0
 14 16  1  0  0  0  0
 14 17  1  0  0  0  0
 17 18  1  0  0  0  0
 17 19  1  0  0  0  0
 19 20  1  0  0  0  0
 19 21  1  0  0  0  0
 19 22  1  0  0  0  0
 17 23  1  0  0  0  0
 23 24  1  0  0  0  0
 23 25  1  0  0  0  0
 23 26  1  0  0  0  0
M  END
> <VConfSearch Rank>
606

> <Conf_Id>
46

> <Delta U+W>
1.114

> <U+W>
-29.185

> <U>
24.990

> <W>
-54.175

> <W(PB)>
-56.455

> <W(SA)>
2.279

> <Valence>
3.862

> <Coulomb>
19.956

> <VdW>
1.172

> <VdW6>
-8.054

> <VdW12>
9.226

> <Bond>
0.258

> <Angle>
1.499

> <Pdih>
2.106

> <Idih>
0.000

> <Tether>
0.000

$$$$
VeraChem MOL file


 26 25  0  0  0  0  0  0  0  0999 V2000     
   22.1117   20.4494   20.3950 C   0  0  0  0  0  0  0  0  0  0  0  0
   22.7016   20.6373   21.3005 H   0  0  0  0  0  0  0  0  0  0  0  0
   22.4088   19.4749   19.9861 H   0  0  0  0  0  0  0  0  0  0  0  0
   22.3830   21.2183   19.6601 H   0  0  0  0  0  0  0  0  0  0  0  0
   20.5942   20.4912   20.6854 C   0  0  0  0  0  0  0  0  0  0  0  0
   20.0509   20.4264   19.7322 H   0  0  0  0  0  0  0  0  0  0  0  0
   20.3283   21.4628   21.1248 H   0  0  0  0  0  0  0  0  0  0  0  0
   20.1104   19.3477   21.6098 C   0  0  0  0  0  0  0  0  0  0  0  0
   19.0140   19.3848   21.6505 H   0  0  0  0  0  0  0  0  0  0  0  0
   20.3706   18.3793   21.1607 H   0  0  0  0  0  0  0  0  0  0  0  0
   20.6884   19.4298   23.0456 C   0  0  0  0  0  0  0  0  0  0  0  0
   20.4544   20.4081   23.4858 H   0  0  0  0  0  0  0  0  0  0  0  0
   21.7836   19.3701   23.0030 H   0  0  0  0  0  0  0  0  0  0  0  0
   20.1836   18.2947   23.9734 C   0  0  0  0  0  0  0  0  0  0  0  0
   20.5069   17.3304   23.5591 H   0  0  0  0  0  0  0  0  0  0  0  0
   20.6752   18.3879   24.9510 H   0  0  0  0  0  0  0  0  0  0  0  0
   18.6515   18.2681   24.1744 C   0  0  1  0  0  0  0  0  0  0  0  0
   18.1769   18.1489   23.1961 H   0  0  0  0  0  0  0  0  0  0  0  0
   18.2480   17.0710   25.0498 C   0  0  0  0  0  0  0  0  0  0  0  0
   17.1580   17.0232   25.1636 H   0  0  0  0  0  0  0  0  0  0  0  0
   18.6932   17.1423   26.0502 H   0  0  0  0  0  0  0  0  0  0  0  0
   18.5769   16.1280   24.5959 H   0  0  0  0  0  0  0  0  0  0  0  0
   18.1266   19.5517   24.7569 N   0  3  0  0  0  0  0  0  0  0  0  0
   18.3567   20.3514   24.1611 H   0  0  0  0  0  0  0  0  0  0  0  0
   17.1082   19.5277   24.8602 H   0  0  0  0  0  0  0  0  0  0  0  0
   18.5246   19.7315   25.6824 H   0  0  0  0  0  0  0  0  0  0  0  0
  1  2  1  0  0  0  0
  1  3  1  0  0  0  0
  1  4  1  0  0  0  0
  1  5  1  0  0  0  0
  5  6  1  0  0  0  0
  5  7  1  0  0  0  0
  5  8  1  0  0  0  0
  8  9  1  0  0  0  0
  8 10  1  0  0  0  0
  8 11  1  0  0  0  0
 11 12  1  0  0  0  0
 11 13  1  0  0  0  0
 11 14  1  0  0  0  0
 14 15  1  0  0  0  0
 14 16  1  0  0  0  0
 14 17  1  0  0  0  0
 17 18  1  0  0  0  0
 17 19  1  0  0  0  0
 19 20  1  0  0  0  0
 19 21  1  0  0  0  0
 19 22  1  0  0  0  0
 17 23  1  0  0  0  0
 23 24  1  0  0  0  0
 23 25  1  0  0  0  0
 23 26  1  0  0  0  0
M  END
> <VConfSearch Rank>
607

> <Conf_Id>
113

> <Delta U+W>
1.137

> <U+W>
-29.162

> <U>
24.833

> <W>
-53.995

> <W(PB)>
-56.288

> <W(SA)>
2.294

> <Valence>
3.589

> <Coulomb>
20.270

> <VdW>
0.974

> <VdW6>
-8.255

> <VdW12>
9.229

> <Bond>
0.244

> <Angle>
1.377

> <Pdih>
1.967

> <Idih>
0.000

> <Tether>
0.000

$$$$
VeraChem MOL file


 26 25  0  0  0  0  0  0  0  0999 V2000     
   16.7561   20.9873   21.3130 C   0  0  0  0  0  0  0  0  0  0  0  0
   15.7272   20.9445   21.6932 H   0  0  0  0  0  0  0  0  0  0  0  0
   17.1087   22.0224   21.4105 H   0  0  0  0  0  0  0  0  0  0  0  0
   16.7312   20.7336   20.2452 H   0  0  0  0  0  0  0  0  0  0  0  0
   17.6664   20.0157   22.0937 C   0  0  0  0  0  0  0  0  0  0  0  0
   17.2721   18.9941   22.0017 H   0  0  0  0  0  0  0  0  0  0  0  0
   17.6325   20.2758   23.1599 H   0  0  0  0  0  0  0  0  0  0  0  0
   19.1242   20.0618   21.5780 C   0  0  0  0  0  0  0  0  0  0  0  0
   19.1249   19.8786   20.4946 H   0  0  0  0  0  0  0  0  0  0  0  0
   19.5355   21.0708   21.7195 H   0  0  0  0  0  0  0  0  0  0  0  0
   20.0536   19.0223   22.2515 C   0  0  0  0  0  0  0  0  0  0  0  0
   21.0241   19.0499   21.7391 H   0  0  0  0  0  0  0  0  0  0  0  0
   19.6445   18.0166   22.0874 H   0  0  0  0  0  0  0  0  0  0  0  0
   20.2607   19.2745   23.7701 C   0  0  0  0  0  0  0  0  0  0  0  0
   20.5658   20.3176   23.9251 H   0  0  0  0  0  0  0  0  0  0  0  0
   19.3064   19.1555   24.2981 H   0  0  0  0  0  0  0  0  0  0  0  0
   21.3047   18.3534   24.4447 C   0  0  1  0  0  0  0  0  0  0  0  0
   21.3583   18.6410   25.4993 H   0  0  0  0  0  0  0  0  0  0  0  0
   20.8912   16.8724   24.3866 C   0  0  0  0  0  0  0  0  0  0  0  0
   20.9062   16.4873   23.3601 H   0  0  0  0  0  0  0  0  0  0  0  0
   19.8812   16.7335   24.7916 H   0  0  0  0  0  0  0  0  0  0  0  0
   21.5764   16.2591   24.9846 H   0  0  0  0  0  0  0  0  0  0  0  0
   22.6891   18.5489   23.8899 N   0  3  0  0  0  0  0  0  0  0  0  0
   22.9890   19.5251   23.9639 H   0  0  0  0  0  0  0  0  0  0  0  0
   23.3768   17.9793   24.3910 H   0  0  0  0  0  0  0  0  0  0  0  0
   22.7349   18.2863   22.9024 H   0  0  0  0  0  0  0  0  0  0  0  0
  1  2  1  0  0  0  0
  1  3  1  0  0  0  0
  1  4  1  0  0  0  0
  1  5  1  0  0  0  0
  5  6  1  0  0  0  0
  5  7  1  0  0  0  0
  5  8  1  0  0  0  0
  8  9  1  0  0  0  0
  8 10  1  0  0  0  0
  8 11  1  0  0  0  0
 11 12  1  0  0  0  0
 11 13  1  0  0  0  0
 11 14  1  0  0  0  0
 14 15  1  0  0  0  0
 14 16  1  0  0  0  0
 14 17  1  0  0  0  0
 17 18  1  0  0  0  0
 17 19  1  0  0  0  0
 19 20  1  0  0  0  0
 19 21  1  0  0  0  0
 19 22  1  0  0  0  0
 17 23  1  0  0  0  0
 23 24  1  0  0  0  0
 23 25  1  0  0  0  0
 23 26  1  0  0  0  0
M  END
> <VConfSearch Rank>
608

> <Conf_Id>
45

> <Delta U+W>
1.035

> <U+W>
-29.264

> <U>
24.725

> <W>
-53.989

> <W(PB)>
-56.298

> <W(SA)>
2.309

> <Valence>
3.780

> <Coulomb>
19.804

> <VdW>
1.141

> <VdW6>
-8.104

> <VdW12>
9.246

> <Bond>
0.254

> <Angle>
1.437

> <Pdih>
2.089

> <Idih>
0.000

> <Tether>
0.000

$$$$
VeraChem MOL file


 26 25  0  0  0  0  0  0  0  0999 V2000     
   19.3226   22.3118   20.5984 C   0  0  0  0  0  0  0  0  0  0  0  0
   20.0956   22.6901   19.9169 H   0  0  0  0  0  0  0  0  0  0  0  0
   18.3767   22.2672   20.0429 H   0  0  0  0  0  0  0  0  0  0  0  0
   19.2067   23.0383   21.4132 H   0  0  0  0  0  0  0  0  0  0  0  0
   19.7114   20.9221   21.1459 C   0  0  0  0  0  0  0  0  0  0  0  0
   20.6800   21.0003   21.6570 H   0  0  0  0  0  0  0  0  0  0  0  0
   19.8484   20.2257   20.3068 H   0  0  0  0  0  0  0  0  0  0  0  0
   18.6376   20.3701   22.1134 C   0  0  0  0  0  0  0  0  0  0  0  0
   18.5415   21.0379   22.9806 H   0  0  0  0  0  0  0  0  0  0  0  0
   17.6628   20.3824   21.6064 H   0  0  0  0  0  0  0  0  0  0  0  0
   18.9184   18.9262   22.5979 C   0  0  0  0  0  0  0  0  0  0  0  0
   19.0124   18.2594   21.7295 H   0  0  0  0  0  0  0  0  0  0  0  0
   18.0405   18.5806   23.1592 H   0  0  0  0  0  0  0  0  0  0  0  0
   20.1824   18.8065   23.4881 C   0  0  0  0  0  0  0  0  0  0  0  0
   21.0608   19.1299   22.9162 H   0  0  0  0  0  0  0  0  0  0  0  0
   20.0981   19.4858   24.3467 H   0  0  0  0  0  0  0  0  0  0  0  0
   20.4324   17.3668   23.9883 C   0  0  1  0  0  0  0  0  0  0  0  0
   20.4766   16.7044   23.1183 H   0  0  0  0  0  0  0  0  0  0  0  0
   21.7785   17.2840   24.7261 C   0  0  0  0  0  0  0  0  0  0  0  0
   21.7868   17.9326   25.6111 H   0  0  0  0  0  0  0  0  0  0  0  0
   22.6026   17.5906   24.0700 H   0  0  0  0  0  0  0  0  0  0  0  0
   21.9792   16.2564   25.0536 H   0  0  0  0  0  0  0  0  0  0  0  0
   19.3206   16.8578   24.8648 N   0  3  0  0  0  0  0  0  0  0  0  0
   18.4236   16.8613   24.3722 H   0  0  0  0  0  0  0  0  0  0  0  0
   19.4965   15.8970   25.1721 H   0  0  0  0  0  0  0  0  0  0  0  0
   19.2138   17.4331   25.7044 H   0  0  0  0  0  0  0  0  0  0  0  0
  1  2  1  0  0  0  0
  1  3  1  0  0  0  0
  1  4  1  0  0  0  0
  1  5  1  0  0  0  0
  5  6  1  0  0  0  0
  5  7  1  0  0  0  0
  5  8  1  0  0  0  0
  8  9  1  0  0  0  0
  8 10  1  0  0  0  0
  8 11  1  0  0  0  0
 11 12  1  0  0  0  0
 11 13  1  0  0  0  0
 11 14  1  0  0  0  0
 14 15  1  0  0  0  0
 14 16  1  0  0  0  0
 14 17  1  0  0  0  0
 17 18  1  0  0  0  0
 17 19  1  0  0  0  0
 19 20  1  0  0  0  0
 19 21  1  0  0  0  0
 19 22  1  0  0  0  0
 17 23  1  0  0  0  0
 23 24  1  0  0  0  0
 23 25  1  0  0  0  0
 23 26  1  0  0  0  0
M  END
> <VConfSearch Rank>
609

> <Conf_Id>
121

> <Delta U+W>
0.736

> <U+W>
-29.562

> <U>
24.282

> <W>
-53.844

> <W(PB)>
-56.205

> <W(SA)>
2.361

> <Valence>
3.311

> <Coulomb>
19.887

> <VdW>
1.083

> <VdW6>
-7.444

> <VdW12>
8.527

> <Bond>
0.219

> <Angle>
1.167

> <Pdih>
1.926

> <Idih>
0.000

> <Tether>
0.000

$$$$
VeraChem MOL file


 26 25  0  0  0  0  0  0  0  0999 V2000     
   21.4190   17.6530   25.9040 C   0  0  0  0  0  0  0  0  0  0  0  0
   22.2492   17.5910   26.6195 H   0  0  0  0  0  0  0  0  0  0  0  0
   20.4873   17.4695   26.4547 H   0  0  0  0  0  0  0  0  0  0  0  0
   21.5528   16.8448   25.1745 H   0  0  0  0  0  0  0  0  0  0  0  0
   21.3973   19.0391   25.2206 C   0  0  0  0  0  0  0  0  0  0  0  0
   22.3245   19.1844   24.6489 H   0  0  0  0  0  0  0  0  0  0  0  0
   21.3913   19.8156   25.9984 H   0  0  0  0  0  0  0  0  0  0  0  0
   20.1735   19.2536   24.2974 C   0  0  0  0  0  0  0  0  0  0  0  0
   19.2495   19.1154   24.8757 H   0  0  0  0  0  0  0  0  0  0  0  0
   20.1779   20.3001   23.9657 H   0  0  0  0  0  0  0  0  0  0  0  0
   20.1622   18.3181   23.0618 C   0  0  0  0  0  0  0  0  0  0  0  0
   20.1424   17.2722   23.3944 H   0  0  0  0  0  0  0  0  0  0  0  0
   21.0953   18.4371   22.4957 H   0  0  0  0  0  0  0  0  0  0  0  0
   18.9416   18.5466   22.1327 C   0  0  0  0  0  0  0  0  0  0  0  0
   18.9891   17.8318   21.3005 H   0  0  0  0  0  0  0  0  0  0  0  0
   18.0297   18.3008   22.6926 H   0  0  0  0  0  0  0  0  0  0  0  0
   18.8032   19.9792   21.5649 C   0  0  1  0  0  0  0  0  0  0  0  0
   18.7442   20.6794   22.4033 H   0  0  0  0  0  0  0  0  0  0  0  0
   20.0039   20.3722   20.6859 C   0  0  0  0  0  0  0  0  0  0  0  0
   20.1398   19.6632   19.8598 H   0  0  0  0  0  0  0  0  0  0  0  0
   20.9312   20.4020   21.2697 H   0  0  0  0  0  0  0  0  0  0  0  0
   19.8584   21.3711   20.2567 H   0  0  0  0  0  0  0  0  0  0  0  0
   17.5206   20.1355   20.7961 N   0  3  0  0  0  0  0  0  0  0  0  0
   16.7044   19.9198   21.3757 H   0  0  0  0  0  0  0  0  0  0  0  0
   17.4047   21.0929   20.4520 H   0  0  0  0  0  0  0  0  0  0  0  0
   17.4932   19.5141   19.9833 H   0  0  0  0  0  0  0  0  0  0  0  0
  1  2  1  0  0  0  0
  1  3  1  0  0  0  0
  1  4  1  0  0  0  0
  1  5  1  0  0  0  0
  5  6  1  0  0  0  0
  5  7  1  0  0  0  0
  5  8  1  0  0  0  0
  8  9  1  0  0  0  0
  8 10  1  0  0  0  0
  8 11  1  0  0  0  0
 11 12  1  0  0  0  0
 11 13  1  0  0  0  0
 11 14  1  0  0  0  0
 14 15  1  0  0  0  0
 14 16  1  0  0  0  0
 14 17  1  0  0  0  0
 17 18  1  0  0  0  0
 17 19  1  0  0  0  0
 19 20  1  0  0  0  0
 19 21  1  0  0  0  0
 19 22  1  0  0  0  0
 17 23  1  0  0  0  0
 23 24  1  0  0  0  0
 23 25  1  0  0  0  0
 23 26  1  0  0  0  0
M  END
> <VConfSearch Rank>
610

> <Conf_Id>
5

> <Delta U+W>
1.233

> <U+W>
-29.065

> <U>
25.023

> <W>
-54.088

> <W(PB)>
-56.383

> <W(SA)>
2.296

> <Valence>
4.083

> <Coulomb>
19.893

> <VdW>
1.047

> <VdW6>
-8.479

> <VdW12>
9.527

> <Bond>
0.256

> <Angle>
1.716

> <Pdih>
2.112

> <Idih>
0.000

> <Tether>
0.000

$$$$
VeraChem MOL file


 26 25  0  0  0  0  0  0  0  0999 V2000     
   18.5779   21.0021   25.8841 C   0  0  0  0  0  0  0  0  0  0  0  0
   17.9145   21.7222   26.3804 H   0  0  0  0  0  0  0  0  0  0  0  0
   18.2511   19.9974   26.1786 H   0  0  0  0  0  0  0  0  0  0  0  0
   19.5934   21.1610   26.2694 H   0  0  0  0  0  0  0  0  0  0  0  0
   18.5291   21.1910   24.3507 C   0  0  0  0  0  0  0  0  0  0  0  0
   18.7385   22.2448   24.1194 H   0  0  0  0  0  0  0  0  0  0  0  0
   17.5118   20.9928   23.9851 H   0  0  0  0  0  0  0  0  0  0  0  0
   19.5431   20.3059   23.5860 C   0  0  0  0  0  0  0  0  0  0  0  0
   19.5298   20.6128   22.5321 H   0  0  0  0  0  0  0  0  0  0  0  0
   20.5572   20.5045   23.9591 H   0  0  0  0  0  0  0  0  0  0  0  0
   19.2351   18.7907   23.6824 C   0  0  0  0  0  0  0  0  0  0  0  0
   18.2312   18.5956   23.2807 H   0  0  0  0  0  0  0  0  0  0  0  0
   19.2091   18.4876   24.7368 H   0  0  0  0  0  0  0  0  0  0  0  0
   20.2636   17.8896   22.9527 C   0  0  0  0  0  0  0  0  0  0  0  0
   21.2574   18.0121   23.4039 H   0  0  0  0  0  0  0  0  0  0  0  0
   19.9799   16.8461   23.1438 H   0  0  0  0  0  0  0  0  0  0  0  0
   20.3298   18.1269   21.4242 C   0  0  1  0  0  0  0  0  0  0  0  0
   19.4220   18.6579   21.1217 H   0  0  0  0  0  0  0  0  0  0  0  0
   21.5524   18.9781   21.0355 C   0  0  0  0  0  0  0  0  0  0  0  0
   22.4881   18.4566   21.2730 H   0  0  0  0  0  0  0  0  0  0  0  0
   21.5588   19.9377   21.5643 H   0  0  0  0  0  0  0  0  0  0  0  0
   21.5477   19.1924   19.9597 H   0  0  0  0  0  0  0  0  0  0  0  0
   20.3349   16.8348   20.6540 N   0  3  0  0  0  0  0  0  0  0  0  0
   19.5055   16.2704   20.8597 H   0  0  0  0  0  0  0  0  0  0  0  0
   20.3462   17.0016   19.6437 H   0  0  0  0  0  0  0  0  0  0  0  0
   21.1569   16.2679   20.8789 H   0  0  0  0  0  0  0  0  0  0  0  0
  1  2  1  0  0  0  0
  1  3  1  0  0  0  0
  1  4  1  0  0  0  0
  1  5  1  0  0  0  0
  5  6  1  0  0  0  0
  5  7  1  0  0  0  0
  5  8  1  0  0  0  0
  8  9  1  0  0  0  0
  8 10  1  0  0  0  0
  8 11  1  0  0  0  0
 11 12  1  0  0  0  0
 11 13  1  0  0  0  0
 11 14  1  0  0  0  0
 14 15  1  0  0  0  0
 14 16  1  0  0  0  0
 14 17  1  0  0  0  0
 17 18  1  0  0  0  0
 17 19  1  0  0  0  0
 19 20  1  0  0  0  0
 19 21  1  0  0  0  0
 19 22  1  0  0  0  0
 17 23  1  0  0  0  0
 23 24  1  0  0  0  0
 23 25  1  0  0  0  0
 23 26  1  0  0  0  0
M  END
> <VConfSearch Rank>
611

> <Conf_Id>
100

> <Delta U+W>
3.818

> <U+W>
-26.481

> <U>
27.496

> <W>
-53.977

> <W(PB)>
-56.267

> <W(SA)>
2.290

> <Valence>
6.472

> <Coulomb>
19.839

> <VdW>
1.185

> <VdW6>
-8.405

> <VdW12>
9.590

> <Bond>
0.248

> <Angle>
1.619

> <Pdih>
4.604

> <Idih>
0.000

> <Tether>
0.000

$$$$
VeraChem MOL file


 26 25  0  0  0  0  0  0  0  0999 V2000     
   19.2124   16.0908   25.0789 C   0  0  0  0  0  0  0  0  0  0  0  0
   19.0254   15.8299   26.1286 H   0  0  0  0  0  0  0  0  0  0  0  0
   18.2582   16.0245   24.5401 H   0  0  0  0  0  0  0  0  0  0  0  0
   19.8941   15.3386   24.6610 H   0  0  0  0  0  0  0  0  0  0  0  0
   19.8146   17.5076   24.9685 C   0  0  0  0  0  0  0  0  0  0  0  0
   20.7490   17.5523   25.5454 H   0  0  0  0  0  0  0  0  0  0  0  0
   19.1257   18.2327   25.4241 H   0  0  0  0  0  0  0  0  0  0  0  0
   20.0884   17.9002   23.4998 C   0  0  0  0  0  0  0  0  0  0  0  0
   20.7767   17.1706   23.0513 H   0  0  0  0  0  0  0  0  0  0  0  0
   19.1532   17.8383   22.9310 H   0  0  0  0  0  0  0  0  0  0  0  0
   20.6990   19.3189   23.3890 C   0  0  0  0  0  0  0  0  0  0  0  0
   21.6425   19.3270   23.9521 H   0  0  0  0  0  0  0  0  0  0  0  0
   20.0481   20.0517   23.8831 H   0  0  0  0  0  0  0  0  0  0  0  0
   21.0014   19.7520   21.9270 C   0  0  0  0  0  0  0  0  0  0  0  0
   21.9217   20.3508   21.9288 H   0  0  0  0  0  0  0  0  0  0  0  0
   21.2329   18.8696   21.3161 H   0  0  0  0  0  0  0  0  0  0  0  0
   19.9048   20.5905   21.2241 C   0  0  1  0  0  0  0  0  0  0  0  0
   20.2626   20.8018   20.2116 H   0  0  0  0  0  0  0  0  0  0  0  0
   18.5689   19.8412   21.0937 C   0  0  0  0  0  0  0  0  0  0  0  0
   18.0880   19.7045   22.0695 H   0  0  0  0  0  0  0  0  0  0  0  0
   18.7169   18.8556   20.6353 H   0  0  0  0  0  0  0  0  0  0  0  0
   17.8755   20.4034   20.4562 H   0  0  0  0  0  0  0  0  0  0  0  0
   19.7048   21.9305   21.8780 N   0  3  0  0  0  0  0  0  0  0  0  0
   20.5788   22.4622   21.9200 H   0  0  0  0  0  0  0  0  0  0  0  0
   19.0258   22.4994   21.3645 H   0  0  0  0  0  0  0  0  0  0  0  0
   19.3593   21.8303   22.8354 H   0  0  0  0  0  0  0  0  0  0  0  0
  1  2  1  0  0  0  0
  1  3  1  0  0  0  0
  1  4  1  0  0  0  0
  1  5  1  0  0  0  0
  5  6  1  0  0  0  0
  5  7  1  0  0  0  0
  5  8  1  0  0  0  0
  8  9  1  0  0  0  0
  8 10  1  0  0  0  0
  8 11  1  0  0  0  0
 11 12  1  0  0  0  0
 11 13  1  0  0  0  0
 11 14  1  0  0  0  0
 14 15  1  0  0  0  0
 14 16  1  0  0  0  0
 14 17  1  0  0  0  0
 17 18  1  0  0  0  0
 17 19  1  0  0  0  0
 19 20  1  0  0  0  0
 19 21  1  0  0  0  0
 19 22  1  0  0  0  0
 17 23  1  0  0  0  0
 23 24  1  0  0  0  0
 23 25  1  0  0  0  0
 23 26  1  0  0  0  0
M  END
> <VConfSearch Rank>
612

> <Conf_Id>
142

> <Delta U+W>
2.978

> <U+W>
-27.320

> <U>
26.848

> <W>
-54.168

> <W(PB)>
-56.427

> <W(SA)>
2.259

> <Valence>
5.823

> <Coulomb>
20.057

> <VdW>
0.968

> <VdW6>
-8.367

> <VdW12>
9.335

> <Bond>
0.267

> <Angle>
1.799

> <Pdih>
3.758

> <Idih>
0.000

> <Tether>
0.000

$$$$
VeraChem MOL file


 26 25  0  0  0  0  0  0  0  0999 V2000     
   21.4203   21.8500   24.4075 C   0  0  0  0  0  0  0  0  0  0  0  0
   20.4846   22.3843   24.6175 H   0  0  0  0  0  0  0  0  0  0  0  0
   22.1949   22.2582   25.0695 H   0  0  0  0  0  0  0  0  0  0  0  0
   21.7196   22.0727   23.3761 H   0  0  0  0  0  0  0  0  0  0  0  0
   21.2573   20.3305   24.6401 C   0  0  0  0  0  0  0  0  0  0  0  0
   21.0885   20.1565   25.7121 H   0  0  0  0  0  0  0  0  0  0  0  0
   22.1944   19.8141   24.3894 H   0  0  0  0  0  0  0  0  0  0  0  0
   20.0843   19.7045   23.8473 C   0  0  0  0  0  0  0  0  0  0  0  0
   19.9603   18.6744   24.2009 H   0  0  0  0  0  0  0  0  0  0  0  0
   19.1546   20.2391   24.0859 H   0  0  0  0  0  0  0  0  0  0  0  0
   20.3109   19.6969   22.3144 C   0  0  0  0  0  0  0  0  0  0  0  0
   21.2060   19.1070   22.0765 H   0  0  0  0  0  0  0  0  0  0  0  0
   20.5313   20.7179   21.9783 H   0  0  0  0  0  0  0  0  0  0  0  0
   19.1001   19.1895   21.4808 C   0  0  0  0  0  0  0  0  0  0  0  0
   18.2460   19.8615   21.6365 H   0  0  0  0  0  0  0  0  0  0  0  0
   19.3611   19.2937   20.4194 H   0  0  0  0  0  0  0  0  0  0  0  0
   18.6369   17.7269   21.7034 C   0  0  1  0  0  0  0  0  0  0  0  0
   17.9535   17.4857   20.8833 H   0  0  0  0  0  0  0  0  0  0  0  0
   19.8014   16.7233   21.6383 C   0  0  0  0  0  0  0  0  0  0  0  0
   20.4862   16.8416   22.4865 H   0  0  0  0  0  0  0  0  0  0  0  0
   20.3747   16.8532   20.7120 H   0  0  0  0  0  0  0  0  0  0  0  0
   19.4228   15.6940   21.6538 H   0  0  0  0  0  0  0  0  0  0  0  0
   17.8257   17.5464   22.9572 N   0  3  0  0  0  0  0  0  0  0  0  0
   17.0092   18.1643   22.9669 H   0  0  0  0  0  0  0  0  0  0  0  0
   17.4818   16.5858   23.0441 H   0  0  0  0  0  0  0  0  0  0  0  0
   18.3779   17.7526   23.7918 H   0  0  0  0  0  0  0  0  0  0  0  0
  1  2  1  0  0  0  0
  1  3  1  0  0  0  0
  1  4  1  0  0  0  0
  1  5  1  0  0  0  0
  5  6  1  0  0  0  0
  5  7  1  0  0  0  0
  5  8  1  0  0  0  0
  8  9  1  0  0  0  0
  8 10  1  0  0  0  0
  8 11  1  0  0  0  0
 11 12  1  0  0  0  0
 11 13  1  0  0  0  0
 11 14  1  0  0  0  0
 14 15  1  0  0  0  0
 14 16  1  0  0  0  0
 14 17  1  0  0  0  0
 17 18  1  0  0  0  0
 17 19  1  0  0  0  0
 19 20  1  0  0  0  0
 19 21  1  0  0  0  0
 19 22  1  0  0  0  0
 17 23  1  0  0  0  0
 23 24  1  0  0  0  0
 23 25  1  0  0  0  0
 23 26  1  0  0  0  0
M  END
> <VConfSearch Rank>
613

> <Conf_Id>
119

> <Delta U+W>
3.538

> <U+W>
-26.761

> <U>
27.482

> <W>
-54.243

> <W(PB)>
-56.494

> <W(SA)>
2.251

> <Valence>
5.284

> <Coulomb>
21.247

> <VdW>
0.951

> <VdW6>
-9.416

> <VdW12>
10.367

> <Bond>
0.323

> <Angle>
2.522

> <Pdih>
2.439

> <Idih>
0.000

> <Tether>
0.000

$$$$
VeraChem MOL file


 26 25  0  0  0  0  0  0  0  0999 V2000     
   22.0469   21.0074   20.9660 C   0  0  0  0  0  0  0  0  0  0  0  0
   22.9310   21.1031   21.6096 H   0  0  0  0  0  0  0  0  0  0  0  0
   22.0570   20.0083   20.5132 H   0  0  0  0  0  0  0  0  0  0  0  0
   22.1429   21.7387   20.1531 H   0  0  0  0  0  0  0  0  0  0  0  0
   20.7478   21.2554   21.7657 C   0  0  0  0  0  0  0  0  0  0  0  0
   19.8779   21.1233   21.1073 H   0  0  0  0  0  0  0  0  0  0  0  0
   20.7286   22.3043   22.0931 H   0  0  0  0  0  0  0  0  0  0  0  0
   20.6057   20.3447   23.0092 C   0  0  0  0  0  0  0  0  0  0  0  0
   21.4649   20.5017   23.6757 H   0  0  0  0  0  0  0  0  0  0  0  0
   19.7224   20.6684   23.5723 H   0  0  0  0  0  0  0  0  0  0  0  0
   20.4900   18.8387   22.6591 C   0  0  0  0  0  0  0  0  0  0  0  0
   21.4350   18.5154   22.2030 H   0  0  0  0  0  0  0  0  0  0  0  0
   19.7175   18.6858   21.8945 H   0  0  0  0  0  0  0  0  0  0  0  0
   20.2232   17.9367   23.8966 C   0  0  0  0  0  0  0  0  0  0  0  0
   20.7751   16.9968   23.7637 H   0  0  0  0  0  0  0  0  0  0  0  0
   20.6528   18.3986   24.7953 H   0  0  0  0  0  0  0  0  0  0  0  0
   18.7419   17.5707   24.1638 C   0  0  1  0  0  0  0  0  0  0  0  0
   18.7221   16.9477   25.0633 H   0  0  0  0  0  0  0  0  0  0  0  0
   17.8612   18.8012   24.4353 C   0  0  0  0  0  0  0  0  0  0  0  0
   17.7460   19.4192   23.5370 H   0  0  0  0  0  0  0  0  0  0  0  0
   18.2909   19.4201   25.2326 H   0  0  0  0  0  0  0  0  0  0  0  0
   16.8598   18.4917   24.7585 H   0  0  0  0  0  0  0  0  0  0  0  0
   18.1567   16.7260   23.0651 N   0  3  0  0  0  0  0  0  0  0  0  0
   18.7052   15.8749   22.9129 H   0  0  0  0  0  0  0  0  0  0  0  0
   17.1994   16.4369   23.2853 H   0  0  0  0  0  0  0  0  0  0  0  0
   18.1269   17.2355   22.1788 H   0  0  0  0  0  0  0  0  0  0  0  0
  1  2  1  0  0  0  0
  1  3  1  0  0  0  0
  1  4  1  0  0  0  0
  1  5  1  0  0  0  0
  5  6  1  0  0  0  0
  5  7  1  0  0  0  0
  5  8  1  0  0  0  0
  8  9  1  0  0  0  0
  8 10  1  0  0  0  0
  8 11  1  0  0  0  0
 11 12  1  0  0  0  0
 11 13  1  0  0  0  0
 11 14  1  0  0  0  0
 14 15  1  0  0  0  0
 14 16  1  0  0  0  0
 14 17  1  0  0  0  0
 17 18  1  0  0  0  0
 17 19  1  0  0  0  0
 19 20  1  0  0  0  0
 19 21  1  0  0  0  0
 19 22  1  0  0  0  0
 17 23  1  0  0  0  0
 23 24  1  0  0  0  0
 23 25  1  0  0  0  0
 23 26  1  0  0  0  0
M  END
> <VConfSearch Rank>
614

> <Conf_Id>
127

> <Delta U+W>
3.544

> <U+W>
-26.754

> <U>
27.509

> <W>
-54.263

> <W(PB)>
-56.496

> <W(SA)>
2.232

> <Valence>
6.375

> <Coulomb>
20.014

> <VdW>
1.120

> <VdW6>
-8.976

> <VdW12>
10.096

> <Bond>
0.304

> <Angle>
1.986

> <Pdih>
4.086

> <Idih>
0.000

> <Tether>
0.000

$$$$
VeraChem MOL file


 26 25  0  0  0  0  0  0  0  0999 V2000     
   22.1178   20.8819   21.4965 C   0  0  0  0  0  0  0  0  0  0  0  0
   22.2008   21.8721   21.0300 H   0  0  0  0  0  0  0  0  0  0  0  0
   23.0760   20.3657   21.3537 H   0  0  0  0  0  0  0  0  0  0  0  0
   21.3494   20.3220   20.9523 H   0  0  0  0  0  0  0  0  0  0  0  0
   21.7842   21.0189   23.0004 C   0  0  0  0  0  0  0  0  0  0  0  0
   20.8626   21.6019   23.1361 H   0  0  0  0  0  0  0  0  0  0  0  0
   22.5846   21.6061   23.4721 H   0  0  0  0  0  0  0  0  0  0  0  0
   21.6740   19.6566   23.7325 C   0  0  0  0  0  0  0  0  0  0  0  0
   22.3145   18.9093   23.2440 H   0  0  0  0  0  0  0  0  0  0  0  0
   22.0835   19.7792   24.7448 H   0  0  0  0  0  0  0  0  0  0  0  0
   20.2306   19.1087   23.8774 C   0  0  0  0  0  0  0  0  0  0  0  0
   19.6341   19.8225   24.4609 H   0  0  0  0  0  0  0  0  0  0  0  0
   20.2817   18.1897   24.4748 H   0  0  0  0  0  0  0  0  0  0  0  0
   19.5247   18.8149   22.5268 C   0  0  0  0  0  0  0  0  0  0  0  0
   19.3899   19.7553   21.9790 H   0  0  0  0  0  0  0  0  0  0  0  0
   20.1735   18.1847   21.9044 H   0  0  0  0  0  0  0  0  0  0  0  0
   18.1387   18.1382   22.6489 C   0  0  1  0  0  0  0  0  0  0  0  0
   17.7255   18.0623   21.6383 H   0  0  0  0  0  0  0  0  0  0  0  0
   18.2363   16.7108   23.2158 C   0  0  0  0  0  0  0  0  0  0  0  0
   18.9557   16.1120   22.6435 H   0  0  0  0  0  0  0  0  0  0  0  0
   17.2635   16.2078   23.1552 H   0  0  0  0  0  0  0  0  0  0  0  0
   18.5471   16.7099   24.2670 H   0  0  0  0  0  0  0  0  0  0  0  0
   17.1619   18.9666   23.4375 N   0  3  0  0  0  0  0  0  0  0  0  0
   17.0550   19.9031   23.0376 H   0  0  0  0  0  0  0  0  0  0  0  0
   16.2340   18.5342   23.4562 H   0  0  0  0  0  0  0  0  0  0  0  0
   17.4681   19.0783   24.4070 H   0  0  0  0  0  0  0  0  0  0  0  0
  1  2  1  0  0  0  0
  1  3  1  0  0  0  0
  1  4  1  0  0  0  0
  1  5  1  0  0  0  0
  5  6  1  0  0  0  0
  5  7  1  0  0  0  0
  5  8  1  0  0  0  0
  8  9  1  0  0  0  0
  8 10  1  0  0  0  0
  8 11  1  0  0  0  0
 11 12  1  0  0  0  0
 11 13  1  0  0  0  0
 11 14  1  0  0  0  0
 14 15  1  0  0  0  0
 14 16  1  0  0  0  0
 14 17  1  0  0  0  0
 17 18  1  0  0  0  0
 17 19  1  0  0  0  0
 19 20  1  0  0  0  0
 19 21  1  0  0  0  0
 19 22  1  0  0  0  0
 17 23  1  0  0  0  0
 23 24  1  0  0  0  0
 23 25  1  0  0  0  0
 23 26  1  0  0  0  0
M  END
> <VConfSearch Rank>
615

> <Conf_Id>
131

> <Delta U+W>
3.589

> <U+W>
-26.710

> <U>
27.573

> <W>
-54.283

> <W(PB)>
-56.537

> <W(SA)>
2.254

> <Valence>
6.363

> <Coulomb>
20.026

> <VdW>
1.184

> <VdW6>
-8.939

> <VdW12>
10.123

> <Bond>
0.298

> <Angle>
2.018

> <Pdih>
4.047

> <Idih>
0.000

> <Tether>
0.000

$$$$
VeraChem MOL file


 26 25  0  0  0  0  0  0  0  0999 V2000     
   17.9229   20.3930   24.6759 C   0  0  0  0  0  0  0  0  0  0  0  0
   17.6705   20.9926   23.7919 H   0  0  0  0  0  0  0  0  0  0  0  0
   17.9138   19.3327   24.3951 H   0  0  0  0  0  0  0  0  0  0  0  0
   17.1295   20.5409   25.4199 H   0  0  0  0  0  0  0  0  0  0  0  0
   19.2919   20.8067   25.2583 C   0  0  0  0  0  0  0  0  0  0  0  0
   19.5478   20.1411   26.0945 H   0  0  0  0  0  0  0  0  0  0  0  0
   19.2017   21.8140   25.6885 H   0  0  0  0  0  0  0  0  0  0  0  0
   20.4497   20.8152   24.2276 C   0  0  0  0  0  0  0  0  0  0  0  0
   20.2529   21.5615   23.4458 H   0  0  0  0  0  0  0  0  0  0  0  0
   21.3521   21.1643   24.7484 H   0  0  0  0  0  0  0  0  0  0  0  0
   20.7632   19.4354   23.5916 C   0  0  0  0  0  0  0  0  0  0  0  0
   20.5175   18.6391   24.3058 H   0  0  0  0  0  0  0  0  0  0  0  0
   21.8469   19.3698   23.4222 H   0  0  0  0  0  0  0  0  0  0  0  0
   20.0495   19.2071   22.2328 C   0  0  0  0  0  0  0  0  0  0  0  0
   18.9613   19.2422   22.3556 H   0  0  0  0  0  0  0  0  0  0  0  0
   20.3092   20.0371   21.5626 H   0  0  0  0  0  0  0  0  0  0  0  0
   20.4441   17.8823   21.5412 C   0  0  1  0  0  0  0  0  0  0  0  0
   21.5357   17.8408   21.4754 H   0  0  0  0  0  0  0  0  0  0  0  0
   19.9547   16.6518   22.3262 C   0  0  0  0  0  0  0  0  0  0  0  0
   18.8678   16.6808   22.4725 H   0  0  0  0  0  0  0  0  0  0  0  0
   20.4323   16.5897   23.3107 H   0  0  0  0  0  0  0  0  0  0  0  0
   20.2007   15.7279   21.7885 H   0  0  0  0  0  0  0  0  0  0  0  0
   19.9322   17.8339   20.1282 N   0  3  0  0  0  0  0  0  0  0  0  0
   18.9097   17.8660   20.0988 H   0  0  0  0  0  0  0  0  0  0  0  0
   20.2809   18.6209   19.5734 H   0  0  0  0  0  0  0  0  0  0  0  0
   20.2244   16.9748   19.6538 H   0  0  0  0  0  0  0  0  0  0  0  0
  1  2  1  0  0  0  0
  1  3  1  0  0  0  0
  1  4  1  0  0  0  0
  1  5  1  0  0  0  0
  5  6  1  0  0  0  0
  5  7  1  0  0  0  0
  5  8  1  0  0  0  0
  8  9  1  0  0  0  0
  8 10  1  0  0  0  0
  8 11  1  0  0  0  0
 11 12  1  0  0  0  0
 11 13  1  0  0  0  0
 11 14  1  0  0  0  0
 14 15  1  0  0  0  0
 14 16  1  0  0  0  0
 14 17  1  0  0  0  0
 17 18  1  0  0  0  0
 17 19  1  0  0  0  0
 19 20  1  0  0  0  0
 19 21  1  0  0  0  0
 19 22  1  0  0  0  0
 17 23  1  0  0  0  0
 23 24  1  0  0  0  0
 23 25  1  0  0  0  0
 23 26  1  0  0  0  0
M  END
> <VConfSearch Rank>
616

> <Conf_Id>
80

> <Delta U+W>
3.351

> <U+W>
-26.948

> <U>
27.261

> <W>
-54.209

> <W(PB)>
-56.471

> <W(SA)>
2.263

> <Valence>
6.230

> <Coulomb>
19.945

> <VdW>
1.087

> <VdW6>
-8.618

> <VdW12>
9.704

> <Bond>
0.277

> <Angle>
1.928

> <Pdih>
4.025

> <Idih>
0.000

> <Tether>
0.000

$$$$
VeraChem MOL file


 26 25  0  0  0  0  0  0  0  0999 V2000     
   21.0792   19.2711   19.9254 C   0  0  0  0  0  0  0  0  0  0  0  0
   21.4607   20.0750   19.2828 H   0  0  0  0  0  0  0  0  0  0  0  0
   21.3981   18.3143   19.4921 H   0  0  0  0  0  0  0  0  0  0  0  0
   19.9834   19.3163   19.8941 H   0  0  0  0  0  0  0  0  0  0  0  0
   21.6104   19.4328   21.3675 C   0  0  0  0  0  0  0  0  0  0  0  0
   21.2563   20.3831   21.7876 H   0  0  0  0  0  0  0  0  0  0  0  0
   22.7058   19.5147   21.3319 H   0  0  0  0  0  0  0  0  0  0  0  0
   21.2382   18.2537   22.3039 C   0  0  0  0  0  0  0  0  0  0  0  0
   21.7423   17.3491   21.9369 H   0  0  0  0  0  0  0  0  0  0  0  0
   21.6682   18.4455   23.2935 H   0  0  0  0  0  0  0  0  0  0  0  0
   19.7193   17.9445   22.4285 C   0  0  0  0  0  0  0  0  0  0  0  0
   19.5810   17.0488   23.0494 H   0  0  0  0  0  0  0  0  0  0  0  0
   19.3415   17.6625   21.4370 H   0  0  0  0  0  0  0  0  0  0  0  0
   18.8363   19.0967   22.9849 C   0  0  0  0  0  0  0  0  0  0  0  0
   19.2321   20.0750   22.6905 H   0  0  0  0  0  0  0  0  0  0  0  0
   17.8551   19.0210   22.4981 H   0  0  0  0  0  0  0  0  0  0  0  0
   18.5918   19.0611   24.5130 C   0  0  1  0  0  0  0  0  0  0  0  0
   18.1357   18.0983   24.7630 H   0  0  0  0  0  0  0  0  0  0  0  0
   19.8850   19.2053   25.3320 C   0  0  0  0  0  0  0  0  0  0  0  0
   20.5192   18.3189   25.2204 H   0  0  0  0  0  0  0  0  0  0  0  0
   19.6582   19.3031   26.4008 H   0  0  0  0  0  0  0  0  0  0  0  0
   20.4570   20.0888   25.0222 H   0  0  0  0  0  0  0  0  0  0  0  0
   17.5997   20.1148   24.9216 N   0  3  0  0  0  0  0  0  0  0  0  0
   16.7112   20.0102   24.4235 H   0  0  0  0  0  0  0  0  0  0  0  0
   17.3941   20.0664   25.9234 H   0  0  0  0  0  0  0  0  0  0  0  0
   17.9523   21.0558   24.7276 H   0  0  0  0  0  0  0  0  0  0  0  0
  1  2  1  0  0  0  0
  1  3  1  0  0  0  0
  1  4  1  0  0  0  0
  1  5  1  0  0  0  0
  5  6  1  0  0  0  0
  5  7  1  0  0  0  0
  5  8  1  0  0  0  0
  8  9  1  0  0  0  0
  8 10  1  0  0  0  0
  8 11  1  0  0  0  0
 11 12  1  0  0  0  0
 11 13  1  0  0  0  0
 11 14  1  0  0  0  0
 14 15  1  0  0  0  0
 14 16  1  0  0  0  0
 14 17  1  0  0  0  0
 17 18  1  0  0  0  0
 17 19  1  0  0  0  0
 19 20  1  0  0  0  0
 19 21  1  0  0  0  0
 19 22  1  0  0  0  0
 17 23  1  0  0  0  0
 23 24  1  0  0  0  0
 23 25  1  0  0  0  0
 23 26  1  0  0  0  0
M  END
> <VConfSearch Rank>
617

> <Conf_Id>
136

> <Delta U+W>
4.272

> <U+W>
-26.026

> <U>
28.262

> <W>
-54.288

> <W(PB)>
-56.488

> <W(SA)>
2.200

> <Valence>
7.096

> <Coulomb>
19.990

> <VdW>
1.175

> <VdW6>
-9.404

> <VdW12>
10.580

> <Bond>
0.360

> <Angle>
2.785

> <Pdih>
3.951

> <Idih>
0.000

> <Tether>
0.000

$$$$
VeraChem MOL file


 26 25  0  0  0  0  0  0  0  0999 V2000     
   20.1577   21.3263   25.0254 C   0  0  0  0  0  0  0  0  0  0  0  0
   20.9087   20.5581   24.8033 H   0  0  0  0  0  0  0  0  0  0  0  0
   20.6162   22.0413   25.7207 H   0  0  0  0  0  0  0  0  0  0  0  0
   19.3126   20.8519   25.5408 H   0  0  0  0  0  0  0  0  0  0  0  0
   19.6937   22.0458   23.7401 C   0  0  0  0  0  0  0  0  0  0  0  0
   20.5679   22.4610   23.2194 H   0  0  0  0  0  0  0  0  0  0  0  0
   19.0718   22.9064   24.0234 H   0  0  0  0  0  0  0  0  0  0  0  0
   18.8839   21.1537   22.7649 C   0  0  0  0  0  0  0  0  0  0  0  0
   17.9549   20.8159   23.2445 H   0  0  0  0  0  0  0  0  0  0  0  0
   18.5690   21.7862   21.9233 H   0  0  0  0  0  0  0  0  0  0  0  0
   19.6667   19.9428   22.1933 C   0  0  0  0  0  0  0  0  0  0  0  0
   20.7407   20.1723   22.1594 H   0  0  0  0  0  0  0  0  0  0  0  0
   19.3527   19.7949   21.1515 H   0  0  0  0  0  0  0  0  0  0  0  0
   19.4196   18.6275   22.9771 C   0  0  0  0  0  0  0  0  0  0  0  0
   19.6271   18.7861   24.0413 H   0  0  0  0  0  0  0  0  0  0  0  0
   18.3588   18.3522   22.9085 H   0  0  0  0  0  0  0  0  0  0  0  0
   20.2911   17.4562   22.4743 C   0  0  1  0  0  0  0  0  0  0  0  0
   21.3404   17.7623   22.5286 H   0  0  0  0  0  0  0  0  0  0  0  0
   20.1013   16.2242   23.3736 C   0  0  0  0  0  0  0  0  0  0  0  0
   19.0614   15.8747   23.3540 H   0  0  0  0  0  0  0  0  0  0  0  0
   20.3644   16.4559   24.4132 H   0  0  0  0  0  0  0  0  0  0  0  0
   20.7453   15.3997   23.0437 H   0  0  0  0  0  0  0  0  0  0  0  0
   20.0156   17.1076   21.0369 N   0  3  0  0  0  0  0  0  0  0  0  0
   19.0451   16.8117   20.9039 H   0  0  0  0  0  0  0  0  0  0  0  0
   20.1819   17.9069   20.4197 H   0  0  0  0  0  0  0  0  0  0  0  0
   20.6160   16.3430   20.7156 H   0  0  0  0  0  0  0  0  0  0  0  0
  1  2  1  0  0  0  0
  1  3  1  0  0  0  0
  1  4  1  0  0  0  0
  1  5  1  0  0  0  0
  5  6  1  0  0  0  0
  5  7  1  0  0  0  0
  5  8  1  0  0  0  0
  8  9  1  0  0  0  0
  8 10  1  0  0  0  0
  8 11  1  0  0  0  0
 11 12  1  0  0  0  0
 11 13  1  0  0  0  0
 11 14  1  0  0  0  0
 14 15  1  0  0  0  0
 14 16  1  0  0  0  0
 14 17  1  0  0  0  0
 17 18  1  0  0  0  0
 17 19  1  0  0  0  0
 19 20  1  0  0  0  0
 19 21  1  0  0  0  0
 19 22  1  0  0  0  0
 17 23  1  0  0  0  0
 23 24  1  0  0  0  0
 23 25  1  0  0  0  0
 23 26  1  0  0  0  0
M  END
> <VConfSearch Rank>
618

> <Conf_Id>
124

> <Delta U+W>
3.001

> <U+W>
-27.298

> <U>
26.787

> <W>
-54.085

> <W(PB)>
-56.347

> <W(SA)>
2.262

> <Valence>
5.742

> <Coulomb>
20.023

> <VdW>
1.022

> <VdW6>
-8.392

> <VdW12>
9.414

> <Bond>
0.261

> <Angle>
1.576

> <Pdih>
3.904

> <Idih>
0.000

> <Tether>
0.000

$$$$
VeraChem MOL file


 26 25  0  0  0  0  0  0  0  0999 V2000     
   19.9041   17.0878   20.5466 C   0  0  0  0  0  0  0  0  0  0  0  0
   20.5890   17.3669   19.7355 H   0  0  0  0  0  0  0  0  0  0  0  0
   19.3900   16.1659   20.2452 H   0  0  0  0  0  0  0  0  0  0  0  0
   19.1476   17.8751   20.6350 H   0  0  0  0  0  0  0  0  0  0  0  0
   20.6755   16.8686   21.8691 C   0  0  0  0  0  0  0  0  0  0  0  0
   21.3898   16.0483   21.7113 H   0  0  0  0  0  0  0  0  0  0  0  0
   19.9917   16.5256   22.6580 H   0  0  0  0  0  0  0  0  0  0  0  0
   21.4592   18.1205   22.3411 C   0  0  0  0  0  0  0  0  0  0  0  0
   22.3912   17.7808   22.8138 H   0  0  0  0  0  0  0  0  0  0  0  0
   21.7696   18.7234   21.4767 H   0  0  0  0  0  0  0  0  0  0  0  0
   20.7120   19.0073   23.3705 C   0  0  0  0  0  0  0  0  0  0  0  0
   21.3957   19.8053   23.6876 H   0  0  0  0  0  0  0  0  0  0  0  0
   20.5000   18.4098   24.2672 H   0  0  0  0  0  0  0  0  0  0  0  0
   19.3977   19.6334   22.8336 C   0  0  0  0  0  0  0  0  0  0  0  0
   19.5901   20.1024   21.8599 H   0  0  0  0  0  0  0  0  0  0  0  0
   18.6636   18.8382   22.6548 H   0  0  0  0  0  0  0  0  0  0  0  0
   18.7503   20.6845   23.7662 C   0  0  1  0  0  0  0  0  0  0  0  0
   17.8391   21.0382   23.2738 H   0  0  0  0  0  0  0  0  0  0  0  0
   18.3430   20.0807   25.1216 C   0  0  0  0  0  0  0  0  0  0  0  0
   19.2181   19.7851   25.7126 H   0  0  0  0  0  0  0  0  0  0  0  0
   17.7090   19.1967   24.9798 H   0  0  0  0  0  0  0  0  0  0  0  0
   17.7715   20.8089   25.7099 H   0  0  0  0  0  0  0  0  0  0  0  0
   19.6179   21.8985   23.9554 N   0  3  0  0  0  0  0  0  0  0  0  0
   19.1475   22.6099   24.5220 H   0  0  0  0  0  0  0  0  0  0  0  0
   20.4935   21.6605   24.4274 H   0  0  0  0  0  0  0  0  0  0  0  0
   19.8585   22.3316   23.0593 H   0  0  0  0  0  0  0  0  0  0  0  0
  1  2  1  0  0  0  0
  1  3  1  0  0  0  0
  1  4  1  0  0  0  0
  1  5  1  0  0  0  0
  5  6  1  0  0  0  0
  5  7  1  0  0  0  0
  5  8  1  0  0  0  0
  8  9  1  0  0  0  0
  8 10  1  0  0  0  0
  8 11  1  0  0  0  0
 11 12  1  0  0  0  0
 11 13  1  0  0  0  0
 11 14  1  0  0  0  0
 14 15  1  0  0  0  0
 14 16  1  0  0  0  0
 14 17  1  0  0  0  0
 17 18  1  0  0  0  0
 17 19  1  0  0  0  0
 19 20  1  0  0  0  0
 19 21  1  0  0  0  0
 19 22  1  0  0  0  0
 17 23  1  0  0  0  0
 23 24  1  0  0  0  0
 23 25  1  0  0  0  0
 23 26  1  0  0  0  0
M  END
> <VConfSearch Rank>
619

> <Conf_Id>
105

> <Delta U+W>
3.442

> <U+W>
-26.857

> <U>
27.313

> <W>
-54.169

> <W(PB)>
-56.414

> <W(SA)>
2.245

> <Valence>
6.229

> <Coulomb>
19.943

> <VdW>
1.140

> <VdW6>
-9.001

> <VdW12>
10.140

> <Bond>
0.294

> <Angle>
1.969

> <Pdih>
3.967

> <Idih>
0.000

> <Tether>
0.000

$$$$
VeraChem MOL file


 26 25  0  0  0  0  0  0  0  0999 V2000     
   19.1000   21.6356   21.3795 C   0  0  0  0  0  0  0  0  0  0  0  0
   18.1327   21.6527   20.8608 H   0  0  0  0  0  0  0  0  0  0  0  0
   19.6629   22.5231   21.0626 H   0  0  0  0  0  0  0  0  0  0  0  0
   19.6515   20.7539   21.0357 H   0  0  0  0  0  0  0  0  0  0  0  0
   18.9037   21.6400   22.9136 C   0  0  0  0  0  0  0  0  0  0  0  0
   18.3771   22.5661   23.1837 H   0  0  0  0  0  0  0  0  0  0  0  0
   19.8762   21.6861   23.4231 H   0  0  0  0  0  0  0  0  0  0  0  0
   18.0787   20.4348   23.4344 C   0  0  0  0  0  0  0  0  0  0  0  0
   17.4760   20.7773   24.2870 H   0  0  0  0  0  0  0  0  0  0  0  0
   17.3556   20.1115   22.6730 H   0  0  0  0  0  0  0  0  0  0  0  0
   18.9232   19.2272   23.9169 C   0  0  0  0  0  0  0  0  0  0  0  0
   18.2390   18.4733   24.3305 H   0  0  0  0  0  0  0  0  0  0  0  0
   19.5656   19.5490   24.7475 H   0  0  0  0  0  0  0  0  0  0  0  0
   19.7844   18.5701   22.8102 C   0  0  0  0  0  0  0  0  0  0  0  0
   19.1545   18.3876   21.9294 H   0  0  0  0  0  0  0  0  0  0  0  0
   20.5802   19.2583   22.4993 H   0  0  0  0  0  0  0  0  0  0  0  0
   20.4166   17.2343   23.2568 C   0  0  1  0  0  0  0  0  0  0  0  0
   19.6127   16.5658   23.5800 H   0  0  0  0  0  0  0  0  0  0  0  0
   21.1518   16.5715   22.0809 C   0  0  0  0  0  0  0  0  0  0  0  0
   21.9730   17.2029   21.7192 H   0  0  0  0  0  0  0  0  0  0  0  0
   20.4656   16.3911   21.2440 H   0  0  0  0  0  0  0  0  0  0  0  0
   21.5715   15.6036   22.3813 H   0  0  0  0  0  0  0  0  0  0  0  0
   21.3406   17.4000   24.4324 N   0  3  0  0  0  0  0  0  0  0  0  0
   20.8528   17.8018   25.2373 H   0  0  0  0  0  0  0  0  0  0  0  0
   21.7330   16.5021   24.7293 H   0  0  0  0  0  0  0  0  0  0  0  0
   22.1248   18.0176   24.2068 H   0  0  0  0  0  0  0  0  0  0  0  0
  1  2  1  0  0  0  0
  1  3  1  0  0  0  0
  1  4  1  0  0  0  0
  1  5  1  0  0  0  0
  5  6  1  0  0  0  0
  5  7  1  0  0  0  0
  5  8  1  0  0  0  0
  8  9  1  0  0  0  0
  8 10  1  0  0  0  0
  8 11  1  0  0  0  0
 11 12  1  0  0  0  0
 11 13  1  0  0  0  0
 11 14  1  0  0  0  0
 14 15  1  0  0  0  0
 14 16  1  0  0  0  0
 14 17  1  0  0  0  0
 17 18  1  0  0  0  0
 17 19  1  0  0  0  0
 19 20  1  0  0  0  0
 19 21  1  0  0  0  0
 19 22  1  0  0  0  0
 17 23  1  0  0  0  0
 23 24  1  0  0  0  0
 23 25  1  0  0  0  0
 23 26  1  0  0  0  0
M  END
> <VConfSearch Rank>
620

> <Conf_Id>
107

> <Delta U+W>
2.995

> <U+W>
-27.304

> <U>
26.796

> <W>
-54.100

> <W(PB)>
-56.404

> <W(SA)>
2.304

> <Valence>
5.706

> <Coulomb>
20.107

> <VdW>
0.982

> <VdW6>
-8.396

> <VdW12>
9.378

> <Bond>
0.254

> <Angle>
1.644

> <Pdih>
3.808

> <Idih>
0.000

> <Tether>
0.000

$$$$
VeraChem MOL file


 26 25  0  0  0  0  0  0  0  0999 V2000     
   22.3463   20.7114   20.0005 C   0  0  0  0  0  0  0  0  0  0  0  0
   21.9527   21.7361   20.0110 H   0  0  0  0  0  0  0  0  0  0  0  0
   23.4231   20.7662   19.7943 H   0  0  0  0  0  0  0  0  0  0  0  0
   21.8715   20.1711   19.1712 H   0  0  0  0  0  0  0  0  0  0  0  0
   22.0847   20.0027   21.3464 C   0  0  0  0  0  0  0  0  0  0  0  0
   22.5996   20.5465   22.1508 H   0  0  0  0  0  0  0  0  0  0  0  0
   22.5191   18.9936   21.3174 H   0  0  0  0  0  0  0  0  0  0  0  0
   20.5750   19.9122   21.6612 C   0  0  0  0  0  0  0  0  0  0  0  0
   20.1453   20.9232   21.6856 H   0  0  0  0  0  0  0  0  0  0  0  0
   20.0645   19.3694   20.8536 H   0  0  0  0  0  0  0  0  0  0  0  0
   20.3088   19.2037   23.0088 C   0  0  0  0  0  0  0  0  0  0  0  0
   20.8170   19.7496   23.8159 H   0  0  0  0  0  0  0  0  0  0  0  0
   20.7470   18.1973   22.9784 H   0  0  0  0  0  0  0  0  0  0  0  0
   18.7951   19.1134   23.3206 C   0  0  0  0  0  0  0  0  0  0  0  0
   18.3662   20.1239   23.2922 H   0  0  0  0  0  0  0  0  0  0  0  0
   18.2880   18.5355   22.5365 H   0  0  0  0  0  0  0  0  0  0  0  0
   18.5003   18.4865   24.7007 C   0  0  1  0  0  0  0  0  0  0  0  0
   19.0347   19.0645   25.4610 H   0  0  0  0  0  0  0  0  0  0  0  0
   16.9962   18.5576   25.0096 C   0  0  0  0  0  0  0  0  0  0  0  0
   16.4125   17.9899   24.2741 H   0  0  0  0  0  0  0  0  0  0  0  0
   16.6442   19.5967   24.9965 H   0  0  0  0  0  0  0  0  0  0  0  0
   16.7842   18.1473   26.0046 H   0  0  0  0  0  0  0  0  0  0  0  0
   18.9941   17.0694   24.8075 N   0  3  0  0  0  0  0  0  0  0  0  0
   18.5389   16.4625   24.1205 H   0  0  0  0  0  0  0  0  0  0  0  0
   20.0036   17.0119   24.6492 H   0  0  0  0  0  0  0  0  0  0  0  0
   18.8071   16.6769   25.7345 H   0  0  0  0  0  0  0  0  0  0  0  0
  1  2  1  0  0  0  0
  1  3  1  0  0  0  0
  1  4  1  0  0  0  0
  1  5  1  0  0  0  0
  5  6  1  0  0  0  0
  5  7  1  0  0  0  0
  5  8  1  0  0  0  0
  8  9  1  0  0  0  0
  8 10  1  0  0  0  0
  8 11  1  0  0  0  0
 11 12  1  0  0  0  0
 11 13  1  0  0  0  0
 11 14  1  0  0  0  0
 14 15  1  0  0  0  0
 14 16  1  0  0  0  0
 14 17  1  0  0  0  0
 17 18  1  0  0  0  0
 17 19  1  0  0  0  0
 19 20  1  0  0  0  0
 19 21  1  0  0  0  0
 19 22  1  0  0  0  0
 17 23  1  0  0  0  0
 23 24  1  0  0  0  0
 23 25  1  0  0  0  0
 23 26  1  0  0  0  0
M  END
> <VConfSearch Rank>
621

> <Conf_Id>
122

> <Delta U+W>
0.000

> <U+W>
-30.299

> <U>
23.517

> <W>
-53.816

> <W(PB)>
-56.162

> <W(SA)>
2.346

> <Valence>
2.737

> <Coulomb>
19.862

> <VdW>
0.919

> <VdW6>
-6.793

> <VdW12>
7.712

> <Bond>
0.171

> <Angle>
0.873

> <Pdih>
1.693

> <Idih>
0.000

> <Tether>
0.000

$$$$
VeraChem MOL file


 26 25  0  0  0  0  0  0  0  0999 V2000     
   22.9813   16.8037   24.4054 C   0  0  0  0  0  0  0  0  0  0  0  0
   23.9806   16.4913   24.0755 H   0  0  0  0  0  0  0  0  0  0  0  0
   23.0881   17.3032   25.3771 H   0  0  0  0  0  0  0  0  0  0  0  0
   22.3763   15.8992   24.5505 H   0  0  0  0  0  0  0  0  0  0  0  0
   22.3335   17.7437   23.3666 C   0  0  0  0  0  0  0  0  0  0  0  0
   22.2714   17.2285   22.3978 H   0  0  0  0  0  0  0  0  0  0  0  0
   22.9776   18.6218   23.2180 H   0  0  0  0  0  0  0  0  0  0  0  0
   20.9245   18.1988   23.8071 C   0  0  0  0  0  0  0  0  0  0  0  0
   20.2850   17.3177   23.9561 H   0  0  0  0  0  0  0  0  0  0  0  0
   20.9923   18.7100   24.7774 H   0  0  0  0  0  0  0  0  0  0  0  0
   20.2726   19.1407   22.7694 C   0  0  0  0  0  0  0  0  0  0  0  0
   20.2179   18.6232   21.8027 H   0  0  0  0  0  0  0  0  0  0  0  0
   20.9104   20.0238   22.6245 H   0  0  0  0  0  0  0  0  0  0  0  0
   18.8587   19.5915   23.2117 C   0  0  0  0  0  0  0  0  0  0  0  0
   18.1999   18.7168   23.2944 H   0  0  0  0  0  0  0  0  0  0  0  0
   18.9290   20.0242   24.2184 H   0  0  0  0  0  0  0  0  0  0  0  0
   18.2166   20.6392   22.2735 C   0  0  1  0  0  0  0  0  0  0  0  0
   18.9092   21.4808   22.1741 H   0  0  0  0  0  0  0  0  0  0  0  0
   17.9380   20.0693   20.8709 C   0  0  0  0  0  0  0  0  0  0  0  0
   17.2965   19.1809   20.9237 H   0  0  0  0  0  0  0  0  0  0  0  0
   18.8677   19.7926   20.3605 H   0  0  0  0  0  0  0  0  0  0  0  0
   17.4345   20.8154   20.2439 H   0  0  0  0  0  0  0  0  0  0  0  0
   16.9536   21.1978   22.8681 N   0  3  0  0  0  0  0  0  0  0  0  0
   16.2449   20.4701   22.9934 H   0  0  0  0  0  0  0  0  0  0  0  0
   17.1234   21.6226   23.7843 H   0  0  0  0  0  0  0  0  0  0  0  0
   16.5458   21.9209   22.2688 H   0  0  0  0  0  0  0  0  0  0  0  0
  1  2  1  0  0  0  0
  1  3  1  0  0  0  0
  1  4  1  0  0  0  0
  1  5  1  0  0  0  0
  5  6  1  0  0  0  0
  5  7  1  0  0  0  0
  5  8  1  0  0  0  0
  8  9  1  0  0  0  0
  8 10  1  0  0  0  0
  8 11  1  0  0  0  0
 11 12  1  0  0  0  0
 11 13  1  0  0  0  0
 11 14  1  0  0  0  0
 14 15  1  0  0  0  0
 14 16  1  0  0  0  0
 14 17  1  0  0  0  0
 17 18  1  0  0  0  0
 17 19  1  0  0  0  0
 19 20  1  0  0  0  0
 19 21  1  0  0  0  0
 19 22  1  0  0  0  0
 17 23  1  0  0  0  0
 23 24  1  0  0  0  0
 23 25  1  0  0  0  0
 23 26  1  0  0  0  0
M  END
> <VConfSearch Rank>
622

> <Conf_Id>
54

> <Delta U+W>
0.453

> <U+W>
-29.845

> <U>
23.817

> <W>
-53.663

> <W(PB)>
-56.021

> <W(SA)>
2.358

> <Valence>
3.277

> <Coulomb>
19.492

> <VdW>
1.049

> <VdW6>
-6.949

> <VdW12>
7.998

> <Bond>
0.183

> <Angle>
1.152

> <Pdih>
1.942

> <Idih>
0.000

> <Tether>
0.000

$$$$
VeraChem MOL file


 26 25  0  0  0  0  0  0  0  0999 V2000     
   22.4512   19.8507   20.5147 C   0  0  0  0  0  0  0  0  0  0  0  0
   23.2006   19.9058   21.3149 H   0  0  0  0  0  0  0  0  0  0  0  0
   22.2967   18.7952   20.2600 H   0  0  0  0  0  0  0  0  0  0  0  0
   22.8707   20.3442   19.6285 H   0  0  0  0  0  0  0  0  0  0  0  0
   21.1322   20.5358   20.9400 C   0  0  0  0  0  0  0  0  0  0  0  0
   20.3873   20.4381   20.1378 H   0  0  0  0  0  0  0  0  0  0  0  0
   21.3188   21.6127   21.0556 H   0  0  0  0  0  0  0  0  0  0  0  0
   20.5502   19.9903   22.2668 C   0  0  0  0  0  0  0  0  0  0  0  0
   21.3105   20.0633   23.0568 H   0  0  0  0  0  0  0  0  0  0  0  0
   19.7214   20.6471   22.5565 H   0  0  0  0  0  0  0  0  0  0  0  0
   20.0346   18.5328   22.1603 C   0  0  0  0  0  0  0  0  0  0  0  0
   20.8274   17.8965   21.7476 H   0  0  0  0  0  0  0  0  0  0  0  0
   19.2053   18.4909   21.4409 H   0  0  0  0  0  0  0  0  0  0  0  0
   19.5841   17.9008   23.5040 C   0  0  0  0  0  0  0  0  0  0  0  0
   19.3450   16.8487   23.2991 H   0  0  0  0  0  0  0  0  0  0  0  0
   20.4216   17.8833   24.2138 H   0  0  0  0  0  0  0  0  0  0  0  0
   18.3514   18.5693   24.1583 C   0  0  1  0  0  0  0  0  0  0  0  0
   17.6524   18.8552   23.3664 H   0  0  0  0  0  0  0  0  0  0  0  0
   17.6386   17.5792   25.0945 C   0  0  0  0  0  0  0  0  0  0  0  0
   16.7547   18.0426   25.5501 H   0  0  0  0  0  0  0  0  0  0  0  0
   18.3042   17.2460   25.9007 H   0  0  0  0  0  0  0  0  0  0  0  0
   17.2998   16.6937   24.5425 H   0  0  0  0  0  0  0  0  0  0  0  0
   18.7003   19.8206   24.9174 N   0  3  0  0  0  0  0  0  0  0  0  0
   19.1691   20.5043   24.3192 H   0  0  0  0  0  0  0  0  0  0  0  0
   17.8645   20.2692   25.3029 H   0  0  0  0  0  0  0  0  0  0  0  0
   19.3264   19.6172   25.7011 H   0  0  0  0  0  0  0  0  0  0  0  0
  1  2  1  0  0  0  0
  1  3  1  0  0  0  0
  1  4  1  0  0  0  0
  1  5  1  0  0  0  0
  5  6  1  0  0  0  0
  5  7  1  0  0  0  0
  5  8  1  0  0  0  0
  8  9  1  0  0  0  0
  8 10  1  0  0  0  0
  8 11  1  0  0  0  0
 11 12  1  0  0  0  0
 11 13  1  0  0  0  0
 11 14  1  0  0  0  0
 14 15  1  0  0  0  0
 14 16  1  0  0  0  0
 14 17  1  0  0  0  0
 17 18  1  0  0  0  0
 17 19  1  0  0  0  0
 19 20  1  0  0  0  0
 19 21  1  0  0  0  0
 19 22  1  0  0  0  0
 17 23  1  0  0  0  0
 23 24  1  0  0  0  0
 23 25  1  0  0  0  0
 23 26  1  0  0  0  0
M  END
> <VConfSearch Rank>
623

> <Conf_Id>
110

> <Delta U+W>
3.764

> <U+W>
-26.535

> <U>
27.400

> <W>
-53.935

> <W(PB)>
-56.238

> <W(SA)>
2.303

> <Valence>
5.205

> <Coulomb>
21.096

> <VdW>
1.098

> <VdW6>
-8.389

> <VdW12>
9.488

> <Bond>
0.270

> <Angle>
1.912

> <Pdih>
3.023

> <Idih>
0.000

> <Tether>
0.000

$$$$
VeraChem MOL file


 26 25  0  0  0  0  0  0  0  0999 V2000     
   17.8873   16.7352   24.9369 C   0  0  0  0  0  0  0  0  0  0  0  0
   17.2084   15.8734   24.9724 H   0  0  0  0  0  0  0  0  0  0  0  0
   18.9121   16.3507   25.0100 H   0  0  0  0  0  0  0  0  0  0  0  0
   17.6883   17.3559   25.8202 H   0  0  0  0  0  0  0  0  0  0  0  0
   17.6739   17.5383   23.6338 C   0  0  0  0  0  0  0  0  0  0  0  0
   16.6091   17.7962   23.5472 H   0  0  0  0  0  0  0  0  0  0  0  0
   17.9080   16.9047   22.7670 H   0  0  0  0  0  0  0  0  0  0  0  0
   18.5073   18.8410   23.5693 C   0  0  0  0  0  0  0  0  0  0  0  0
   18.2085   19.3973   22.6728 H   0  0  0  0  0  0  0  0  0  0  0  0
   18.2482   19.4818   24.4234 H   0  0  0  0  0  0  0  0  0  0  0  0
   20.0376   18.5921   23.5551 C   0  0  0  0  0  0  0  0  0  0  0  0
   20.2991   17.8462   22.7919 H   0  0  0  0  0  0  0  0  0  0  0  0
   20.3281   18.1547   24.5195 H   0  0  0  0  0  0  0  0  0  0  0  0
   20.8679   19.8858   23.3422 C   0  0  0  0  0  0  0  0  0  0  0  0
   20.3115   20.7601   23.7054 H   0  0  0  0  0  0  0  0  0  0  0  0
   21.7627   19.8175   23.9751 H   0  0  0  0  0  0  0  0  0  0  0  0
   21.3438   20.1200   21.8881 C   0  0  1  0  0  0  0  0  0  0  0  0
   21.9310   19.2498   21.5787 H   0  0  0  0  0  0  0  0  0  0  0  0
   20.1791   20.2883   20.8978 C   0  0  0  0  0  0  0  0  0  0  0  0
   19.5074   21.0984   21.2078 H   0  0  0  0  0  0  0  0  0  0  0  0
   19.5962   19.3637   20.8148 H   0  0  0  0  0  0  0  0  0  0  0  0
   20.5553   20.5233   19.8945 H   0  0  0  0  0  0  0  0  0  0  0  0
   22.2690   21.3026   21.8075 N   0  3  0  0  0  0  0  0  0  0  0  0
   23.0795   21.1906   22.4232 H   0  0  0  0  0  0  0  0  0  0  0  0
   22.6255   21.4346   20.8568 H   0  0  0  0  0  0  0  0  0  0  0  0
   21.7945   22.1681   22.0782 H   0  0  0  0  0  0  0  0  0  0  0  0
  1  2  1  0  0  0  0
  1  3  1  0  0  0  0
  1  4  1  0  0  0  0
  1  5  1  0  0  0  0
  5  6  1  0  0  0  0
  5  7  1  0  0  0  0
  5  8  1  0  0  0  0
  8  9  1  0  0  0  0
  8 10  1  0  0  0  0
  8 11  1  0  0  0  0
 11 12  1  0  0  0  0
 11 13  1  0  0  0  0
 11 14  1  0  0  0  0
 14 15  1  0  0  0  0
 14 16  1  0  0  0  0
 14 17  1  0  0  0  0
 17 18  1  0  0  0  0
 17 19  1  0  0  0  0
 19 20  1  0  0  0  0
 19 21  1  0  0  0  0
 19 22  1  0  0  0  0
 17 23  1  0  0  0  0
 23 24  1  0  0  0  0
 23 25  1  0  0  0  0
 23 26  1  0  0  0  0
M  END
> <VConfSearch Rank>
624

> <Conf_Id>
34

> <Delta U+W>
3.568

> <U+W>
-26.731

> <U>
27.221

> <W>
-53.952

> <W(PB)>
-56.213

> <W(SA)>
2.261

> <Valence>
6.368

> <Coulomb>
19.698

> <VdW>
1.155

> <VdW6>
-8.532

> <VdW12>
9.687

> <Bond>
0.272

> <Angle>
1.847

> <Pdih>
4.248

> <Idih>
0.000

> <Tether>
0.000

$$$$
VeraChem MOL file


 26 25  0  0  0  0  0  0  0  0999 V2000     
   17.3291   15.9405   23.5424 C   0  0  0  0  0  0  0  0  0  0  0  0
   18.0442   15.1290   23.3547 H   0  0  0  0  0  0  0  0  0  0  0  0
   17.2085   16.0457   24.6285 H   0  0  0  0  0  0  0  0  0  0  0  0
   16.3601   15.6393   23.1235 H   0  0  0  0  0  0  0  0  0  0  0  0
   17.8104   17.2621   22.9070 C   0  0  0  0  0  0  0  0  0  0  0  0
   17.0595   18.0453   23.0821 H   0  0  0  0  0  0  0  0  0  0  0  0
   17.8887   17.1356   21.8181 H   0  0  0  0  0  0  0  0  0  0  0  0
   19.1737   17.7090   23.4798 C   0  0  0  0  0  0  0  0  0  0  0  0
   19.0905   17.8314   24.5687 H   0  0  0  0  0  0  0  0  0  0  0  0
   19.9200   16.9217   23.3047 H   0  0  0  0  0  0  0  0  0  0  0  0
   19.6595   19.0321   22.8459 C   0  0  0  0  0  0  0  0  0  0  0  0
   18.9085   19.8133   23.0231 H   0  0  0  0  0  0  0  0  0  0  0  0
   19.7346   18.9006   21.7585 H   0  0  0  0  0  0  0  0  0  0  0  0
   21.0298   19.4734   23.4232 C   0  0  0  0  0  0  0  0  0  0  0  0
   20.9521   19.5527   24.5155 H   0  0  0  0  0  0  0  0  0  0  0  0
   21.7743   18.6897   23.2298 H   0  0  0  0  0  0  0  0  0  0  0  0
   21.5673   20.8158   22.8731 C   0  0  1  0  0  0  0  0  0  0  0  0
   22.5149   21.0189   23.3817 H   0  0  0  0  0  0  0  0  0  0  0  0
   21.8556   20.7488   21.3631 C   0  0  0  0  0  0  0  0  0  0  0  0
   20.9342   20.6430   20.7782 H   0  0  0  0  0  0  0  0  0  0  0  0
   22.5115   19.9013   21.1285 H   0  0  0  0  0  0  0  0  0  0  0  0
   22.3612   21.6628   21.0285 H   0  0  0  0  0  0  0  0  0  0  0  0
   20.6636   21.9732   23.1985 N   0  3  0  0  0  0  0  0  0  0  0  0
   21.0644   22.8610   22.8831 H   0  0  0  0  0  0  0  0  0  0  0  0
   19.7514   21.8711   22.7470 H   0  0  0  0  0  0  0  0  0  0  0  0
   20.5021   22.0519   24.2065 H   0  0  0  0  0  0  0  0  0  0  0  0
  1  2  1  0  0  0  0
  1  3  1  0  0  0  0
  1  4  1  0  0  0  0
  1  5  1  0  0  0  0
  5  6  1  0  0  0  0
  5  7  1  0  0  0  0
  5  8  1  0  0  0  0
  8  9  1  0  0  0  0
  8 10  1  0  0  0  0
  8 11  1  0  0  0  0
 11 12  1  0  0  0  0
 11 13  1  0  0  0  0
 11 14  1  0  0  0  0
 14 15  1  0  0  0  0
 14 16  1  0  0  0  0
 14 17  1  0  0  0  0
 17 18  1  0  0  0  0
 17 19  1  0  0  0  0
 19 20  1  0  0  0  0
 19 21  1  0  0  0  0
 19 22  1  0  0  0  0
 17 23  1  0  0  0  0
 23 24  1  0  0  0  0
 23 25  1  0  0  0  0
 23 26  1  0  0  0  0
M  END
> <VConfSearch Rank>
625

> <Conf_Id>
132

> <Delta U+W>
0.363

> <U+W>
-29.936

> <U>
24.060

> <W>
-53.996

> <W(PB)>
-56.327

> <W(SA)>
2.332

> <Valence>
3.249

> <Coulomb>
19.781

> <VdW>
1.030

> <VdW6>
-7.421

> <VdW12>
8.451

> <Bond>
0.207

> <Angle>
1.205

> <Pdih>
1.837

> <Idih>
0.000

> <Tether>
0.000

$$$$
VeraChem MOL file


 26 25  0  0  0  0  0  0  0  0999 V2000     
   16.6913   18.2804   25.1325 C   0  0  0  0  0  0  0  0  0  0  0  0
   15.6539   18.3566   24.7819 H   0  0  0  0  0  0  0  0  0  0  0  0
   16.8302   17.2777   25.5574 H   0  0  0  0  0  0  0  0  0  0  0  0
   16.8302   19.0148   25.9367 H   0  0  0  0  0  0  0  0  0  0  0  0
   17.6784   18.5343   23.9734 C   0  0  0  0  0  0  0  0  0  0  0  0
   17.4802   19.5275   23.5495 H   0  0  0  0  0  0  0  0  0  0  0  0
   17.4957   17.8034   23.1733 H   0  0  0  0  0  0  0  0  0  0  0  0
   19.1485   18.4365   24.4453 C   0  0  0  0  0  0  0  0  0  0  0  0
   19.3457   19.2042   25.2062 H   0  0  0  0  0  0  0  0  0  0  0  0
   19.2990   17.4672   24.9406 H   0  0  0  0  0  0  0  0  0  0  0  0
   20.1804   18.5647   23.2976 C   0  0  0  0  0  0  0  0  0  0  0  0
   19.9811   17.7902   22.5453 H   0  0  0  0  0  0  0  0  0  0  0  0
   21.1732   18.3470   23.7118 H   0  0  0  0  0  0  0  0  0  0  0  0
   20.1909   19.9683   22.6321 C   0  0  0  0  0  0  0  0  0  0  0  0
   19.2084   20.1736   22.1902 H   0  0  0  0  0  0  0  0  0  0  0  0
   20.3431   20.7353   23.4029 H   0  0  0  0  0  0  0  0  0  0  0  0
   21.2567   20.1560   21.5262 C   0  0  1  0  0  0  0  0  0  0  0  0
   21.1172   21.1581   21.1088 H   0  0  0  0  0  0  0  0  0  0  0  0
   22.6900   20.0816   22.0812 C   0  0  0  0  0  0  0  0  0  0  0  0
   22.9411   19.0718   22.4262 H   0  0  0  0  0  0  0  0  0  0  0  0
   22.8196   20.7749   22.9216 H   0  0  0  0  0  0  0  0  0  0  0  0
   23.4153   20.3597   21.3067 H   0  0  0  0  0  0  0  0  0  0  0  0
   21.0711   19.1983   20.3814 N   0  3  0  0  0  0  0  0  0  0  0  0
   20.1341   19.2748   19.9758 H   0  0  0  0  0  0  0  0  0  0  0  0
   21.7446   19.3770   19.6312 H   0  0  0  0  0  0  0  0  0  0  0  0
   21.1983   18.2294   20.6835 H   0  0  0  0  0  0  0  0  0  0  0  0
  1  2  1  0  0  0  0
  1  3  1  0  0  0  0
  1  4  1  0  0  0  0
  1  5  1  0  0  0  0
  5  6  1  0  0  0  0
  5  7  1  0  0  0  0
  5  8  1  0  0  0  0
  8  9  1  0  0  0  0
  8 10  1  0  0  0  0
  8 11  1  0  0  0  0
 11 12  1  0  0  0  0
 11 13  1  0  0  0  0
 11 14  1  0  0  0  0
 14 15  1  0  0  0  0
 14 16  1  0  0  0  0
 14 17  1  0  0  0  0
 17 18  1  0  0  0  0
 17 19  1  0  0  0  0
 19 20  1  0  0  0  0
 19 21  1  0  0  0  0
 19 22  1  0  0  0  0
 17 23  1  0  0  0  0
 23 24  1  0  0  0  0
 23 25  1  0  0  0  0
 23 26  1  0  0  0  0
M  END
> <VConfSearch Rank>
626

> <Conf_Id>
46

> <Delta U+W>
1.114

> <U+W>
-29.185

> <U>
24.990

> <W>
-54.175

> <W(PB)>
-56.455

> <W(SA)>
2.279

> <Valence>
3.862

> <Coulomb>
19.956

> <VdW>
1.172

> <VdW6>
-8.054

> <VdW12>
9.226

> <Bond>
0.258

> <Angle>
1.499

> <Pdih>
2.106

> <Idih>
0.000

> <Tether>
0.000

$$$$
VeraChem MOL file


 26 25  0  0  0  0  0  0  0  0999 V2000     
   20.6104   22.2407   24.7544 C   0  0  0  0  0  0  0  0  0  0  0  0
   21.0703   21.5034   25.4239 H   0  0  0  0  0  0  0  0  0  0  0  0
   21.3776   22.5967   24.0546 H   0  0  0  0  0  0  0  0  0  0  0  0
   20.2964   23.0934   25.3701 H   0  0  0  0  0  0  0  0  0  0  0  0
   19.4008   21.6461   23.9979 C   0  0  0  0  0  0  0  0  0  0  0  0
   18.9008   22.4525   23.4434 H   0  0  0  0  0  0  0  0  0  0  0  0
   18.6636   21.2666   24.7192 H   0  0  0  0  0  0  0  0  0  0  0  0
   19.7853   20.5250   23.0022 C   0  0  0  0  0  0  0  0  0  0  0  0
   18.8891   20.2605   22.4260 H   0  0  0  0  0  0  0  0  0  0  0  0
   20.5150   20.9131   22.2782 H   0  0  0  0  0  0  0  0  0  0  0  0
   20.3551   19.2585   23.6903 C   0  0  0  0  0  0  0  0  0  0  0  0
   19.6396   18.8855   24.4350 H   0  0  0  0  0  0  0  0  0  0  0  0
   21.2635   19.5221   24.2473 H   0  0  0  0  0  0  0  0  0  0  0  0
   20.7182   18.1305   22.6902 C   0  0  0  0  0  0  0  0  0  0  0  0
   21.4998   18.4984   22.0122 H   0  0  0  0  0  0  0  0  0  0  0  0
   21.1628   17.2927   23.2436 H   0  0  0  0  0  0  0  0  0  0  0  0
   19.5275   17.6126   21.8521 C   0  0  1  0  0  0  0  0  0  0  0  0
   19.1117   18.4520   21.2872 H   0  0  0  0  0  0  0  0  0  0  0  0
   20.0025   16.5502   20.8483 C   0  0  0  0  0  0  0  0  0  0  0  0
   19.1692   16.2071   20.2227 H   0  0  0  0  0  0  0  0  0  0  0  0
   20.4253   15.6781   21.3628 H   0  0  0  0  0  0  0  0  0  0  0  0
   20.7719   16.9600   20.1821 H   0  0  0  0  0  0  0  0  0  0  0  0
   18.4146   17.0730   22.7082 N   0  3  0  0  0  0  0  0  0  0  0  0
   18.0644   17.7852   23.3544 H   0  0  0  0  0  0  0  0  0  0  0  0
   17.6235   16.7576   22.1398 H   0  0  0  0  0  0  0  0  0  0  0  0
   18.7276   16.2754   23.2677 H   0  0  0  0  0  0  0  0  0  0  0  0
  1  2  1  0  0  0  0
  1  3  1  0  0  0  0
  1  4  1  0  0  0  0
  1  5  1  0  0  0  0
  5  6  1  0  0  0  0
  5  7  1  0  0  0  0
  5  8  1  0  0  0  0
  8  9  1  0  0  0  0
  8 10  1  0  0  0  0
  8 11  1  0  0  0  0
 11 12  1  0  0  0  0
 11 13  1  0  0  0  0
 11 14  1  0  0  0  0
 14 15  1  0  0  0  0
 14 16  1  0  0  0  0
 14 17  1  0  0  0  0
 17 18  1  0  0  0  0
 17 19  1  0  0  0  0
 19 20  1  0  0  0  0
 19 21  1  0  0  0  0
 19 22  1  0  0  0  0
 17 23  1  0  0  0  0
 23 24  1  0  0  0  0
 23 25  1  0  0  0  0
 23 26  1  0  0  0  0
M  END
> <VConfSearch Rank>
627

> <Conf_Id>
113

> <Delta U+W>
1.137

> <U+W>
-29.162

> <U>
24.833

> <W>
-53.995

> <W(PB)>
-56.288

> <W(SA)>
2.294

> <Valence>
3.589

> <Coulomb>
20.270

> <VdW>
0.974

> <VdW6>
-8.255

> <VdW12>
9.229

> <Bond>
0.244

> <Angle>
1.377

> <Pdih>
1.967

> <Idih>
0.000

> <Tether>
0.000

$$$$
VeraChem MOL file


 26 25  0  0  0  0  0  0  0  0999 V2000     
   19.5031   22.6779   24.6088 C   0  0  0  0  0  0  0  0  0  0  0  0
   18.9129   22.8933   25.5090 H   0  0  0  0  0  0  0  0  0  0  0  0
   20.5603   22.8498   24.8497 H   0  0  0  0  0  0  0  0  0  0  0  0
   19.2079   23.3963   23.8329 H   0  0  0  0  0  0  0  0  0  0  0  0
   19.2705   21.2261   24.1391 C   0  0  0  0  0  0  0  0  0  0  0  0
   18.2012   21.0767   23.9343 H   0  0  0  0  0  0  0  0  0  0  0  0
   19.5377   20.5414   24.9548 H   0  0  0  0  0  0  0  0  0  0  0  0
   20.0963   20.8976   22.8728 C   0  0  0  0  0  0  0  0  0  0  0  0
   19.8724   21.6438   22.0979 H   0  0  0  0  0  0  0  0  0  0  0  0
   21.1681   20.9957   23.0937 H   0  0  0  0  0  0  0  0  0  0  0  0
   19.8113   19.4897   22.2945 C   0  0  0  0  0  0  0  0  0  0  0  0
   20.3471   19.3979   21.3407 H   0  0  0  0  0  0  0  0  0  0  0  0
   18.7419   19.4089   22.0589 H   0  0  0  0  0  0  0  0  0  0  0  0
   20.2387   18.3365   23.2433 C   0  0  0  0  0  0  0  0  0  0  0  0
   21.2796   18.4922   23.5555 H   0  0  0  0  0  0  0  0  0  0  0  0
   19.6380   18.3708   24.1607 H   0  0  0  0  0  0  0  0  0  0  0  0
   20.1160   16.9182   22.6375 C   0  0  1  0  0  0  0  0  0  0  0  0
   20.4544   16.2093   23.3996 H   0  0  0  0  0  0  0  0  0  0  0  0
   18.6602   16.5643   22.2864 C   0  0  0  0  0  0  0  0  0  0  0  0
   18.2822   17.1773   21.4596 H   0  0  0  0  0  0  0  0  0  0  0  0
   18.0033   16.7119   23.1526 H   0  0  0  0  0  0  0  0  0  0  0  0
   18.5830   15.5122   21.9860 H   0  0  0  0  0  0  0  0  0  0  0  0
   21.0205   16.7177   21.4526 N   0  3  0  0  0  0  0  0  0  0  0  0
   21.9979   16.9101   21.6894 H   0  0  0  0  0  0  0  0  0  0  0  0
   20.9740   15.7557   21.1050 H   0  0  0  0  0  0  0  0  0  0  0  0
   20.7633   17.3357   20.6792 H   0  0  0  0  0  0  0  0  0  0  0  0
  1  2  1  0  0  0  0
  1  3  1  0  0  0  0
  1  4  1  0  0  0  0
  1  5  1  0  0  0  0
  5  6  1  0  0  0  0
  5  7  1  0  0  0  0
  5  8  1  0  0  0  0
  8  9  1  0  0  0  0
  8 10  1  0  0  0  0
  8 11  1  0  0  0  0
 11 12  1  0  0  0  0
 11 13  1  0  0  0  0
 11 14  1  0  0  0  0
 14 15  1  0  0  0  0
 14 16  1  0  0  0  0
 14 17  1  0  0  0  0
 17 18  1  0  0  0  0
 17 19  1  0  0  0  0
 19 20  1  0  0  0  0
 19 21  1  0  0  0  0
 19 22  1  0  0  0  0
 17 23  1  0  0  0  0
 23 24  1  0  0  0  0
 23 25  1  0  0  0  0
 23 26  1  0  0  0  0
M  END
> <VConfSearch Rank>
628

> <Conf_Id>
45

> <Delta U+W>
1.035

> <U+W>
-29.264

> <U>
24.725

> <W>
-53.989

> <W(PB)>
-56.298

> <W(SA)>
2.309

> <Valence>
3.780

> <Coulomb>
19.804

> <VdW>
1.141

> <VdW6>
-8.104

> <VdW12>
9.246

> <Bond>
0.254

> <Angle>
1.437

> <Pdih>
2.089

> <Idih>
0.000

> <Tether>
0.000

$$$$
VeraChem MOL file


 26 25  0  0  0  0  0  0  0  0999 V2000     
   16.6271   16.8690   23.7121 C   0  0  0  0  0  0  0  0  0  0  0  0
   16.6662   15.9392   24.2943 H   0  0  0  0  0  0  0  0  0  0  0  0
   15.7816   17.4630   24.0830 H   0  0  0  0  0  0  0  0  0  0  0  0
   16.4259   16.6035   22.6661 H   0  0  0  0  0  0  0  0  0  0  0  0
   17.9529   17.6488   23.8410 C   0  0  0  0  0  0  0  0  0  0  0  0
   18.7763   17.0075   23.5002 H   0  0  0  0  0  0  0  0  0  0  0  0
   18.1409   17.8742   24.9001 H   0  0  0  0  0  0  0  0  0  0  0  0
   17.9228   18.9624   23.0242 C   0  0  0  0  0  0  0  0  0  0  0  0
   17.7914   18.7330   21.9578 H   0  0  0  0  0  0  0  0  0  0  0  0
   17.0418   19.5468   23.3238 H   0  0  0  0  0  0  0  0  0  0  0  0
   19.1820   19.8438   23.2150 C   0  0  0  0  0  0  0  0  0  0  0  0
   19.3109   20.0739   24.2817 H   0  0  0  0  0  0  0  0  0  0  0  0
   19.0033   20.8029   22.7115 H   0  0  0  0  0  0  0  0  0  0  0  0
   20.4784   19.2003   22.6586 C   0  0  0  0  0  0  0  0  0  0  0  0
   20.6666   18.2541   23.1806 H   0  0  0  0  0  0  0  0  0  0  0  0
   20.3448   18.9531   21.5971 H   0  0  0  0  0  0  0  0  0  0  0  0
   21.7198   20.1033   22.8286 C   0  0  1  0  0  0  0  0  0  0  0  0
   21.8109   20.3651   23.8873 H   0  0  0  0  0  0  0  0  0  0  0  0
   22.9910   19.3485   22.4076 C   0  0  0  0  0  0  0  0  0  0  0  0
   22.9504   19.0619   21.3492 H   0  0  0  0  0  0  0  0  0  0  0  0
   23.1189   18.4364   23.0038 H   0  0  0  0  0  0  0  0  0  0  0  0
   23.8809   19.9718   22.5590 H   0  0  0  0  0  0  0  0  0  0  0  0
   21.6017   21.3975   22.0705 N   0  3  0  0  0  0  0  0  0  0  0  0
   20.7855   21.9358   22.3728 H   0  0  0  0  0  0  0  0  0  0  0  0
   22.4260   21.9888   22.2093 H   0  0  0  0  0  0  0  0  0  0  0  0
   21.5081   21.2339   21.0646 H   0  0  0  0  0  0  0  0  0  0  0  0
  1  2  1  0  0  0  0
  1  3  1  0  0  0  0
  1  4  1  0  0  0  0
  1  5  1  0  0  0  0
  5  6  1  0  0  0  0
  5  7  1  0  0  0  0
  5  8  1  0  0  0  0
  8  9  1  0  0  0  0
  8 10  1  0  0  0  0
  8 11  1  0  0  0  0
 11 12  1  0  0  0  0
 11 13  1  0  0  0  0
 11 14  1  0  0  0  0
 14 15  1  0  0  0  0
 14 16  1  0  0  0  0
 14 17  1  0  0  0  0
 17 18  1  0  0  0  0
 17 19  1  0  0  0  0
 19 20  1  0  0  0  0
 19 21  1  0  0  0  0
 19 22  1  0  0  0  0
 17 23  1  0  0  0  0
 23 24  1  0  0  0  0
 23 25  1  0  0  0  0
 23 26  1  0  0  0  0
M  END
> <VConfSearch Rank>
629

> <Conf_Id>
121

> <Delta U+W>
0.736

> <U+W>
-29.562

> <U>
24.282

> <W>
-53.844

> <W(PB)>
-56.205

> <W(SA)>
2.361

> <Valence>
3.311

> <Coulomb>
19.887

> <VdW>
1.083

> <VdW6>
-7.444

> <VdW12>
8.527

> <Bond>
0.219

> <Angle>
1.167

> <Pdih>
1.926

> <Idih>
0.000

> <Tether>
0.000

$$$$
VeraChem MOL file


 26 25  0  0  0  0  0  0  0  0999 V2000     
   17.5934   16.7309   24.5815 C   0  0  0  0  0  0  0  0  0  0  0  0
   16.6009   16.4299   24.9412 H   0  0  0  0  0  0  0  0  0  0  0  0
   18.0906   15.8374   24.1821 H   0  0  0  0  0  0  0  0  0  0  0  0
   18.1642   17.0840   25.4490 H   0  0  0  0  0  0  0  0  0  0  0  0
   17.4662   17.8270   23.4992 C   0  0  0  0  0  0  0  0  0  0  0  0
   16.9973   18.7218   23.9320 H   0  0  0  0  0  0  0  0  0  0  0  0
   16.7829   17.4710   22.7155 H   0  0  0  0  0  0  0  0  0  0  0  0
   18.8158   18.2078   22.8440 C   0  0  0  0  0  0  0  0  0  0  0  0
   19.2762   17.3115   22.4058 H   0  0  0  0  0  0  0  0  0  0  0  0
   18.6073   18.8890   22.0086 H   0  0  0  0  0  0  0  0  0  0  0  0
   19.8095   18.8797   23.8254 C   0  0  0  0  0  0  0  0  0  0  0  0
   20.0292   18.1920   24.6522 H   0  0  0  0  0  0  0  0  0  0  0  0
   19.3427   19.7619   24.2826 H   0  0  0  0  0  0  0  0  0  0  0  0
   21.1547   19.2720   23.1607 C   0  0  0  0  0  0  0  0  0  0  0  0
   21.8121   19.7134   23.9215 H   0  0  0  0  0  0  0  0  0  0  0  0
   21.6544   18.3545   22.8229 H   0  0  0  0  0  0  0  0  0  0  0  0
   21.0403   20.2438   21.9622 C   0  0  1  0  0  0  0  0  0  0  0  0
   20.3937   19.7871   21.2071 H   0  0  0  0  0  0  0  0  0  0  0  0
   20.4315   21.5972   22.3702 C   0  0  0  0  0  0  0  0  0  0  0  0
   21.0154   22.0700   23.1697 H   0  0  0  0  0  0  0  0  0  0  0  0
   19.3998   21.4795   22.7213 H   0  0  0  0  0  0  0  0  0  0  0  0
   20.4069   22.2837   21.5150 H   0  0  0  0  0  0  0  0  0  0  0  0
   22.3756   20.4500   21.3027 N   0  3  0  0  0  0  0  0  0  0  0  0
   22.7802   19.5648   20.9844 H   0  0  0  0  0  0  0  0  0  0  0  0
   22.2986   21.0608   20.4844 H   0  0  0  0  0  0  0  0  0  0  0  0
   23.0468   20.8819   21.9433 H   0  0  0  0  0  0  0  0  0  0  0  0
  1  2  1  0  0  0  0
  1  3  1  0  0  0  0
  1  4  1  0  0  0  0
  1  5  1  0  0  0  0
  5  6  1  0  0  0  0
  5  7  1  0  0  0  0
  5  8  1  0  0  0  0
  8  9  1  0  0  0  0
  8 10  1  0  0  0  0
  8 11  1  0  0  0  0
 11 12  1  0  0  0  0
 11 13  1  0  0  0  0
 11 14  1  0  0  0  0
 14 15  1  0  0  0  0
 14 16  1  0  0  0  0
 14 17  1  0  0  0  0
 17 18  1  0  0  0  0
 17 19  1  0  0  0  0
 19 20  1  0  0  0  0
 19 21  1  0  0  0  0
 19 22  1  0  0  0  0
 17 23  1  0  0  0  0
 23 24  1  0  0  0  0
 23 25  1  0  0  0  0
 23 26  1  0  0  0  0
M  END
> <VConfSearch Rank>
630

> <Conf_Id>
5

> <Delta U+W>
1.233

> <U+W>
-29.065

> <U>
25.023

> <W>
-54.088

> <W(PB)>
-56.383

> <W(SA)>
2.296

> <Valence>
4.083

> <Coulomb>
19.893

> <VdW>
1.047

> <VdW6>
-8.479

> <VdW12>
9.527

> <Bond>
0.256

> <Angle>
1.716

> <Pdih>
2.112

> <Idih>
0.000

> <Tether>
0.000

$$$$
VeraChem MOL file


 26 25  0  0  0  0  0  0  0  0999 V2000     
   21.3233   19.4095   26.2973 C   0  0  0  0  0  0  0  0  0  0  0  0
   21.7574   18.9842   27.2115 H   0  0  0  0  0  0  0  0  0  0  0  0
   22.1443   19.8486   25.7175 H   0  0  0  0  0  0  0  0  0  0  0  0
   20.6411   20.2165   26.5943 H   0  0  0  0  0  0  0  0  0  0  0  0
   20.5783   18.3184   25.4950 C   0  0  0  0  0  0  0  0  0  0  0  0
   19.8565   17.8240   26.1603 H   0  0  0  0  0  0  0  0  0  0  0  0
   21.2878   17.5407   25.1798 H   0  0  0  0  0  0  0  0  0  0  0  0
   19.8194   18.8669   24.2623 C   0  0  0  0  0  0  0  0  0  0  0  0
   19.2155   18.0494   23.8478 H   0  0  0  0  0  0  0  0  0  0  0  0
   19.1155   19.6473   24.5827 H   0  0  0  0  0  0  0  0  0  0  0  0
   20.7544   19.4233   23.1596 C   0  0  0  0  0  0  0  0  0  0  0  0
   21.4358   18.6296   22.8235 H   0  0  0  0  0  0  0  0  0  0  0  0
   21.3876   20.2150   23.5799 H   0  0  0  0  0  0  0  0  0  0  0  0
   20.0072   20.0104   21.9351 C   0  0  0  0  0  0  0  0  0  0  0  0
   19.3876   20.8623   22.2460 H   0  0  0  0  0  0  0  0  0  0  0  0
   20.7639   20.4282   21.2579 H   0  0  0  0  0  0  0  0  0  0  0  0
   19.1541   18.9723   21.1661 C   0  0  1  0  0  0  0  0  0  0  0  0
   19.4940   17.9722   21.4522 H   0  0  0  0  0  0  0  0  0  0  0  0
   17.6587   19.1024   21.5089 C   0  0  0  0  0  0  0  0  0  0  0  0
   17.2634   20.0743   21.1879 H   0  0  0  0  0  0  0  0  0  0  0  0
   17.4834   19.0072   22.5862 H   0  0  0  0  0  0  0  0  0  0  0  0
   17.0779   18.3182   21.0079 H   0  0  0  0  0  0  0  0  0  0  0  0
   19.3529   19.0719   19.6784 N   0  3  0  0  0  0  0  0  0  0  0  0
   20.3351   18.9409   19.4200 H   0  0  0  0  0  0  0  0  0  0  0  0
   18.8100   18.3610   19.1800 H   0  0  0  0  0  0  0  0  0  0  0  0
   19.0597   19.9854   19.3217 H   0  0  0  0  0  0  0  0  0  0  0  0
  1  2  1  0  0  0  0
  1  3  1  0  0  0  0
  1  4  1  0  0  0  0
  1  5  1  0  0  0  0
  5  6  1  0  0  0  0
  5  7  1  0  0  0  0
  5  8  1  0  0  0  0
  8  9  1  0  0  0  0
  8 10  1  0  0  0  0
  8 11  1  0  0  0  0
 11 12  1  0  0  0  0
 11 13  1  0  0  0  0
 11 14  1  0  0  0  0
 14 15  1  0  0  0  0
 14 16  1  0  0  0  0
 14 17  1  0  0  0  0
 17 18  1  0  0  0  0
 17 19  1  0  0  0  0
 19 20  1  0  0  0  0
 19 21  1  0  0  0  0
 19 22  1  0  0  0  0
 17 23  1  0  0  0  0
 23 24  1  0  0  0  0
 23 25  1  0  0  0  0
 23 26  1  0  0  0  0
M  END
> <VConfSearch Rank>
631

> <Conf_Id>
100

> <Delta U+W>
3.818

> <U+W>
-26.481

> <U>
27.496

> <W>
-53.977

> <W(PB)>
-56.267

> <W(SA)>
2.290

> <Valence>
6.472

> <Coulomb>
19.839

> <VdW>
1.185

> <VdW6>
-8.405

> <VdW12>
9.590

> <Bond>
0.248

> <Angle>
1.619

> <Pdih>
4.604

> <Idih>
0.000

> <Tether>
0.000

$$$$
VeraChem MOL file


 26 25  0  0  0  0  0  0  0  0999 V2000     
   20.1509   19.7331   26.5784 C   0  0  0  0  0  0  0  0  0  0  0  0
   20.6648   20.4135   27.2698 H   0  0  0  0  0  0  0  0  0  0  0  0
   19.1017   20.0494   26.5122 H   0  0  0  0  0  0  0  0  0  0  0  0
   20.1776   18.7260   27.0146 H   0  0  0  0  0  0  0  0  0  0  0  0
   20.8258   19.7546   25.1905 C   0  0  0  0  0  0  0  0  0  0  0  0
   21.8816   19.4678   25.2942 H   0  0  0  0  0  0  0  0  0  0  0  0
   20.8131   20.7800   24.7953 H   0  0  0  0  0  0  0  0  0  0  0  0
   20.1215   18.8042   24.1971 C   0  0  0  0  0  0  0  0  0  0  0  0
   20.1375   17.7818   24.5994 H   0  0  0  0  0  0  0  0  0  0  0  0
   19.0666   19.0903   24.1124 H   0  0  0  0  0  0  0  0  0  0  0  0
   20.8024   18.8203   22.8063 C   0  0  0  0  0  0  0  0  0  0  0  0
   21.8470   18.5053   22.9365 H   0  0  0  0  0  0  0  0  0  0  0  0
   20.8442   19.8454   22.4163 H   0  0  0  0  0  0  0  0  0  0  0  0
   20.1322   17.8685   21.7762 C   0  0  0  0  0  0  0  0  0  0  0  0
   20.9187   17.4394   21.1415 H   0  0  0  0  0  0  0  0  0  0  0  0
   19.6823   17.0123   22.2958 H   0  0  0  0  0  0  0  0  0  0  0  0
   19.0799   18.5114   20.8386 C   0  0  1  0  0  0  0  0  0  0  0  0
   18.7000   17.7159   20.1900 H   0  0  0  0  0  0  0  0  0  0  0  0
   17.8798   19.0992   21.5983 C   0  0  0  0  0  0  0  0  0  0  0  0
   18.1656   19.9857   22.1769 H   0  0  0  0  0  0  0  0  0  0  0  0
   17.4499   18.3579   22.2832 H   0  0  0  0  0  0  0  0  0  0  0  0
   17.0922   19.3991   20.8963 H   0  0  0  0  0  0  0  0  0  0  0  0
   19.6859   19.5372   19.9200 N   0  3  0  0  0  0  0  0  0  0  0  0
   20.4515   19.1411   19.3674 H   0  0  0  0  0  0  0  0  0  0  0  0
   18.9932   19.9053   19.2619 H   0  0  0  0  0  0  0  0  0  0  0  0
   20.0629   20.3305   20.4440 H   0  0  0  0  0  0  0  0  0  0  0  0
  1  2  1  0  0  0  0
  1  3  1  0  0  0  0
  1  4  1  0  0  0  0
  1  5  1  0  0  0  0
  5  6  1  0  0  0  0
  5  7  1  0  0  0  0
  5  8  1  0  0  0  0
  8  9  1  0  0  0  0
  8 10  1  0  0  0  0
  8 11  1  0  0  0  0
 11 12  1  0  0  0  0
 11 13  1  0  0  0  0
 11 14  1  0  0  0  0
 14 15  1  0  0  0  0
 14 16  1  0  0  0  0
 14 17  1  0  0  0  0
 17 18  1  0  0  0  0
 17 19  1  0  0  0  0
 19 20  1  0  0  0  0
 19 21  1  0  0  0  0
 19 22  1  0  0  0  0
 17 23  1  0  0  0  0
 23 24  1  0  0  0  0
 23 25  1  0  0  0  0
 23 26  1  0  0  0  0
M  END
> <VConfSearch Rank>
632

> <Conf_Id>
142

> <Delta U+W>
2.978

> <U+W>
-27.320

> <U>
26.848

> <W>
-54.168

> <W(PB)>
-56.427

> <W(SA)>
2.259

> <Valence>
5.823

> <Coulomb>
20.057

> <VdW>
0.968

> <VdW6>
-8.367

> <VdW12>
9.335

> <Bond>
0.267

> <Angle>
1.799

> <Pdih>
3.758

> <Idih>
0.000

> <Tether>
0.000

$$$$
VeraChem MOL file


 26 25  0  0  0  0  0  0  0  0999 V2000     
   21.5846   17.3972   20.4235 C   0  0  0  0  0  0  0  0  0  0  0  0
   21.8234   16.5360   21.0608 H   0  0  0  0  0  0  0  0  0  0  0  0
   21.6789   17.0766   19.3779 H   0  0  0  0  0  0  0  0  0  0  0  0
   22.3391   18.1740   20.5975 H   0  0  0  0  0  0  0  0  0  0  0  0
   20.1553   17.9159   20.7021 C   0  0  0  0  0  0  0  0  0  0  0  0
   19.4361   17.1467   20.3875 H   0  0  0  0  0  0  0  0  0  0  0  0
   19.9527   18.7984   20.0793 H   0  0  0  0  0  0  0  0  0  0  0  0
   19.8978   18.2535   22.1908 C   0  0  0  0  0  0  0  0  0  0  0  0
   18.8265   18.4566   22.3021 H   0  0  0  0  0  0  0  0  0  0  0  0
   20.1229   17.3741   22.8098 H   0  0  0  0  0  0  0  0  0  0  0  0
   20.7068   19.4754   22.6946 C   0  0  0  0  0  0  0  0  0  0  0  0
   20.4303   20.3657   22.1144 H   0  0  0  0  0  0  0  0  0  0  0  0
   21.7723   19.3094   22.4926 H   0  0  0  0  0  0  0  0  0  0  0  0
   20.5668   19.7651   24.2161 C   0  0  0  0  0  0  0  0  0  0  0  0
   20.9599   18.9123   24.7850 H   0  0  0  0  0  0  0  0  0  0  0  0
   21.2317   20.6051   24.4565 H   0  0  0  0  0  0  0  0  0  0  0  0
   19.1567   20.1210   24.7530 C   0  0  1  0  0  0  0  0  0  0  0  0
   19.2961   20.5154   25.7644 H   0  0  0  0  0  0  0  0  0  0  0  0
   18.4706   21.2209   23.9241 C   0  0  0  0  0  0  0  0  0  0  0  0
   18.2124   20.8687   22.9183 H   0  0  0  0  0  0  0  0  0  0  0  0
   19.1235   22.0970   23.8253 H   0  0  0  0  0  0  0  0  0  0  0  0
   17.5450   21.5490   24.4126 H   0  0  0  0  0  0  0  0  0  0  0  0
   18.2650   18.9209   24.9183 N   0  3  0  0  0  0  0  0  0  0  0  0
   18.6916   18.2190   25.5296 H   0  0  0  0  0  0  0  0  0  0  0  0
   17.3649   19.1791   25.3327 H   0  0  0  0  0  0  0  0  0  0  0  0
   18.0734   18.4720   24.0207 H   0  0  0  0  0  0  0  0  0  0  0  0
  1  2  1  0  0  0  0
  1  3  1  0  0  0  0
  1  4  1  0  0  0  0
  1  5  1  0  0  0  0
  5  6  1  0  0  0  0
  5  7  1  0  0  0  0
  5  8  1  0  0  0  0
  8  9  1  0  0  0  0
  8 10  1  0  0  0  0
  8 11  1  0  0  0  0
 11 12  1  0  0  0  0
 11 13  1  0  0  0  0
 11 14  1  0  0  0  0
 14 15  1  0  0  0  0
 14 16  1  0  0  0  0
 14 17  1  0  0  0  0
 17 18  1  0  0  0  0
 17 19  1  0  0  0  0
 19 20  1  0  0  0  0
 19 21  1  0  0  0  0
 19 22  1  0  0  0  0
 17 23  1  0  0  0  0
 23 24  1  0  0  0  0
 23 25  1  0  0  0  0
 23 26  1  0  0  0  0
M  END
> <VConfSearch Rank>
633

> <Conf_Id>
119

> <Delta U+W>
3.538

> <U+W>
-26.761

> <U>
27.482

> <W>
-54.243

> <W(PB)>
-56.494

> <W(SA)>
2.251

> <Valence>
5.284

> <Coulomb>
21.247

> <VdW>
0.951

> <VdW6>
-9.416

> <VdW12>
10.367

> <Bond>
0.323

> <Angle>
2.522

> <Pdih>
2.439

> <Idih>
0.000

> <Tether>
0.000

$$$$
VeraChem MOL file


 26 25  0  0  0  0  0  0  0  0999 V2000     
   17.2350   20.2850   24.9695 C   0  0  0  0  0  0  0  0  0  0  0  0
   16.7965   21.0855   24.3596 H   0  0  0  0  0  0  0  0  0  0  0  0
   16.8774   19.3225   24.5832 H   0  0  0  0  0  0  0  0  0  0  0  0
   16.8505   20.3932   25.9919 H   0  0  0  0  0  0  0  0  0  0  0  0
   18.7786   20.3621   24.9613 C   0  0  0  0  0  0  0  0  0  0  0  0
   19.1928   19.5332   25.5522 H   0  0  0  0  0  0  0  0  0  0  0  0
   19.0894   21.2861   25.4686 H   0  0  0  0  0  0  0  0  0  0  0  0
   19.3894   20.3471   23.5392 C   0  0  0  0  0  0  0  0  0  0  0  0
   18.9914   21.1937   22.9630 H   0  0  0  0  0  0  0  0  0  0  0  0
   20.4682   20.5210   23.6274 H   0  0  0  0  0  0  0  0  0  0  0  0
   19.1253   19.0271   22.7699 C   0  0  0  0  0  0  0  0  0  0  0  0
   18.0452   18.9393   22.5931 H   0  0  0  0  0  0  0  0  0  0  0  0
   19.4010   18.1651   23.3908 H   0  0  0  0  0  0  0  0  0  0  0  0
   19.8419   18.9625   21.3921 C   0  0  0  0  0  0  0  0  0  0  0  0
   19.1795   18.4494   20.6825 H   0  0  0  0  0  0  0  0  0  0  0  0
   19.9675   19.9757   20.9882 H   0  0  0  0  0  0  0  0  0  0  0  0
   21.2049   18.2266   21.3692 C   0  0  1  0  0  0  0  0  0  0  0  0
   21.5796   18.2763   20.3421 H   0  0  0  0  0  0  0  0  0  0  0  0
   22.2563   18.8862   22.2762 C   0  0  0  0  0  0  0  0  0  0  0  0
   21.9982   18.7768   23.3363 H   0  0  0  0  0  0  0  0  0  0  0  0
   22.3526   19.9549   22.0485 H   0  0  0  0  0  0  0  0  0  0  0  0
   23.2390   18.4241   22.1223 H   0  0  0  0  0  0  0  0  0  0  0  0
   21.0673   16.7625   21.6867 N   0  3  0  0  0  0  0  0  0  0  0  0
   20.4097   16.3007   21.0520 H   0  0  0  0  0  0  0  0  0  0  0  0
   21.9644   16.2761   21.6037 H   0  0  0  0  0  0  0  0  0  0  0  0
   20.7272   16.6184   22.6404 H   0  0  0  0  0  0  0  0  0  0  0  0
  1  2  1  0  0  0  0
  1  3  1  0  0  0  0
  1  4  1  0  0  0  0
  1  5  1  0  0  0  0
  5  6  1  0  0  0  0
  5  7  1  0  0  0  0
  5  8  1  0  0  0  0
  8  9  1  0  0  0  0
  8 10  1  0  0  0  0
  8 11  1  0  0  0  0
 11 12  1  0  0  0  0
 11 13  1  0  0  0  0
 11 14  1  0  0  0  0
 14 15  1  0  0  0  0
 14 16  1  0  0  0  0
 14 17  1  0  0  0  0
 17 18  1  0  0  0  0
 17 19  1  0  0  0  0
 19 20  1  0  0  0  0
 19 21  1  0  0  0  0
 19 22  1  0  0  0  0
 17 23  1  0  0  0  0
 23 24  1  0  0  0  0
 23 25  1  0  0  0  0
 23 26  1  0  0  0  0
M  END
> <VConfSearch Rank>
634

> <Conf_Id>
127

> <Delta U+W>
3.544

> <U+W>
-26.754

> <U>
27.509

> <W>
-54.263

> <W(PB)>
-56.496

> <W(SA)>
2.232

> <Valence>
6.375

> <Coulomb>
20.014

> <VdW>
1.120

> <VdW6>
-8.976

> <VdW12>
10.096

> <Bond>
0.304

> <Angle>
1.986

> <Pdih>
4.086

> <Idih>
0.000

> <Tether>
0.000

$$$$
VeraChem MOL file


 26 25  0  0  0  0  0  0  0  0999 V2000     
   16.8448   19.2763   24.0849 C   0  0  0  0  0  0  0  0  0  0  0  0
   16.0391   18.5614   24.2960 H   0  0  0  0  0  0  0  0  0  0  0  0
   16.4546   20.2839   24.2788 H   0  0  0  0  0  0  0  0  0  0  0  0
   17.0798   19.2060   23.0173 H   0  0  0  0  0  0  0  0  0  0  0  0
   18.0758   18.9816   24.9736 C   0  0  0  0  0  0  0  0  0  0  0  0
   18.4135   17.9461   24.8278 H   0  0  0  0  0  0  0  0  0  0  0  0
   17.7589   19.0504   26.0237 H   0  0  0  0  0  0  0  0  0  0  0  0
   19.2492   19.9693   24.7461 C   0  0  0  0  0  0  0  0  0  0  0  0
   18.8665   20.9454   24.4176 H   0  0  0  0  0  0  0  0  0  0  0  0
   19.7330   20.1533   25.7154 H   0  0  0  0  0  0  0  0  0  0  0  0
   20.3429   19.4686   23.7675 C   0  0  0  0  0  0  0  0  0  0  0  0
   20.7870   18.5478   24.1684 H   0  0  0  0  0  0  0  0  0  0  0  0
   21.1455   20.2168   23.7541 H   0  0  0  0  0  0  0  0  0  0  0  0
   19.8358   19.2210   22.3217 C   0  0  0  0  0  0  0  0  0  0  0  0
   19.1048   18.4036   22.3317 H   0  0  0  0  0  0  0  0  0  0  0  0
   19.3003   20.1104   21.9644 H   0  0  0  0  0  0  0  0  0  0  0  0
   20.9369   18.8557   21.2980 C   0  0  1  0  0  0  0  0  0  0  0  0
   20.4366   18.6334   20.3503 H   0  0  0  0  0  0  0  0  0  0  0  0
   21.9064   20.0237   21.0449 C   0  0  0  0  0  0  0  0  0  0  0  0
   21.3578   20.9349   20.7762 H   0  0  0  0  0  0  0  0  0  0  0  0
   22.5826   19.7864   20.2145 H   0  0  0  0  0  0  0  0  0  0  0  0
   22.5227   20.2401   21.9253 H   0  0  0  0  0  0  0  0  0  0  0  0
   21.6837   17.6067   21.6780 N   0  3  0  0  0  0  0  0  0  0  0  0
   21.0494   16.8125   21.8011 H   0  0  0  0  0  0  0  0  0  0  0  0
   22.3655   17.3453   20.9602 H   0  0  0  0  0  0  0  0  0  0  0  0
   22.1946   17.7324   22.5553 H   0  0  0  0  0  0  0  0  0  0  0  0
  1  2  1  0  0  0  0
  1  3  1  0  0  0  0
  1  4  1  0  0  0  0
  1  5  1  0  0  0  0
  5  6  1  0  0  0  0
  5  7  1  0  0  0  0
  5  8  1  0  0  0  0
  8  9  1  0  0  0  0
  8 10  1  0  0  0  0
  8 11  1  0  0  0  0
 11 12  1  0  0  0  0
 11 13  1  0  0  0  0
 11 14  1  0  0  0  0
 14 15  1  0  0  0  0
 14 16  1  0  0  0  0
 14 17  1  0  0  0  0
 17 18  1  0  0  0  0
 17 19  1  0  0  0  0
 19 20  1  0  0  0  0
 19 21  1  0  0  0  0
 19 22  1  0  0  0  0
 17 23  1  0  0  0  0
 23 24  1  0  0  0  0
 23 25  1  0  0  0  0
 23 26  1  0  0  0  0
M  END
> <VConfSearch Rank>
635

> <Conf_Id>
131

> <Delta U+W>
3.589

> <U+W>
-26.710

> <U>
27.573

> <W>
-54.283

> <W(PB)>
-56.537

> <W(SA)>
2.254

> <Valence>
6.363

> <Coulomb>
20.026

> <VdW>
1.184

> <VdW6>
-8.939

> <VdW12>
10.123

> <Bond>
0.298

> <Angle>
2.018

> <Pdih>
4.047

> <Idih>
0.000

> <Tether>
0.000

$$$$
VeraChem MOL file


 26 25  0  0  0  0  0  0  0  0999 V2000     
   17.6987   19.7900   24.7731 C   0  0  0  0  0  0  0  0  0  0  0  0
   17.0341   19.2643   24.0754 H   0  0  0  0  0  0  0  0  0  0  0  0
   18.5594   19.1460   24.9907 H   0  0  0  0  0  0  0  0  0  0  0  0
   17.1520   19.9339   25.7140 H   0  0  0  0  0  0  0  0  0  0  0  0
   18.1481   21.1505   24.1973 C   0  0  0  0  0  0  0  0  0  0  0  0
   18.8676   21.6169   24.8847 H   0  0  0  0  0  0  0  0  0  0  0  0
   17.2797   21.8232   24.1644 H   0  0  0  0  0  0  0  0  0  0  0  0
   18.7625   21.0725   22.7762 C   0  0  0  0  0  0  0  0  0  0  0  0
   18.0115   20.7118   22.0601 H   0  0  0  0  0  0  0  0  0  0  0  0
   19.0000   22.0987   22.4631 H   0  0  0  0  0  0  0  0  0  0  0  0
   20.0579   20.2250   22.6743 C   0  0  0  0  0  0  0  0  0  0  0  0
   20.5983   20.2668   23.6287 H   0  0  0  0  0  0  0  0  0  0  0  0
   20.7184   20.6894   21.9290 H   0  0  0  0  0  0  0  0  0  0  0  0
   19.8012   18.7573   22.2412 C   0  0  0  0  0  0  0  0  0  0  0  0
   19.1619   18.2446   22.9684 H   0  0  0  0  0  0  0  0  0  0  0  0
   19.2422   18.7689   21.2963 H   0  0  0  0  0  0  0  0  0  0  0  0
   21.0952   17.9387   22.0304 C   0  0  1  0  0  0  0  0  0  0  0  0
   21.7435   18.4914   21.3435 H   0  0  0  0  0  0  0  0  0  0  0  0
   21.8585   17.7137   23.3482 C   0  0  0  0  0  0  0  0  0  0  0  0
   21.2257   17.2158   24.0934 H   0  0  0  0  0  0  0  0  0  0  0  0
   22.2099   18.6607   23.7735 H   0  0  0  0  0  0  0  0  0  0  0  0
   22.7428   17.0868   23.1801 H   0  0  0  0  0  0  0  0  0  0  0  0
   20.8023   16.6207   21.3686 N   0  3  0  0  0  0  0  0  0  0  0  0
   20.1978   16.0351   21.9510 H   0  0  0  0  0  0  0  0  0  0  0  0
   20.3327   16.7471   20.4674 H   0  0  0  0  0  0  0  0  0  0  0  0
   21.6611   16.0919   21.1919 H   0  0  0  0  0  0  0  0  0  0  0  0
  1  2  1  0  0  0  0
  1  3  1  0  0  0  0
  1  4  1  0  0  0  0
  1  5  1  0  0  0  0
  5  6  1  0  0  0  0
  5  7  1  0  0  0  0
  5  8  1  0  0  0  0
  8  9  1  0  0  0  0
  8 10  1  0  0  0  0
  8 11  1  0  0  0  0
 11 12  1  0  0  0  0
 11 13  1  0  0  0  0
 11 14  1  0  0  0  0
 14 15  1  0  0  0  0
 14 16  1  0  0  0  0
 14 17  1  0  0  0  0
 17 18  1  0  0  0  0
 17 19  1  0  0  0  0
 19 20  1  0  0  0  0
 19 21  1  0  0  0  0
 19 22  1  0  0  0  0
 17 23  1  0  0  0  0
 23 24  1  0  0  0  0
 23 25  1  0  0  0  0
 23 26  1  0  0  0  0
M  END
> <VConfSearch Rank>
636

> <Conf_Id>
80

> <Delta U+W>
3.351

> <U+W>
-26.948

> <U>
27.261

> <W>
-54.209

> <W(PB)>
-56.471

> <W(SA)>
2.263

> <Valence>
6.230

> <Coulomb>
19.945

> <VdW>
1.087

> <VdW6>
-8.618

> <VdW12>
9.704

> <Bond>
0.277

> <Angle>
1.928

> <Pdih>
4.025

> <Idih>
0.000

> <Tether>
0.000

$$$$
VeraChem MOL file


 26 25  0  0  0  0  0  0  0  0999 V2000     
   17.3231   16.9856   22.7479 C   0  0  0  0  0  0  0  0  0  0  0  0
   16.8761   16.2348   23.4122 H   0  0  0  0  0  0  0  0  0  0  0  0
   16.6145   17.1768   21.9316 H   0  0  0  0  0  0  0  0  0  0  0  0
   18.2330   16.5467   22.3197 H   0  0  0  0  0  0  0  0  0  0  0  0
   17.6346   18.2822   23.5288 C   0  0  0  0  0  0  0  0  0  0  0  0
   18.3644   18.0705   24.3208 H   0  0  0  0  0  0  0  0  0  0  0  0
   16.7221   18.6089   24.0467 H   0  0  0  0  0  0  0  0  0  0  0  0
   18.1307   19.4456   22.6310 C   0  0  0  0  0  0  0  0  0  0  0  0
   17.3129   19.7339   21.9564 H   0  0  0  0  0  0  0  0  0  0  0  0
   18.3090   20.3224   23.2637 H   0  0  0  0  0  0  0  0  0  0  0  0
   19.3871   19.1422   21.7664 C   0  0  0  0  0  0  0  0  0  0  0  0
   19.5985   20.0038   21.1184 H   0  0  0  0  0  0  0  0  0  0  0  0
   19.1429   18.3232   21.0772 H   0  0  0  0  0  0  0  0  0  0  0  0
   20.6742   18.7613   22.5508 C   0  0  0  0  0  0  0  0  0  0  0  0
   20.4296   18.2217   23.4725 H   0  0  0  0  0  0  0  0  0  0  0  0
   21.2334   18.0456   21.9339 H   0  0  0  0  0  0  0  0  0  0  0  0
   21.6291   19.9389   22.8627 C   0  0  1  0  0  0  0  0  0  0  0  0
   21.9055   20.4137   21.9162 H   0  0  0  0  0  0  0  0  0  0  0  0
   20.9908   21.0073   23.7656 C   0  0  0  0  0  0  0  0  0  0  0  0
   20.1957   21.5428   23.2354 H   0  0  0  0  0  0  0  0  0  0  0  0
   21.7344   21.7557   24.0660 H   0  0  0  0  0  0  0  0  0  0  0  0
   20.5691   20.5610   24.6748 H   0  0  0  0  0  0  0  0  0  0  0  0
   22.9103   19.4425   23.4738 N   0  3  0  0  0  0  0  0  0  0  0  0
   23.3797   18.7638   22.8674 H   0  0  0  0  0  0  0  0  0  0  0  0
   23.5683   20.2096   23.6377 H   0  0  0  0  0  0  0  0  0  0  0  0
   22.7430   18.9863   24.3745 H   0  0  0  0  0  0  0  0  0  0  0  0
  1  2  1  0  0  0  0
  1  3  1  0  0  0  0
  1  4  1  0  0  0  0
  1  5  1  0  0  0  0
  5  6  1  0  0  0  0
  5  7  1  0  0  0  0
  5  8  1  0  0  0  0
  8  9  1  0  0  0  0
  8 10  1  0  0  0  0
  8 11  1  0  0  0  0
 11 12  1  0  0  0  0
 11 13  1  0  0  0  0
 11 14  1  0  0  0  0
 14 15  1  0  0  0  0
 14 16  1  0  0  0  0
 14 17  1  0  0  0  0
 17 18  1  0  0  0  0
 17 19  1  0  0  0  0
 19 20  1  0  0  0  0
 19 21  1  0  0  0  0
 19 22  1  0  0  0  0
 17 23  1  0  0  0  0
 23 24  1  0  0  0  0
 23 25  1  0  0  0  0
 23 26  1  0  0  0  0
M  END
> <VConfSearch Rank>
637

> <Conf_Id>
136

> <Delta U+W>
4.272

> <U+W>
-26.026

> <U>
28.262

> <W>
-54.288

> <W(PB)>
-56.488

> <W(SA)>
2.200

> <Valence>
7.096

> <Coulomb>
19.990

> <VdW>
1.175

> <VdW6>
-9.404

> <VdW12>
10.580

> <Bond>
0.360

> <Angle>
2.785

> <Pdih>
3.951

> <Idih>
0.000

> <Tether>
0.000

$$$$
VeraChem MOL file


 26 25  0  0  0  0  0  0  0  0999 V2000     
   20.2788   16.3991   23.8894 C   0  0  0  0  0  0  0  0  0  0  0  0
   20.2489   16.7061   22.8367 H   0  0  0  0  0  0  0  0  0  0  0  0
   20.5972   15.3489   23.9153 H   0  0  0  0  0  0  0  0  0  0  0  0
   19.2618   16.4516   24.2991 H   0  0  0  0  0  0  0  0  0  0  0  0
   21.2535   17.2783   24.7030 C   0  0  0  0  0  0  0  0  0  0  0  0
   22.2476   17.2485   24.2355 H   0  0  0  0  0  0  0  0  0  0  0  0
   21.3744   16.8377   25.7025 H   0  0  0  0  0  0  0  0  0  0  0  0
   20.8006   18.7517   24.8666 C   0  0  0  0  0  0  0  0  0  0  0  0
   19.8549   18.7968   25.4241 H   0  0  0  0  0  0  0  0  0  0  0  0
   21.5423   19.2563   25.5013 H   0  0  0  0  0  0  0  0  0  0  0  0
   20.6819   19.5440   23.5385 C   0  0  0  0  0  0  0  0  0  0  0  0
   21.3771   19.1336   22.7931 H   0  0  0  0  0  0  0  0  0  0  0  0
   21.0089   20.5753   23.7262 H   0  0  0  0  0  0  0  0  0  0  0  0
   19.2389   19.5769   22.9710 C   0  0  0  0  0  0  0  0  0  0  0  0
   18.8549   18.5550   22.8761 H   0  0  0  0  0  0  0  0  0  0  0  0
   18.5761   20.0895   23.6807 H   0  0  0  0  0  0  0  0  0  0  0  0
   19.1516   20.2663   21.5920 C   0  0  1  0  0  0  0  0  0  0  0  0
   19.8375   19.7548   20.9096 H   0  0  0  0  0  0  0  0  0  0  0  0
   17.7284   20.1470   21.0239 C   0  0  0  0  0  0  0  0  0  0  0  0
   16.9985   20.6467   21.6730 H   0  0  0  0  0  0  0  0  0  0  0  0
   17.4344   19.0946   20.9260 H   0  0  0  0  0  0  0  0  0  0  0  0
   17.6684   20.6028   20.0279 H   0  0  0  0  0  0  0  0  0  0  0  0
   19.5819   21.7071   21.6390 N   0  3  0  0  0  0  0  0  0  0  0  0
   18.9849   22.2549   22.2641 H   0  0  0  0  0  0  0  0  0  0  0  0
   20.5450   21.7992   21.9729 H   0  0  0  0  0  0  0  0  0  0  0  0
   19.5364   22.1416   20.7130 H   0  0  0  0  0  0  0  0  0  0  0  0
  1  2  1  0  0  0  0
  1  3  1  0  0  0  0
  1  4  1  0  0  0  0
  1  5  1  0  0  0  0
  5  6  1  0  0  0  0
  5  7  1  0  0  0  0
  5  8  1  0  0  0  0
  8  9  1  0  0  0  0
  8 10  1  0  0  0  0
  8 11  1  0  0  0  0
 11 12  1  0  0  0  0
 11 13  1  0  0  0  0
 11 14  1  0  0  0  0
 14 15  1  0  0  0  0
 14 16  1  0  0  0  0
 14 17  1  0  0  0  0
 17 18  1  0  0  0  0
 17 19  1  0  0  0  0
 19 20  1  0  0  0  0
 19 21  1  0  0  0  0
 19 22  1  0  0  0  0
 17 23  1  0  0  0  0
 23 24  1  0  0  0  0
 23 25  1  0  0  0  0
 23 26  1  0  0  0  0
M  END
> <VConfSearch Rank>
638

> <Conf_Id>
124

> <Delta U+W>
3.001

> <U+W>
-27.298

> <U>
26.787

> <W>
-54.085

> <W(PB)>
-56.347

> <W(SA)>
2.262

> <Valence>
5.742

> <Coulomb>
20.023

> <VdW>
1.022

> <VdW6>
-8.392

> <VdW12>
9.414

> <Bond>
0.261

> <Angle>
1.576

> <Pdih>
3.904

> <Idih>
0.000

> <Tether>
0.000

$$$$
VeraChem MOL file


 26 25  0  0  0  0  0  0  0  0999 V2000     
   18.8158   21.6470   21.2232 C   0  0  0  0  0  0  0  0  0  0  0  0
   17.8051   21.5203   20.8140 H   0  0  0  0  0  0  0  0  0  0  0  0
   19.2077   22.6025   20.8513 H   0  0  0  0  0  0  0  0  0  0  0  0
   19.4467   20.8493   20.8163 H   0  0  0  0  0  0  0  0  0  0  0  0
   18.7899   21.6388   22.7696 C   0  0  0  0  0  0  0  0  0  0  0  0
   18.1660   22.4807   23.1012 H   0  0  0  0  0  0  0  0  0  0  0  0
   19.7950   21.8322   23.1696 H   0  0  0  0  0  0  0  0  0  0  0  0
   18.2126   20.3311   23.3702 C   0  0  0  0  0  0  0  0  0  0  0  0
   17.6534   20.5916   24.2795 H   0  0  0  0  0  0  0  0  0  0  0  0
   17.4742   19.8914   22.6857 H   0  0  0  0  0  0  0  0  0  0  0  0
   19.2735   19.2711   23.7643 C   0  0  0  0  0  0  0  0  0  0  0  0
   18.7520   18.4363   24.2503 H   0  0  0  0  0  0  0  0  0  0  0  0
   19.9405   19.7006   24.5236 H   0  0  0  0  0  0  0  0  0  0  0  0
   20.1100   18.7361   22.5720 C   0  0  0  0  0  0  0  0  0  0  0  0
   19.4354   18.4464   21.7559 H   0  0  0  0  0  0  0  0  0  0  0  0
   20.7410   19.5435   22.1804 H   0  0  0  0  0  0  0  0  0  0  0  0
   21.0223   17.5323   22.9065 C   0  0  1  0  0  0  0  0  0  0  0  0
   21.5527   17.2616   21.9882 H   0  0  0  0  0  0  0  0  0  0  0  0
   22.0789   17.8860   23.9677 C   0  0  0  0  0  0  0  0  0  0  0  0
   21.6217   18.0820   24.9449 H   0  0  0  0  0  0  0  0  0  0  0  0
   22.6482   18.7753   23.6697 H   0  0  0  0  0  0  0  0  0  0  0  0
   22.7912   17.0609   24.0901 H   0  0  0  0  0  0  0  0  0  0  0  0
   20.2406   16.3120   23.3096 N   0  3  0  0  0  0  0  0  0  0  0  0
   20.8556   15.5082   23.4647 H   0  0  0  0  0  0  0  0  0  0  0  0
   19.7211   16.4721   24.1759 H   0  0  0  0  0  0  0  0  0  0  0  0
   19.5641   16.0445   22.5891 H   0  0  0  0  0  0  0  0  0  0  0  0
  1  2  1  0  0  0  0
  1  3  1  0  0  0  0
  1  4  1  0  0  0  0
  1  5  1  0  0  0  0
  5  6  1  0  0  0  0
  5  7  1  0  0  0  0
  5  8  1  0  0  0  0
  8  9  1  0  0  0  0
  8 10  1  0  0  0  0
  8 11  1  0  0  0  0
 11 12  1  0  0  0  0
 11 13  1  0  0  0  0
 11 14  1  0  0  0  0
 14 15  1  0  0  0  0
 14 16  1  0  0  0  0
 14 17  1  0  0  0  0
 17 18  1  0  0  0  0
 17 19  1  0  0  0  0
 19 20  1  0  0  0  0
 19 21  1  0  0  0  0
 19 22  1  0  0  0  0
 17 23  1  0  0  0  0
 23 24  1  0  0  0  0
 23 25  1  0  0  0  0
 23 26  1  0  0  0  0
M  END
> <VConfSearch Rank>
639

> <Conf_Id>
105

> <Delta U+W>
3.442

> <U+W>
-26.857

> <U>
27.313

> <W>
-54.169

> <W(PB)>
-56.414

> <W(SA)>
2.245

> <Valence>
6.229

> <Coulomb>
19.943

> <VdW>
1.140

> <VdW6>
-9.001

> <VdW12>
10.140

> <Bond>
0.294

> <Angle>
1.969

> <Pdih>
3.967

> <Idih>
0.000

> <Tether>
0.000

$$$$
VeraChem MOL file


 26 25  0  0  0  0  0  0  0  0999 V2000     
   18.6664   21.9255   23.4430 C   0  0  0  0  0  0  0  0  0  0  0  0
   17.5813   22.0162   23.5821 H   0  0  0  0  0  0  0  0  0  0  0  0
   19.0777   22.9404   23.3671 H   0  0  0  0  0  0  0  0  0  0  0  0
   18.8430   21.4245   22.4851 H   0  0  0  0  0  0  0  0  0  0  0  0
   19.3130   21.1679   24.6262 C   0  0  0  0  0  0  0  0  0  0  0  0
   19.1237   21.7465   25.5412 H   0  0  0  0  0  0  0  0  0  0  0  0
   20.4052   21.1371   24.5090 H   0  0  0  0  0  0  0  0  0  0  0  0
   18.7513   19.7363   24.8241 C   0  0  0  0  0  0  0  0  0  0  0  0
   18.7365   19.5218   25.9017 H   0  0  0  0  0  0  0  0  0  0  0  0
   17.7025   19.6910   24.4998 H   0  0  0  0  0  0  0  0  0  0  0  0
   19.5722   18.6139   24.1378 C   0  0  0  0  0  0  0  0  0  0  0  0
   19.1260   17.6472   24.4097 H   0  0  0  0  0  0  0  0  0  0  0  0
   20.5895   18.6108   24.5515 H   0  0  0  0  0  0  0  0  0  0  0  0
   19.6325   18.7226   22.5942 C   0  0  0  0  0  0  0  0  0  0  0  0
   18.6157   18.8718   22.2072 H   0  0  0  0  0  0  0  0  0  0  0  0
   20.2190   19.6035   22.3052 H   0  0  0  0  0  0  0  0  0  0  0  0
   20.2406   17.4693   21.9286 C   0  0  1  0  0  0  0  0  0  0  0  0
   19.6562   16.5981   22.2401 H   0  0  0  0  0  0  0  0  0  0  0  0
   20.1578   17.5837   20.3980 C   0  0  0  0  0  0  0  0  0  0  0  0
   20.7320   18.4442   20.0324 H   0  0  0  0  0  0  0  0  0  0  0  0
   19.1172   17.7040   20.0719 H   0  0  0  0  0  0  0  0  0  0  0  0
   20.5540   16.6799   19.9191 H   0  0  0  0  0  0  0  0  0  0  0  0
   21.6585   17.2176   22.3641 N   0  3  0  0  0  0  0  0  0  0  0  0
   21.7219   17.0972   23.3785 H   0  0  0  0  0  0  0  0  0  0  0  0
   22.0382   16.3710   21.9311 H   0  0  0  0  0  0  0  0  0  0  0  0
   22.2719   17.9951   22.1065 H   0  0  0  0  0  0  0  0  0  0  0  0
  1  2  1  0  0  0  0
  1  3  1  0  0  0  0
  1  4  1  0  0  0  0
  1  5  1  0  0  0  0
  5  6  1  0  0  0  0
  5  7  1  0  0  0  0
  5  8  1  0  0  0  0
  8  9  1  0  0  0  0
  8 10  1  0  0  0  0
  8 11  1  0  0  0  0
 11 12  1  0  0  0  0
 11 13  1  0  0  0  0
 11 14  1  0  0  0  0
 14 15  1  0  0  0  0
 14 16  1  0  0  0  0
 14 17  1  0  0  0  0
 17 18  1  0  0  0  0
 17 19  1  0  0  0  0
 19 20  1  0  0  0  0
 19 21  1  0  0  0  0
 19 22  1  0  0  0  0
 17 23  1  0  0  0  0
 23 24  1  0  0  0  0
 23 25  1  0  0  0  0
 23 26  1  0  0  0  0
M  END
> <VConfSearch Rank>
640

> <Conf_Id>
107

> <Delta U+W>
2.995

> <U+W>
-27.304

> <U>
26.796

> <W>
-54.100

> <W(PB)>
-56.404

> <W(SA)>
2.304

> <Valence>
5.706

> <Coulomb>
20.107

> <VdW>
0.982

> <VdW6>
-8.396

> <VdW12>
9.378

> <Bond>
0.254

> <Angle>
1.644

> <Pdih>
3.808

> <Idih>
0.000

> <Tether>
0.000

$$$$
VeraChem MOL file


 26 25  0  0  0  0  0  0  0  0999 V2000     
   17.3363   19.7920   26.2485 C   0  0  0  0  0  0  0  0  0  0  0  0
   17.6929   18.9619   26.8722 H   0  0  0  0  0  0  0  0  0  0  0  0
   17.0760   20.6256   26.9136 H   0  0  0  0  0  0  0  0  0  0  0  0
   16.4192   19.4679   25.7396 H   0  0  0  0  0  0  0  0  0  0  0  0
   18.4131   20.2231   25.2302 C   0  0  0  0  0  0  0  0  0  0  0  0
   19.3047   20.5735   25.7689 H   0  0  0  0  0  0  0  0  0  0  0  0
   18.0407   21.0756   24.6451 H   0  0  0  0  0  0  0  0  0  0  0  0
   18.7981   19.0669   24.2808 C   0  0  0  0  0  0  0  0  0  0  0  0
   19.1663   18.2163   24.8711 H   0  0  0  0  0  0  0  0  0  0  0  0
   17.9034   18.7189   23.7460 H   0  0  0  0  0  0  0  0  0  0  0  0
   19.8768   19.4944   23.2600 C   0  0  0  0  0  0  0  0  0  0  0  0
   20.7721   19.8388   23.7961 H   0  0  0  0  0  0  0  0  0  0  0  0
   19.5037   20.3485   22.6793 H   0  0  0  0  0  0  0  0  0  0  0  0
   20.2594   18.3341   22.3092 C   0  0  0  0  0  0  0  0  0  0  0  0
   20.5774   17.4724   22.9112 H   0  0  0  0  0  0  0  0  0  0  0  0
   19.3759   18.0115   21.7424 H   0  0  0  0  0  0  0  0  0  0  0  0
   21.3963   18.7050   21.3323 C   0  0  1  0  0  0  0  0  0  0  0  0
   22.2552   19.0451   21.9191 H   0  0  0  0  0  0  0  0  0  0  0  0
   21.8252   17.4731   20.5191 C   0  0  0  0  0  0  0  0  0  0  0  0
   20.9969   17.0921   19.9088 H   0  0  0  0  0  0  0  0  0  0  0  0
   22.1608   16.6658   21.1820 H   0  0  0  0  0  0  0  0  0  0  0  0
   22.6578   17.7207   19.8491 H   0  0  0  0  0  0  0  0  0  0  0  0
   21.0221   19.8378   20.4157 N   0  3  0  0  0  0  0  0  0  0  0  0
   20.2179   19.5951   19.8312 H   0  0  0  0  0  0  0  0  0  0  0  0
   20.7777   20.6804   20.9426 H   0  0  0  0  0  0  0  0  0  0  0  0
   21.7938   20.0823   19.7887 H   0  0  0  0  0  0  0  0  0  0  0  0
  1  2  1  0  0  0  0
  1  3  1  0  0  0  0
  1  4  1  0  0  0  0
  1  5  1  0  0  0  0
  5  6  1  0  0  0  0
  5  7  1  0  0  0  0
  5  8  1  0  0  0  0
  8  9  1  0  0  0  0
  8 10  1  0  0  0  0
  8 11  1  0  0  0  0
 11 12  1  0  0  0  0
 11 13  1  0  0  0  0
 11 14  1  0  0  0  0
 14 15  1  0  0  0  0
 14 16  1  0  0  0  0
 14 17  1  0  0  0  0
 17 18  1  0  0  0  0
 17 19  1  0  0  0  0
 19 20  1  0  0  0  0
 19 21  1  0  0  0  0
 19 22  1  0  0  0  0
 17 23  1  0  0  0  0
 23 24  1  0  0  0  0
 23 25  1  0  0  0  0
 23 26  1  0  0  0  0
M  END
> <VConfSearch Rank>
641

> <Conf_Id>
122

> <Delta U+W>
0.000

> <U+W>
-30.299

> <U>
23.517

> <W>
-53.816

> <W(PB)>
-56.162

> <W(SA)>
2.346

> <Valence>
2.737

> <Coulomb>
19.862

> <VdW>
0.919

> <VdW6>
-6.793

> <VdW12>
7.712

> <Bond>
0.171

> <Angle>
0.873

> <Pdih>
1.693

> <Idih>
0.000

> <Tether>
0.000

$$$$
VeraChem MOL file


 26 25  0  0  0  0  0  0  0  0999 V2000     
   16.3933   16.9725   21.8350 C   0  0  0  0  0  0  0  0  0  0  0  0
   15.9295   16.0064   22.0729 H   0  0  0  0  0  0  0  0  0  0  0  0
   15.6557   17.7597   22.0391 H   0  0  0  0  0  0  0  0  0  0  0  0
   16.6166   16.9835   20.7602 H   0  0  0  0  0  0  0  0  0  0  0  0
   17.6742   17.1824   22.6700 C   0  0  0  0  0  0  0  0  0  0  0  0
   18.3780   16.3622   22.4701 H   0  0  0  0  0  0  0  0  0  0  0  0
   17.4247   17.1325   23.7391 H   0  0  0  0  0  0  0  0  0  0  0  0
   18.3475   18.5365   22.3541 C   0  0  0  0  0  0  0  0  0  0  0  0
   18.5934   18.5824   21.2841 H   0  0  0  0  0  0  0  0  0  0  0  0
   17.6385   19.3522   22.5525 H   0  0  0  0  0  0  0  0  0  0  0  0
   19.6307   18.7505   23.1887 C   0  0  0  0  0  0  0  0  0  0  0  0
   20.3276   17.9260   22.9893 H   0  0  0  0  0  0  0  0  0  0  0  0
   19.3831   18.7092   24.2586 H   0  0  0  0  0  0  0  0  0  0  0  0
   20.3056   20.1066   22.8666 C   0  0  0  0  0  0  0  0  0  0  0  0
   20.6135   20.1261   21.8127 H   0  0  0  0  0  0  0  0  0  0  0  0
   19.5613   20.9047   22.9879 H   0  0  0  0  0  0  0  0  0  0  0  0
   21.5188   20.4289   23.7689 C   0  0  1  0  0  0  0  0  0  0  0  0
   21.1973   20.3622   24.8129 H   0  0  0  0  0  0  0  0  0  0  0  0
   22.6811   19.4428   23.5533 C   0  0  0  0  0  0  0  0  0  0  0  0
   22.9980   19.4264   22.5030 H   0  0  0  0  0  0  0  0  0  0  0  0
   22.3994   18.4242   23.8437 H   0  0  0  0  0  0  0  0  0  0  0  0
   23.5464   19.7261   24.1650 H   0  0  0  0  0  0  0  0  0  0  0  0
   21.9898   21.8415   23.5600 N   0  3  0  0  0  0  0  0  0  0  0  0
   22.3136   21.9904   22.6006 H   0  0  0  0  0  0  0  0  0  0  0  0
   21.2436   22.5189   23.7414 H   0  0  0  0  0  0  0  0  0  0  0  0
   22.7681   22.0726   24.1841 H   0  0  0  0  0  0  0  0  0  0  0  0
  1  2  1  0  0  0  0
  1  3  1  0  0  0  0
  1  4  1  0  0  0  0
  1  5  1  0  0  0  0
  5  6  1  0  0  0  0
  5  7  1  0  0  0  0
  5  8  1  0  0  0  0
  8  9  1  0  0  0  0
  8 10  1  0  0  0  0
  8 11  1  0  0  0  0
 11 12  1  0  0  0  0
 11 13  1  0  0  0  0
 11 14  1  0  0  0  0
 14 15  1  0  0  0  0
 14 16  1  0  0  0  0
 14 17  1  0  0  0  0
 17 18  1  0  0  0  0
 17 19  1  0  0  0  0
 19 20  1  0  0  0  0
 19 21  1  0  0  0  0
 19 22  1  0  0  0  0
 17 23  1  0  0  0  0
 23 24  1  0  0  0  0
 23 25  1  0  0  0  0
 23 26  1  0  0  0  0
M  END
> <VConfSearch Rank>
642

> <Conf_Id>
54

> <Delta U+W>
0.453

> <U+W>
-29.845

> <U>
23.817

> <W>
-53.663

> <W(PB)>
-56.021

> <W(SA)>
2.358

> <Valence>
3.277

> <Coulomb>
19.492

> <VdW>
1.049

> <VdW6>
-6.949

> <VdW12>
7.998

> <Bond>
0.183

> <Angle>
1.152

> <Pdih>
1.942

> <Idih>
0.000

> <Tether>
0.000

$$$$
VeraChem MOL file


 26 25  0  0  0  0  0  0  0  0999 V2000     
   19.9280   22.0863   25.0843 C   0  0  0  0  0  0  0  0  0  0  0  0
   20.6322   21.5922   25.7661 H   0  0  0  0  0  0  0  0  0  0  0  0
   20.4948   22.4870   24.2352 H   0  0  0  0  0  0  0  0  0  0  0  0
   19.4886   22.9394   25.6174 H   0  0  0  0  0  0  0  0  0  0  0  0
   18.8215   21.1097   24.6240 C   0  0  0  0  0  0  0  0  0  0  0  0
   18.1497   21.6160   23.9168 H   0  0  0  0  0  0  0  0  0  0  0  0
   18.2059   20.8433   25.4946 H   0  0  0  0  0  0  0  0  0  0  0  0
   19.3686   19.8081   23.9891 C   0  0  0  0  0  0  0  0  0  0  0  0
   20.0625   19.3233   24.6897 H   0  0  0  0  0  0  0  0  0  0  0  0
   18.5202   19.1269   23.8538 H   0  0  0  0  0  0  0  0  0  0  0  0
   20.0656   20.0343   22.6237 C   0  0  0  0  0  0  0  0  0  0  0  0
   20.8318   20.8122   22.7316 H   0  0  0  0  0  0  0  0  0  0  0  0
   19.3354   20.4246   21.9015 H   0  0  0  0  0  0  0  0  0  0  0  0
   20.7584   18.7793   22.0294 C   0  0  0  0  0  0  0  0  0  0  0  0
   21.2917   19.1051   21.1263 H   0  0  0  0  0  0  0  0  0  0  0  0
   21.5323   18.4129   22.7167 H   0  0  0  0  0  0  0  0  0  0  0  0
   19.8010   17.6249   21.6485 C   0  0  1  0  0  0  0  0  0  0  0  0
   18.8860   18.0577   21.2326 H   0  0  0  0  0  0  0  0  0  0  0  0
   20.4412   16.7300   20.5741 C   0  0  0  0  0  0  0  0  0  0  0  0
   19.7610   15.9180   20.2887 H   0  0  0  0  0  0  0  0  0  0  0  0
   21.3757   16.2826   20.9355 H   0  0  0  0  0  0  0  0  0  0  0  0
   20.6658   17.3065   19.6681 H   0  0  0  0  0  0  0  0  0  0  0  0
   19.3992   16.7857   22.8310 N   0  3  0  0  0  0  0  0  0  0  0  0
   18.9615   17.3514   23.5614 H   0  0  0  0  0  0  0  0  0  0  0  0
   18.7314   16.0573   22.5627 H   0  0  0  0  0  0  0  0  0  0  0  0
   20.2090   16.3188   23.2475 H   0  0  0  0  0  0  0  0  0  0  0  0
  1  2  1  0  0  0  0
  1  3  1  0  0  0  0
  1  4  1  0  0  0  0
  1  5  1  0  0  0  0
  5  6  1  0  0  0  0
  5  7  1  0  0  0  0
  5  8  1  0  0  0  0
  8  9  1  0  0  0  0
  8 10  1  0  0  0  0
  8 11  1  0  0  0  0
 11 12  1  0  0  0  0
 11 13  1  0  0  0  0
 11 14  1  0  0  0  0
 14 15  1  0  0  0  0
 14 16  1  0  0  0  0
 14 17  1  0  0  0  0
 17 18  1  0  0  0  0
 17 19  1  0  0  0  0
 19 20  1  0  0  0  0
 19 21  1  0  0  0  0
 19 22  1  0  0  0  0
 17 23  1  0  0  0  0
 23 24  1  0  0  0  0
 23 25  1  0  0  0  0
 23 26  1  0  0  0  0
M  END
> <VConfSearch Rank>
643

> <Conf_Id>
110

> <Delta U+W>
3.764

> <U+W>
-26.535

> <U>
27.400

> <W>
-53.935

> <W(PB)>
-56.238

> <W(SA)>
2.303

> <Valence>
5.205

> <Coulomb>
21.096

> <VdW>
1.098

> <VdW6>
-8.389

> <VdW12>
9.488

> <Bond>
0.270

> <Angle>
1.912

> <Pdih>
3.023

> <Idih>
0.000

> <Tether>
0.000

$$$$
VeraChem MOL file


 26 25  0  0  0  0  0  0  0  0999 V2000     
   18.9503   21.3100   25.8054 C   0  0  0  0  0  0  0  0  0  0  0  0
   19.1896   21.6895   26.8072 H   0  0  0  0  0  0  0  0  0  0  0  0
   19.3598   22.0210   25.0771 H   0  0  0  0  0  0  0  0  0  0  0  0
   17.8575   21.3016   25.7018 H   0  0  0  0  0  0  0  0  0  0  0  0
   19.5381   19.8941   25.6089 C   0  0  0  0  0  0  0  0  0  0  0  0
   19.1948   19.2509   26.4312 H   0  0  0  0  0  0  0  0  0  0  0  0
   20.6335   19.9349   25.6876 H   0  0  0  0  0  0  0  0  0  0  0  0
   19.1345   19.2405   24.2653 C   0  0  0  0  0  0  0  0  0  0  0  0
   19.4970   18.2055   24.2628 H   0  0  0  0  0  0  0  0  0  0  0  0
   18.0393   19.1776   24.2052 H   0  0  0  0  0  0  0  0  0  0  0  0
   19.6777   19.9968   23.0255 C   0  0  0  0  0  0  0  0  0  0  0  0
   20.7542   20.1888   23.1331 H   0  0  0  0  0  0  0  0  0  0  0  0
   19.1962   20.9826   22.9806 H   0  0  0  0  0  0  0  0  0  0  0  0
   19.3987   19.2621   21.6873 C   0  0  0  0  0  0  0  0  0  0  0  0
   18.5036   18.6324   21.7775 H   0  0  0  0  0  0  0  0  0  0  0  0
   19.1546   20.0216   20.9328 H   0  0  0  0  0  0  0  0  0  0  0  0
   20.5857   18.4309   21.1432 C   0  0  1  0  0  0  0  0  0  0  0  0
   21.4431   19.1006   21.0244 H   0  0  0  0  0  0  0  0  0  0  0  0
   20.9978   17.2884   22.0869 C   0  0  0  0  0  0  0  0  0  0  0  0
   20.1489   16.6298   22.3085 H   0  0  0  0  0  0  0  0  0  0  0  0
   21.3913   17.6810   23.0317 H   0  0  0  0  0  0  0  0  0  0  0  0
   21.7913   16.6806   21.6351 H   0  0  0  0  0  0  0  0  0  0  0  0
   20.2816   17.8891   19.7739 N   0  3  0  0  0  0  0  0  0  0  0  0
   20.0519   18.6378   19.1141 H   0  0  0  0  0  0  0  0  0  0  0  0
   21.0806   17.3782   19.3878 H   0  0  0  0  0  0  0  0  0  0  0  0
   19.4878   17.2434   19.7947 H   0  0  0  0  0  0  0  0  0  0  0  0
  1  2  1  0  0  0  0
  1  3  1  0  0  0  0
  1  4  1  0  0  0  0
  1  5  1  0  0  0  0
  5  6  1  0  0  0  0
  5  7  1  0  0  0  0
  5  8  1  0  0  0  0
  8  9  1  0  0  0  0
  8 10  1  0  0  0  0
  8 11  1  0  0  0  0
 11 12  1  0  0  0  0
 11 13  1  0  0  0  0
 11 14  1  0  0  0  0
 14 15  1  0  0  0  0
 14 16  1  0  0  0  0
 14 17  1  0  0  0  0
 17 18  1  0  0  0  0
 17 19  1  0  0  0  0
 19 20  1  0  0  0  0
 19 21  1  0  0  0  0
 19 22  1  0  0  0  0
 17 23  1  0  0  0  0
 23 24  1  0  0  0  0
 23 25  1  0  0  0  0
 23 26  1  0  0  0  0
M  END
> <VConfSearch Rank>
644

> <Conf_Id>
34

> <Delta U+W>
3.568

> <U+W>
-26.731

> <U>
27.221

> <W>
-53.952

> <W(PB)>
-56.213

> <W(SA)>
2.261

> <Valence>
6.368

> <Coulomb>
19.698

> <VdW>
1.155

> <VdW6>
-8.532

> <VdW12>
9.687

> <Bond>
0.272

> <Angle>
1.847

> <Pdih>
4.248

> <Idih>
0.000

> <Tether>
0.000

$$$$
VeraChem MOL file


 26 25  0  0  0  0  0  0  0  0999 V2000     
   21.9936   18.3657   26.3123 C   0  0  0  0  0  0  0  0  0  0  0  0
   21.1843   18.4685   27.0469 H   0  0  0  0  0  0  0  0  0  0  0  0
   22.1748   17.2951   26.1506 H   0  0  0  0  0  0  0  0  0  0  0  0
   22.9025   18.7990   26.7495 H   0  0  0  0  0  0  0  0  0  0  0  0
   21.6346   19.0737   24.9886 C   0  0  0  0  0  0  0  0  0  0  0  0
   22.4757   18.9829   24.2870 H   0  0  0  0  0  0  0  0  0  0  0  0
   21.4929   20.1473   25.1764 H   0  0  0  0  0  0  0  0  0  0  0  0
   20.3576   18.4822   24.3517 C   0  0  0  0  0  0  0  0  0  0  0  0
   20.5037   17.4086   24.1685 H   0  0  0  0  0  0  0  0  0  0  0  0
   19.5206   18.5730   25.0579 H   0  0  0  0  0  0  0  0  0  0  0  0
   19.9944   19.1887   23.0259 C   0  0  0  0  0  0  0  0  0  0  0  0
   20.8354   19.0955   22.3262 H   0  0  0  0  0  0  0  0  0  0  0  0
   19.8553   20.2605   23.2189 H   0  0  0  0  0  0  0  0  0  0  0  0
   18.7099   18.5921   22.3935 C   0  0  0  0  0  0  0  0  0  0  0  0
   18.8459   17.5118   22.2521 H   0  0  0  0  0  0  0  0  0  0  0  0
   17.8743   18.7014   23.0975 H   0  0  0  0  0  0  0  0  0  0  0  0
   18.3014   19.2143   21.0372 C   0  0  1  0  0  0  0  0  0  0  0  0
   17.4068   18.6856   20.6937 H   0  0  0  0  0  0  0  0  0  0  0  0
   17.9386   20.7038   21.1695 C   0  0  0  0  0  0  0  0  0  0  0  0
   18.8145   21.3145   21.4184 H   0  0  0  0  0  0  0  0  0  0  0  0
   17.1818   20.8531   21.9497 H   0  0  0  0  0  0  0  0  0  0  0  0
   17.5236   21.0824   20.2274 H   0  0  0  0  0  0  0  0  0  0  0  0
   19.3429   19.0058   19.9723 N   0  3  0  0  0  0  0  0  0  0  0  0
   19.0299   19.3674   19.0669 H   0  0  0  0  0  0  0  0  0  0  0  0
   20.2163   19.4833   20.2078 H   0  0  0  0  0  0  0  0  0  0  0  0
   19.5582   18.0126   19.8468 H   0  0  0  0  0  0  0  0  0  0  0  0
  1  2  1  0  0  0  0
  1  3  1  0  0  0  0
  1  4  1  0  0  0  0
  1  5  1  0  0  0  0
  5  6  1  0  0  0  0
  5  7  1  0  0  0  0
  5  8  1  0  0  0  0
  8  9  1  0  0  0  0
  8 10  1  0  0  0  0
  8 11  1  0  0  0  0
 11 12  1  0  0  0  0
 11 13  1  0  0  0  0
 11 14  1  0  0  0  0
 14 15  1  0  0  0  0
 14 16  1  0  0  0  0
 14 17  1  0  0  0  0
 17 18  1  0  0  0  0
 17 19  1  0  0  0  0
 19 20  1  0  0  0  0
 19 21  1  0  0  0  0
 19 22  1  0  0  0  0
 17 23  1  0  0  0  0
 23 24  1  0  0  0  0
 23 25  1  0  0  0  0
 23 26  1  0  0  0  0
M  END
> <VConfSearch Rank>
645

> <Conf_Id>
132

> <Delta U+W>
0.363

> <U+W>
-29.936

> <U>
24.060

> <W>
-53.996

> <W(PB)>
-56.327

> <W(SA)>
2.332

> <Valence>
3.249

> <Coulomb>
19.781

> <VdW>
1.030

> <VdW6>
-7.421

> <VdW12>
8.451

> <Bond>
0.207

> <Angle>
1.205

> <Pdih>
1.837

> <Idih>
0.000

> <Tether>
0.000

$$$$
VeraChem MOL file


 26 25  0  0  0  0  0  0  0  0999 V2000     
   17.0421   19.2735   25.6938 C   0  0  0  0  0  0  0  0  0  0  0  0
   16.3810   18.4364   25.9531 H   0  0  0  0  0  0  0  0  0  0  0  0
   17.4968   19.6434   26.6220 H   0  0  0  0  0  0  0  0  0  0  0  0
   16.4213   20.0757   25.2737 H   0  0  0  0  0  0  0  0  0  0  0  0
   18.1220   18.8234   24.6870 C   0  0  0  0  0  0  0  0  0  0  0  0
   17.6281   18.4227   23.7921 H   0  0  0  0  0  0  0  0  0  0  0  0
   18.7068   18.0020   25.1239 H   0  0  0  0  0  0  0  0  0  0  0  0
   19.0638   19.9892   24.3028 C   0  0  0  0  0  0  0  0  0  0  0  0
   18.4866   20.7873   23.8160 H   0  0  0  0  0  0  0  0  0  0  0  0
   19.4801   20.4270   25.2207 H   0  0  0  0  0  0  0  0  0  0  0  0
   20.2385   19.5643   23.3873 C   0  0  0  0  0  0  0  0  0  0  0  0
   20.8141   18.7718   23.8836 H   0  0  0  0  0  0  0  0  0  0  0  0
   20.9148   20.4230   23.2873 H   0  0  0  0  0  0  0  0  0  0  0  0
   19.7832   19.0940   21.9786 C   0  0  0  0  0  0  0  0  0  0  0  0
   19.1327   18.2164   22.0759 H   0  0  0  0  0  0  0  0  0  0  0  0
   19.1689   19.8769   21.5146 H   0  0  0  0  0  0  0  0  0  0  0  0
   20.9340   18.7262   21.0120 C   0  0  1  0  0  0  0  0  0  0  0  0
   20.4761   18.3624   20.0869 H   0  0  0  0  0  0  0  0  0  0  0  0
   21.8016   19.9446   20.6504 C   0  0  0  0  0  0  0  0  0  0  0  0
   22.3764   20.3051   21.5115 H   0  0  0  0  0  0  0  0  0  0  0  0
   21.1806   20.7700   20.2808 H   0  0  0  0  0  0  0  0  0  0  0  0
   22.5146   19.6852   19.8582 H   0  0  0  0  0  0  0  0  0  0  0  0
   21.7804   17.5961   21.5304 N   0  3  0  0  0  0  0  0  0  0  0  0
   21.2164   16.7650   21.7294 H   0  0  0  0  0  0  0  0  0  0  0  0
   22.4974   17.3239   20.8521 H   0  0  0  0  0  0  0  0  0  0  0  0
   22.2598   17.8578   22.3953 H   0  0  0  0  0  0  0  0  0  0  0  0
  1  2  1  0  0  0  0
  1  3  1  0  0  0  0
  1  4  1  0  0  0  0
  1  5  1  0  0  0  0
  5  6  1  0  0  0  0
  5  7  1  0  0  0  0
  5  8  1  0  0  0  0
  8  9  1  0  0  0  0
  8 10  1  0  0  0  0
  8 11  1  0  0  0  0
 11 12  1  0  0  0  0
 11 13  1  0  0  0  0
 11 14  1  0  0  0  0
 14 15  1  0  0  0  0
 14 16  1  0  0  0  0
 14 17  1  0  0  0  0
 17 18  1  0  0  0  0
 17 19  1  0  0  0  0
 19 20  1  0  0  0  0
 19 21  1  0  0  0  0
 19 22  1  0  0  0  0
 17 23  1  0  0  0  0
 23 24  1  0  0  0  0
 23 25  1  0  0  0  0
 23 26  1  0  0  0  0
M  END
> <VConfSearch Rank>
646

> <Conf_Id>
46

> <Delta U+W>
1.114

> <U+W>
-29.185

> <U>
24.990

> <W>
-54.175

> <W(PB)>
-56.455

> <W(SA)>
2.279

> <Valence>
3.862

> <Coulomb>
19.956

> <VdW>
1.172

> <VdW6>
-8.054

> <VdW12>
9.226

> <Bond>
0.258

> <Angle>
1.499

> <Pdih>
2.106

> <Idih>
0.000

> <Tether>
0.000

$$$$
VeraChem MOL file


 26 25  0  0  0  0  0  0  0  0999 V2000     
   16.7477   18.1889   24.6863 C   0  0  0  0  0  0  0  0  0  0  0  0
   16.9169   17.2957   24.0725 H   0  0  0  0  0  0  0  0  0  0  0  0
   17.2044   18.0224   25.6705 H   0  0  0  0  0  0  0  0  0  0  0  0
   15.6642   18.2877   24.8316 H   0  0  0  0  0  0  0  0  0  0  0  0
   17.3206   19.4578   24.0149 C   0  0  0  0  0  0  0  0  0  0  0  0
   17.0149   20.3355   24.6014 H   0  0  0  0  0  0  0  0  0  0  0  0
   16.8735   19.5833   23.0189 H   0  0  0  0  0  0  0  0  0  0  0  0
   18.8642   19.4524   23.8999 C   0  0  0  0  0  0  0  0  0  0  0  0
   19.1810   20.4381   23.5350 H   0  0  0  0  0  0  0  0  0  0  0  0
   19.3052   19.3363   24.8995 H   0  0  0  0  0  0  0  0  0  0  0  0
   19.4080   18.3484   22.9576 C   0  0  0  0  0  0  0  0  0  0  0  0
   18.9467   18.4449   21.9659 H   0  0  0  0  0  0  0  0  0  0  0  0
   19.1083   17.3631   23.3374 H   0  0  0  0  0  0  0  0  0  0  0  0
   20.9531   18.3613   22.8289 C   0  0  0  0  0  0  0  0  0  0  0  0
   21.3911   18.1738   23.8183 H   0  0  0  0  0  0  0  0  0  0  0  0
   21.2650   17.5226   22.1923 H   0  0  0  0  0  0  0  0  0  0  0  0
   21.5356   19.6754   22.2613 C   0  0  1  0  0  0  0  0  0  0  0  0
   21.2387   20.4974   22.9192 H   0  0  0  0  0  0  0  0  0  0  0  0
   23.0711   19.6133   22.2379 C   0  0  0  0  0  0  0  0  0  0  0  0
   23.4924   20.5583   21.8734 H   0  0  0  0  0  0  0  0  0  0  0  0
   23.4263   18.8063   21.5849 H   0  0  0  0  0  0  0  0  0  0  0  0
   23.4693   19.4381   23.2452 H   0  0  0  0  0  0  0  0  0  0  0  0
   20.9974   19.9987   20.8944 N   0  3  0  0  0  0  0  0  0  0  0  0
   19.9772   20.0807   20.9068 H   0  0  0  0  0  0  0  0  0  0  0  0
   21.3730   20.8842   20.5433 H   0  0  0  0  0  0  0  0  0  0  0  0
   21.2406   19.2719   20.2163 H   0  0  0  0  0  0  0  0  0  0  0  0
  1  2  1  0  0  0  0
  1  3  1  0  0  0  0
  1  4  1  0  0  0  0
  1  5  1  0  0  0  0
  5  6  1  0  0  0  0
  5  7  1  0  0  0  0
  5  8  1  0  0  0  0
  8  9  1  0  0  0  0
  8 10  1  0  0  0  0
  8 11  1  0  0  0  0
 11 12  1  0  0  0  0
 11 13  1  0  0  0  0
 11 14  1  0  0  0  0
 14 15  1  0  0  0  0
 14 16  1  0  0  0  0
 14 17  1  0  0  0  0
 17 18  1  0  0  0  0
 17 19  1  0  0  0  0
 19 20  1  0  0  0  0
 19 21  1  0  0  0  0
 19 22  1  0  0  0  0
 17 23  1  0  0  0  0
 23 24  1  0  0  0  0
 23 25  1  0  0  0  0
 23 26  1  0  0  0  0
M  END
> <VConfSearch Rank>
647

> <Conf_Id>
113

> <Delta U+W>
1.137

> <U+W>
-29.162

> <U>
24.833

> <W>
-53.995

> <W(PB)>
-56.288

> <W(SA)>
2.294

> <Valence>
3.589

> <Coulomb>
20.270

> <VdW>
0.974

> <VdW6>
-8.255

> <VdW12>
9.229

> <Bond>
0.244

> <Angle>
1.377

> <Pdih>
1.967

> <Idih>
0.000

> <Tether>
0.000

$$$$
VeraChem MOL file


 26 25  0  0  0  0  0  0  0  0999 V2000     
   23.2921   17.3825   23.4811 C   0  0  0  0  0  0  0  0  0  0  0  0
   24.0174   17.1744   22.6838 H   0  0  0  0  0  0  0  0  0  0  0  0
   23.7461   18.1080   24.1688 H   0  0  0  0  0  0  0  0  0  0  0  0
   23.1213   16.4489   24.0328 H   0  0  0  0  0  0  0  0  0  0  0  0
   21.9746   17.9279   22.8906 C   0  0  0  0  0  0  0  0  0  0  0  0
   21.5602   17.1938   22.1856 H   0  0  0  0  0  0  0  0  0  0  0  0
   22.1926   18.8363   22.3136 H   0  0  0  0  0  0  0  0  0  0  0  0
   20.9373   18.2331   23.9971 C   0  0  0  0  0  0  0  0  0  0  0  0
   20.7959   17.3329   24.6111 H   0  0  0  0  0  0  0  0  0  0  0  0
   21.3313   19.0063   24.6711 H   0  0  0  0  0  0  0  0  0  0  0  0
   19.5578   18.6746   23.4494 C   0  0  0  0  0  0  0  0  0  0  0  0
   18.8628   18.7494   24.2959 H   0  0  0  0  0  0  0  0  0  0  0  0
   19.1642   17.8870   22.7932 H   0  0  0  0  0  0  0  0  0  0  0  0
   19.6014   20.0299   22.6919 C   0  0  0  0  0  0  0  0  0  0  0  0
   20.0962   20.7806   23.3220 H   0  0  0  0  0  0  0  0  0  0  0  0
   20.2222   19.9311   21.7928 H   0  0  0  0  0  0  0  0  0  0  0  0
   18.2195   20.5810   22.2673 C   0  0  1  0  0  0  0  0  0  0  0  0
   18.3926   21.5340   21.7577 H   0  0  0  0  0  0  0  0  0  0  0  0
   17.5049   19.6462   21.2759 C   0  0  0  0  0  0  0  0  0  0  0  0
   17.2155   18.6997   21.7478 H   0  0  0  0  0  0  0  0  0  0  0  0
   18.1509   19.4198   20.4185 H   0  0  0  0  0  0  0  0  0  0  0  0
   16.5942   20.1203   20.8899 H   0  0  0  0  0  0  0  0  0  0  0  0
   17.3376   20.8939   23.4449 N   0  3  0  0  0  0  0  0  0  0  0  0
   17.7893   21.5495   24.0888 H   0  0  0  0  0  0  0  0  0  0  0  0
   16.4537   21.3170   23.1483 H   0  0  0  0  0  0  0  0  0  0  0  0
   17.1103   20.0489   23.9746 H   0  0  0  0  0  0  0  0  0  0  0  0
  1  2  1  0  0  0  0
  1  3  1  0  0  0  0
  1  4  1  0  0  0  0
  1  5  1  0  0  0  0
  5  6  1  0  0  0  0
  5  7  1  0  0  0  0
  5  8  1  0  0  0  0
  8  9  1  0  0  0  0
  8 10  1  0  0  0  0
  8 11  1  0  0  0  0
 11 12  1  0  0  0  0
 11 13  1  0  0  0  0
 11 14  1  0  0  0  0
 14 15  1  0  0  0  0
 14 16  1  0  0  0  0
 14 17  1  0  0  0  0
 17 18  1  0  0  0  0
 17 19  1  0  0  0  0
 19 20  1  0  0  0  0
 19 21  1  0  0  0  0
 19 22  1  0  0  0  0
 17 23  1  0  0  0  0
 23 24  1  0  0  0  0
 23 25  1  0  0  0  0
 23 26  1  0  0  0  0
M  END
> <VConfSearch Rank>
648

> <Conf_Id>
45

> <Delta U+W>
1.035

> <U+W>
-29.264

> <U>
24.725

> <W>
-53.989

> <W(PB)>
-56.298

> <W(SA)>
2.309

> <Valence>
3.780

> <Coulomb>
19.804

> <VdW>
1.141

> <VdW6>
-8.104

> <VdW12>
9.246

> <Bond>
0.254

> <Angle>
1.437

> <Pdih>
2.089

> <Idih>
0.000

> <Tether>
0.000

$$$$
VeraChem MOL file


 26 25  0  0  0  0  0  0  0  0999 V2000     
   19.2186   19.8919   19.0876 C   0  0  0  0  0  0  0  0  0  0  0  0
   18.6200   20.7324   18.7129 H   0  0  0  0  0  0  0  0  0  0  0  0
   20.1587   19.8693   18.5212 H   0  0  0  0  0  0  0  0  0  0  0  0
   18.6690   18.9656   18.8753 H   0  0  0  0  0  0  0  0  0  0  0  0
   19.4849   20.0442   20.6003 C   0  0  0  0  0  0  0  0  0  0  0  0
   18.5227   20.1049   21.1256 H   0  0  0  0  0  0  0  0  0  0  0  0
   20.0093   20.9924   20.7838 H   0  0  0  0  0  0  0  0  0  0  0  0
   20.3240   18.8674   21.1523 C   0  0  0  0  0  0  0  0  0  0  0  0
   19.7739   17.9255   21.0196 H   0  0  0  0  0  0  0  0  0  0  0  0
   21.2414   18.7744   20.5548 H   0  0  0  0  0  0  0  0  0  0  0  0
   20.7237   19.0307   22.6396 C   0  0  0  0  0  0  0  0  0  0  0  0
   21.2752   19.9722   22.7702 H   0  0  0  0  0  0  0  0  0  0  0  0
   21.4246   18.2244   22.8924 H   0  0  0  0  0  0  0  0  0  0  0  0
   19.5172   18.9924   23.6129 C   0  0  0  0  0  0  0  0  0  0  0  0
   18.8310   19.8137   23.3727 H   0  0  0  0  0  0  0  0  0  0  0  0
   18.9545   18.0602   23.4708 H   0  0  0  0  0  0  0  0  0  0  0  0
   19.9340   19.1260   25.0941 C   0  0  1  0  0  0  0  0  0  0  0  0
   20.5228   20.0420   25.2032 H   0  0  0  0  0  0  0  0  0  0  0  0
   18.6905   19.2425   25.9904 C   0  0  0  0  0  0  0  0  0  0  0  0
   18.0631   18.3454   25.9176 H   0  0  0  0  0  0  0  0  0  0  0  0
   18.0821   20.1091   25.7029 H   0  0  0  0  0  0  0  0  0  0  0  0
   18.9796   19.3733   27.0405 H   0  0  0  0  0  0  0  0  0  0  0  0
   20.8083   17.9910   25.5535 N   0  3  0  0  0  0  0  0  0  0  0  0
   21.6648   17.9288   24.9969 H   0  0  0  0  0  0  0  0  0  0  0  0
   21.0875   18.1063   26.5319 H   0  0  0  0  0  0  0  0  0  0  0  0
   20.3247   17.0924   25.4770 H   0  0  0  0  0  0  0  0  0  0  0  0
  1  2  1  0  0  0  0
  1  3  1  0  0  0  0
  1  4  1  0  0  0  0
  1  5  1  0  0  0  0
  5  6  1  0  0  0  0
  5  7  1  0  0  0  0
  5  8  1  0  0  0  0
  8  9  1  0  0  0  0
  8 10  1  0  0  0  0
  8 11  1  0  0  0  0
 11 12  1  0  0  0  0
 11 13  1  0  0  0  0
 11 14  1  0  0  0  0
 14 15  1  0  0  0  0
 14 16  1  0  0  0  0
 14 17  1  0  0  0  0
 17 18  1  0  0  0  0
 17 19  1  0  0  0  0
 19 20  1  0  0  0  0
 19 21  1  0  0  0  0
 19 22  1  0  0  0  0
 17 23  1  0  0  0  0
 23 24  1  0  0  0  0
 23 25  1  0  0  0  0
 23 26  1  0  0  0  0
M  END
> <VConfSearch Rank>
649

> <Conf_Id>
121

> <Delta U+W>
0.736

> <U+W>
-29.562

> <U>
24.282

> <W>
-53.844

> <W(PB)>
-56.205

> <W(SA)>
2.361

> <Valence>
3.311

> <Coulomb>
19.887

> <VdW>
1.083

> <VdW6>
-7.444

> <VdW12>
8.527

> <Bond>
0.219

> <Angle>
1.167

> <Pdih>
1.926

> <Idih>
0.000

> <Tether>
0.000

$$$$
VeraChem MOL file


 26 25  0  0  0  0  0  0  0  0999 V2000     
   17.7966   19.3649   26.0149 C   0  0  0  0  0  0  0  0  0  0  0  0
   17.4251   18.9298   26.9518 H   0  0  0  0  0  0  0  0  0  0  0  0
   17.9589   20.4373   26.1843 H   0  0  0  0  0  0  0  0  0  0  0  0
   17.0059   19.2508   25.2632 H   0  0  0  0  0  0  0  0  0  0  0  0
   19.1041   18.6671   25.5763 C   0  0  0  0  0  0  0  0  0  0  0  0
   18.9082   17.6037   25.3802 H   0  0  0  0  0  0  0  0  0  0  0  0
   19.8179   18.6989   26.4114 H   0  0  0  0  0  0  0  0  0  0  0  0
   19.7644   19.3157   24.3357 C   0  0  0  0  0  0  0  0  0  0  0  0
   19.9656   20.3763   24.5401 H   0  0  0  0  0  0  0  0  0  0  0  0
   20.7414   18.8388   24.1829 H   0  0  0  0  0  0  0  0  0  0  0  0
   18.9154   19.1834   23.0458 C   0  0  0  0  0  0  0  0  0  0  0  0
   17.9447   19.6738   23.1943 H   0  0  0  0  0  0  0  0  0  0  0  0
   18.6928   18.1257   22.8530 H   0  0  0  0  0  0  0  0  0  0  0  0
   19.5877   19.8224   21.8028 C   0  0  0  0  0  0  0  0  0  0  0  0
   18.9168   19.7138   20.9402 H   0  0  0  0  0  0  0  0  0  0  0  0
   19.6846   20.9019   21.9784 H   0  0  0  0  0  0  0  0  0  0  0  0
   20.9795   19.2528   21.4390 C   0  0  1  0  0  0  0  0  0  0  0  0
   21.6408   19.3784   22.3013 H   0  0  0  0  0  0  0  0  0  0  0  0
   20.9184   17.7559   21.0863 C   0  0  0  0  0  0  0  0  0  0  0  0
   20.2205   17.5711   20.2602 H   0  0  0  0  0  0  0  0  0  0  0  0
   20.5987   17.1573   21.9472 H   0  0  0  0  0  0  0  0  0  0  0  0
   21.9073   17.3889   20.7851 H   0  0  0  0  0  0  0  0  0  0  0  0
   21.6050   20.0288   20.3134 N   0  3  0  0  0  0  0  0  0  0  0  0
   21.6946   21.0225   20.5440 H   0  0  0  0  0  0  0  0  0  0  0  0
   22.5432   19.6815   20.0952 H   0  0  0  0  0  0  0  0  0  0  0  0
   21.0482   19.9612   19.4573 H   0  0  0  0  0  0  0  0  0  0  0  0
  1  2  1  0  0  0  0
  1  3  1  0  0  0  0
  1  4  1  0  0  0  0
  1  5  1  0  0  0  0
  5  6  1  0  0  0  0
  5  7  1  0  0  0  0
  5  8  1  0  0  0  0
  8  9  1  0  0  0  0
  8 10  1  0  0  0  0
  8 11  1  0  0  0  0
 11 12  1  0  0  0  0
 11 13  1  0  0  0  0
 11 14  1  0  0  0  0
 14 15  1  0  0  0  0
 14 16  1  0  0  0  0
 14 17  1  0  0  0  0
 17 18  1  0  0  0  0
 17 19  1  0  0  0  0
 19 20  1  0  0  0  0
 19 21  1  0  0  0  0
 19 22  1  0  0  0  0
 17 23  1  0  0  0  0
 23 24  1  0  0  0  0
 23 25  1  0  0  0  0
 23 26  1  0  0  0  0
M  END
> <VConfSearch Rank>
650

> <Conf_Id>
5

> <Delta U+W>
1.233

> <U+W>
-29.065

> <U>
25.023

> <W>
-54.088

> <W(PB)>
-56.383

> <W(SA)>
2.296

> <Valence>
4.083

> <Coulomb>
19.893

> <VdW>
1.047

> <VdW6>
-8.479

> <VdW12>
9.527

> <Bond>
0.256

> <Angle>
1.716

> <Pdih>
2.112

> <Idih>
0.000

> <Tether>
0.000

$$$$
VeraChem MOL file


 26 25  0  0  0  0  0  0  0  0999 V2000     
   21.4778   17.7376   25.9096 C   0  0  0  0  0  0  0  0  0  0  0  0
   21.4850   17.3243   26.9265 H   0  0  0  0  0  0  0  0  0  0  0  0
   21.6465   16.9051   25.2156 H   0  0  0  0  0  0  0  0  0  0  0  0
   22.3223   18.4336   25.8247 H   0  0  0  0  0  0  0  0  0  0  0  0
   20.1370   18.4529   25.6269 C   0  0  0  0  0  0  0  0  0  0  0  0
   19.9559   19.1879   26.4237 H   0  0  0  0  0  0  0  0  0  0  0  0
   19.3118   17.7293   25.6836 H   0  0  0  0  0  0  0  0  0  0  0  0
   20.1014   19.1835   24.2627 C   0  0  0  0  0  0  0  0  0  0  0  0
   19.1745   19.7700   24.2192 H   0  0  0  0  0  0  0  0  0  0  0  0
   20.9312   19.9015   24.2097 H   0  0  0  0  0  0  0  0  0  0  0  0
   20.1583   18.2243   23.0475 C   0  0  0  0  0  0  0  0  0  0  0  0
   19.3093   17.5282   23.0913 H   0  0  0  0  0  0  0  0  0  0  0  0
   21.0647   17.6085   23.1078 H   0  0  0  0  0  0  0  0  0  0  0  0
   20.1614   18.9437   21.6746 C   0  0  0  0  0  0  0  0  0  0  0  0
   21.0535   19.5778   21.5847 H   0  0  0  0  0  0  0  0  0  0  0  0
   20.2686   18.1728   20.9001 H   0  0  0  0  0  0  0  0  0  0  0  0
   18.8807   19.7683   21.3977 C   0  0  1  0  0  0  0  0  0  0  0  0
   18.1005   19.4283   22.0856 H   0  0  0  0  0  0  0  0  0  0  0  0
   19.1160   21.2731   21.6230 C   0  0  0  0  0  0  0  0  0  0  0  0
   19.8550   21.6675   20.9143 H   0  0  0  0  0  0  0  0  0  0  0  0
   19.4804   21.4759   22.6362 H   0  0  0  0  0  0  0  0  0  0  0  0
   18.1834   21.8345   21.4875 H   0  0  0  0  0  0  0  0  0  0  0  0
   18.3479   19.5315   20.0110 N   0  3  0  0  0  0  0  0  0  0  0  0
   18.1380   18.5419   19.8521 H   0  0  0  0  0  0  0  0  0  0  0  0
   17.4836   20.0557   19.8477 H   0  0  0  0  0  0  0  0  0  0  0  0
   19.0207   19.8224   19.2966 H   0  0  0  0  0  0  0  0  0  0  0  0
  1  2  1  0  0  0  0
  1  3  1  0  0  0  0
  1  4  1  0  0  0  0
  1  5  1  0  0  0  0
  5  6  1  0  0  0  0
  5  7  1  0  0  0  0
  5  8  1  0  0  0  0
  8  9  1  0  0  0  0
  8 10  1  0  0  0  0
  8 11  1  0  0  0  0
 11 12  1  0  0  0  0
 11 13  1  0  0  0  0
 11 14  1  0  0  0  0
 14 15  1  0  0  0  0
 14 16  1  0  0  0  0
 14 17  1  0  0  0  0
 17 18  1  0  0  0  0
 17 19  1  0  0  0  0
 19 20  1  0  0  0  0
 19 21  1  0  0  0  0
 19 22  1  0  0  0  0
 17 23  1  0  0  0  0
 23 24  1  0  0  0  0
 23 25  1  0  0  0  0
 23 26  1  0  0  0  0
M  END
> <VConfSearch Rank>
651

> <Conf_Id>
100

> <Delta U+W>
3.818

> <U+W>
-26.481

> <U>
27.496

> <W>
-53.977

> <W(PB)>
-56.267

> <W(SA)>
2.290

> <Valence>
6.472

> <Coulomb>
19.839

> <VdW>
1.185

> <VdW6>
-8.405

> <VdW12>
9.590

> <Bond>
0.248

> <Angle>
1.619

> <Pdih>
4.604

> <Idih>
0.000

> <Tether>
0.000

$$$$
VeraChem MOL file


 26 25  0  0  0  0  0  0  0  0999 V2000     
   23.0639   20.5638   23.9516 C   0  0  0  0  0  0  0  0  0  0  0  0
   24.0363   20.2637   24.3631 H   0  0  0  0  0  0  0  0  0  0  0  0
   23.1951   20.7479   22.8772 H   0  0  0  0  0  0  0  0  0  0  0  0
   22.7739   21.5096   24.4277 H   0  0  0  0  0  0  0  0  0  0  0  0
   22.0050   19.4691   24.2018 C   0  0  0  0  0  0  0  0  0  0  0  0
   21.9216   19.2830   25.2818 H   0  0  0  0  0  0  0  0  0  0  0  0
   22.3386   18.5280   23.7427 H   0  0  0  0  0  0  0  0  0  0  0  0
   20.6253   19.8668   23.6323 C   0  0  0  0  0  0  0  0  0  0  0  0
   20.2992   20.8084   24.0952 H   0  0  0  0  0  0  0  0  0  0  0  0
   20.7232   20.0639   22.5583 H   0  0  0  0  0  0  0  0  0  0  0  0
   19.5609   18.7718   23.8891 C   0  0  0  0  0  0  0  0  0  0  0  0
   19.4803   18.6253   24.9752 H   0  0  0  0  0  0  0  0  0  0  0  0
   19.8991   17.8107   23.4807 H   0  0  0  0  0  0  0  0  0  0  0  0
   18.1522   19.1350   23.3415 C   0  0  0  0  0  0  0  0  0  0  0  0
   17.4001   18.7404   24.0374 H   0  0  0  0  0  0  0  0  0  0  0  0
   18.0148   20.2242   23.3561 H   0  0  0  0  0  0  0  0  0  0  0  0
   17.8084   18.5925   21.9318 C   0  0  1  0  0  0  0  0  0  0  0  0
   16.7993   18.9412   21.6915 H   0  0  0  0  0  0  0  0  0  0  0  0
   18.7514   19.1221   20.8395 C   0  0  0  0  0  0  0  0  0  0  0  0
   19.7616   18.7093   20.9458 H   0  0  0  0  0  0  0  0  0  0  0  0
   18.8151   20.2167   20.8755 H   0  0  0  0  0  0  0  0  0  0  0  0
   18.3804   18.8434   19.8456 H   0  0  0  0  0  0  0  0  0  0  0  0
   17.7432   17.0898   21.8995 N   0  3  0  0  0  0  0  0  0  0  0  0
   17.0754   16.7279   22.5862 H   0  0  0  0  0  0  0  0  0  0  0  0
   17.4506   16.7480   20.9798 H   0  0  0  0  0  0  0  0  0  0  0  0
   18.6538   16.6726   22.1062 H   0  0  0  0  0  0  0  0  0  0  0  0
  1  2  1  0  0  0  0
  1  3  1  0  0  0  0
  1  4  1  0  0  0  0
  1  5  1  0  0  0  0
  5  6  1  0  0  0  0
  5  7  1  0  0  0  0
  5  8  1  0  0  0  0
  8  9  1  0  0  0  0
  8 10  1  0  0  0  0
  8 11  1  0  0  0  0
 11 12  1  0  0  0  0
 11 13  1  0  0  0  0
 11 14  1  0  0  0  0
 14 15  1  0  0  0  0
 14 16  1  0  0  0  0
 14 17  1  0  0  0  0
 17 18  1  0  0  0  0
 17 19  1  0  0  0  0
 19 20  1  0  0  0  0
 19 21  1  0  0  0  0
 19 22  1  0  0  0  0
 17 23  1  0  0  0  0
 23 24  1  0  0  0  0
 23 25  1  0  0  0  0
 23 26  1  0  0  0  0
M  END
> <VConfSearch Rank>
652

> <Conf_Id>
142

> <Delta U+W>
2.978

> <U+W>
-27.320

> <U>
26.848

> <W>
-54.168

> <W(PB)>
-56.427

> <W(SA)>
2.259

> <Valence>
5.823

> <Coulomb>
20.057

> <VdW>
0.968

> <VdW6>
-8.367

> <VdW12>
9.335

> <Bond>
0.267

> <Angle>
1.799

> <Pdih>
3.758

> <Idih>
0.000

> <Tether>
0.000

$$$$
VeraChem MOL file


 26 25  0  0  0  0  0  0  0  0999 V2000     
   16.8942   20.8995   22.3081 C   0  0  0  0  0  0  0  0  0  0  0  0
   17.3223   21.8661   22.6037 H   0  0  0  0  0  0  0  0  0  0  0  0
   16.0158   21.0999   21.6811 H   0  0  0  0  0  0  0  0  0  0  0  0
   16.5420   20.3881   23.2122 H   0  0  0  0  0  0  0  0  0  0  0  0
   17.9263   20.0474   21.5347 C   0  0  0  0  0  0  0  0  0  0  0  0
   18.1440   20.5435   20.5786 H   0  0  0  0  0  0  0  0  0  0  0  0
   17.4873   19.0723   21.2813 H   0  0  0  0  0  0  0  0  0  0  0  0
   19.2570   19.8416   22.2986 C   0  0  0  0  0  0  0  0  0  0  0  0
   19.9637   19.3675   21.6077 H   0  0  0  0  0  0  0  0  0  0  0  0
   19.6795   20.8194   22.5678 H   0  0  0  0  0  0  0  0  0  0  0  0
   19.1105   18.9622   23.5661 C   0  0  0  0  0  0  0  0  0  0  0  0
   18.7488   17.9647   23.2834 H   0  0  0  0  0  0  0  0  0  0  0  0
   18.3317   19.3878   24.2111 H   0  0  0  0  0  0  0  0  0  0  0  0
   20.4016   18.8385   24.4242 C   0  0  0  0  0  0  0  0  0  0  0  0
   20.6832   19.8308   24.8001 H   0  0  0  0  0  0  0  0  0  0  0  0
   20.1514   18.2505   25.3170 H   0  0  0  0  0  0  0  0  0  0  0  0
   21.6410   18.1791   23.7665 C   0  0  1  0  0  0  0  0  0  0  0  0
   22.3497   17.9684   24.5734 H   0  0  0  0  0  0  0  0  0  0  0  0
   21.3062   16.8381   23.0904 C   0  0  0  0  0  0  0  0  0  0  0  0
   20.6690   16.9767   22.2088 H   0  0  0  0  0  0  0  0  0  0  0  0
   20.7873   16.1699   23.7888 H   0  0  0  0  0  0  0  0  0  0  0  0
   22.2235   16.3323   22.7652 H   0  0  0  0  0  0  0  0  0  0  0  0
   22.3744   19.0990   22.8291 N   0  3  0  0  0  0  0  0  0  0  0  0
   22.6610   19.9620   23.2996 H   0  0  0  0  0  0  0  0  0  0  0  0
   23.2214   18.6576   22.4599 H   0  0  0  0  0  0  0  0  0  0  0  0
   21.7914   19.3617   22.0322 H   0  0  0  0  0  0  0  0  0  0  0  0
  1  2  1  0  0  0  0
  1  3  1  0  0  0  0
  1  4  1  0  0  0  0
  1  5  1  0  0  0  0
  5  6  1  0  0  0  0
  5  7  1  0  0  0  0
  5  8  1  0  0  0  0
  8  9  1  0  0  0  0
  8 10  1  0  0  0  0
  8 11  1  0  0  0  0
 11 12  1  0  0  0  0
 11 13  1  0  0  0  0
 11 14  1  0  0  0  0
 14 15  1  0  0  0  0
 14 16  1  0  0  0  0
 14 17  1  0  0  0  0
 17 18  1  0  0  0  0
 17 19  1  0  0  0  0
 19 20  1  0  0  0  0
 19 21  1  0  0  0  0
 19 22  1  0  0  0  0
 17 23  1  0  0  0  0
 23 24  1  0  0  0  0
 23 25  1  0  0  0  0
 23 26  1  0  0  0  0
M  END
> <VConfSearch Rank>
653

> <Conf_Id>
119

> <Delta U+W>
3.538

> <U+W>
-26.761

> <U>
27.482

> <W>
-54.243

> <W(PB)>
-56.494

> <W(SA)>
2.251

> <Valence>
5.284

> <Coulomb>
21.247

> <VdW>
0.951

> <VdW6>
-9.416

> <VdW12>
10.367

> <Bond>
0.323

> <Angle>
2.522

> <Pdih>
2.439

> <Idih>
0.000

> <Tether>
0.000

$$$$
VeraChem MOL file


 26 25  0  0  0  0  0  0  0  0999 V2000     
   17.6408   18.3864   25.5857 C   0  0  0  0  0  0  0  0  0  0  0  0
   17.6673   17.2904   25.6414 H   0  0  0  0  0  0  0  0  0  0  0  0
   18.5465   18.7776   26.0656 H   0  0  0  0  0  0  0  0  0  0  0  0
   16.7808   18.7317   26.1739 H   0  0  0  0  0  0  0  0  0  0  0  0
   17.5218   18.8659   24.1212 C   0  0  0  0  0  0  0  0  0  0  0  0
   17.5289   19.9644   24.0905 H   0  0  0  0  0  0  0  0  0  0  0  0
   16.5453   18.5539   23.7251 H   0  0  0  0  0  0  0  0  0  0  0  0
   18.6327   18.3097   23.1980 C   0  0  0  0  0  0  0  0  0  0  0  0
   18.6024   17.2115   23.2126 H   0  0  0  0  0  0  0  0  0  0  0  0
   18.4024   18.6055   22.1677 H   0  0  0  0  0  0  0  0  0  0  0  0
   20.0539   18.7940   23.5846 C   0  0  0  0  0  0  0  0  0  0  0  0
   20.3030   18.3838   24.5721 H   0  0  0  0  0  0  0  0  0  0  0  0
   20.0641   19.8854   23.6992 H   0  0  0  0  0  0  0  0  0  0  0  0
   21.1540   18.3370   22.5859 C   0  0  0  0  0  0  0  0  0  0  0  0
   22.0622   18.1027   23.1567 H   0  0  0  0  0  0  0  0  0  0  0  0
   20.8592   17.3912   22.1123 H   0  0  0  0  0  0  0  0  0  0  0  0
   21.5454   19.3608   21.4913 C   0  0  1  0  0  0  0  0  0  0  0  0
   22.3147   18.8899   20.8713 H   0  0  0  0  0  0  0  0  0  0  0  0
   20.3717   19.7292   20.5694 C   0  0  0  0  0  0  0  0  0  0  0  0
   19.6061   20.3045   21.1036 H   0  0  0  0  0  0  0  0  0  0  0  0
   19.9047   18.8280   20.1533 H   0  0  0  0  0  0  0  0  0  0  0  0
   20.7222   20.3400   19.7285 H   0  0  0  0  0  0  0  0  0  0  0  0
   22.1810   20.5964   22.0680 N   0  3  0  0  0  0  0  0  0  0  0  0
   22.9984   20.3663   22.6401 H   0  0  0  0  0  0  0  0  0  0  0  0
   22.4940   21.2345   21.3310 H   0  0  0  0  0  0  0  0  0  0  0  0
   21.5253   21.1106   22.6610 H   0  0  0  0  0  0  0  0  0  0  0  0
  1  2  1  0  0  0  0
  1  3  1  0  0  0  0
  1  4  1  0  0  0  0
  1  5  1  0  0  0  0
  5  6  1  0  0  0  0
  5  7  1  0  0  0  0
  5  8  1  0  0  0  0
  8  9  1  0  0  0  0
  8 10  1  0  0  0  0
  8 11  1  0  0  0  0
 11 12  1  0  0  0  0
 11 13  1  0  0  0  0
 11 14  1  0  0  0  0
 14 15  1  0  0  0  0
 14 16  1  0  0  0  0
 14 17  1  0  0  0  0
 17 18  1  0  0  0  0
 17 19  1  0  0  0  0
 19 20  1  0  0  0  0
 19 21  1  0  0  0  0
 19 22  1  0  0  0  0
 17 23  1  0  0  0  0
 23 24  1  0  0  0  0
 23 25  1  0  0  0  0
 23 26  1  0  0  0  0
M  END
> <VConfSearch Rank>
654

> <Conf_Id>
127

> <Delta U+W>
3.544

> <U+W>
-26.754

> <U>
27.509

> <W>
-54.263

> <W(PB)>
-56.496

> <W(SA)>
2.232

> <Valence>
6.375

> <Coulomb>
20.014

> <VdW>
1.120

> <VdW6>
-8.976

> <VdW12>
10.096

> <Bond>
0.304

> <Angle>
1.986

> <Pdih>
4.086

> <Idih>
0.000

> <Tether>
0.000

$$$$
VeraChem MOL file


 26 25  0  0  0  0  0  0  0  0999 V2000     
   20.7071   22.2311   22.5980 C   0  0  0  0  0  0  0  0  0  0  0  0
   21.3312   22.8123   21.9069 H   0  0  0  0  0  0  0  0  0  0  0  0
   20.3398   22.9176   23.3719 H   0  0  0  0  0  0  0  0  0  0  0  0
   21.3512   21.4899   23.0836 H   0  0  0  0  0  0  0  0  0  0  0  0
   19.5297   21.5736   21.8407 C   0  0  0  0  0  0  0  0  0  0  0  0
   19.9053   20.9469   21.0199 H   0  0  0  0  0  0  0  0  0  0  0  0
   18.9444   22.3734   21.3658 H   0  0  0  0  0  0  0  0  0  0  0  0
   18.5891   20.7525   22.7601 C   0  0  0  0  0  0  0  0  0  0  0  0
   18.5958   21.1661   23.7779 H   0  0  0  0  0  0  0  0  0  0  0  0
   17.5600   20.8804   22.3967 H   0  0  0  0  0  0  0  0  0  0  0  0
   18.8825   19.2304   22.8011 C   0  0  0  0  0  0  0  0  0  0  0  0
   18.7661   18.8165   21.7907 H   0  0  0  0  0  0  0  0  0  0  0  0
   18.1075   18.7585   23.4181 H   0  0  0  0  0  0  0  0  0  0  0  0
   20.2853   18.8693   23.3583 C   0  0  0  0  0  0  0  0  0  0  0  0
   21.0535   19.2619   22.6813 H   0  0  0  0  0  0  0  0  0  0  0  0
   20.4365   19.3720   24.3225 H   0  0  0  0  0  0  0  0  0  0  0  0
   20.5455   17.3547   23.5380 C   0  0  1  0  0  0  0  0  0  0  0  0
   21.5859   17.2409   23.8581 H   0  0  0  0  0  0  0  0  0  0  0  0
   19.6562   16.7376   24.6319 C   0  0  0  0  0  0  0  0  0  0  0  0
   19.7433   17.3008   25.5693 H   0  0  0  0  0  0  0  0  0  0  0  0
   19.9624   15.7043   24.8360 H   0  0  0  0  0  0  0  0  0  0  0  0
   18.6003   16.7205   24.3376 H   0  0  0  0  0  0  0  0  0  0  0  0
   20.4208   16.5927   22.2473 N   0  3  0  0  0  0  0  0  0  0  0  0
   21.0457   16.9675   21.5280 H   0  0  0  0  0  0  0  0  0  0  0  0
   20.6561   15.6041   22.3721 H   0  0  0  0  0  0  0  0  0  0  0  0
   19.4668   16.6373   21.8809 H   0  0  0  0  0  0  0  0  0  0  0  0
  1  2  1  0  0  0  0
  1  3  1  0  0  0  0
  1  4  1  0  0  0  0
  1  5  1  0  0  0  0
  5  6  1  0  0  0  0
  5  7  1  0  0  0  0
  5  8  1  0  0  0  0
  8  9  1  0  0  0  0
  8 10  1  0  0  0  0
  8 11  1  0  0  0  0
 11 12  1  0  0  0  0
 11 13  1  0  0  0  0
 11 14  1  0  0  0  0
 14 15  1  0  0  0  0
 14 16  1  0  0  0  0
 14 17  1  0  0  0  0
 17 18  1  0  0  0  0
 17 19  1  0  0  0  0
 19 20  1  0  0  0  0
 19 21  1  0  0  0  0
 19 22  1  0  0  0  0
 17 23  1  0  0  0  0
 23 24  1  0  0  0  0
 23 25  1  0  0  0  0
 23 26  1  0  0  0  0
M  END
> <VConfSearch Rank>
655

> <Conf_Id>
131

> <Delta U+W>
3.589

> <U+W>
-26.710

> <U>
27.573

> <W>
-54.283

> <W(PB)>
-56.537

> <W(SA)>
2.254

> <Valence>
6.363

> <Coulomb>
20.026

> <VdW>
1.184

> <VdW6>
-8.939

> <VdW12>
10.123

> <Bond>
0.298

> <Angle>
2.018

> <Pdih>
4.047

> <Idih>
0.000

> <Tether>
0.000

$$$$
VeraChem MOL file


 26 25  0  0  0  0  0  0  0  0999 V2000     
   17.5288   17.7520   24.0778 C   0  0  0  0  0  0  0  0  0  0  0  0
   17.7932   16.9321   23.3976 H   0  0  0  0  0  0  0  0  0  0  0  0
   18.4309   18.0653   24.6173 H   0  0  0  0  0  0  0  0  0  0  0  0
   16.8238   17.3577   24.8211 H   0  0  0  0  0  0  0  0  0  0  0  0
   16.8970   18.9328   23.3090 C   0  0  0  0  0  0  0  0  0  0  0  0
   16.7119   19.7629   24.0050 H   0  0  0  0  0  0  0  0  0  0  0  0
   15.9106   18.6230   22.9364 H   0  0  0  0  0  0  0  0  0  0  0  0
   17.7382   19.4384   22.1090 C   0  0  0  0  0  0  0  0  0  0  0  0
   17.8329   18.6455   21.3544 H   0  0  0  0  0  0  0  0  0  0  0  0
   17.1683   20.2422   21.6225 H   0  0  0  0  0  0  0  0  0  0  0  0
   19.1356   19.9971   22.4850 C   0  0  0  0  0  0  0  0  0  0  0  0
   19.0992   20.4239   23.4955 H   0  0  0  0  0  0  0  0  0  0  0  0
   19.3687   20.8317   21.8093 H   0  0  0  0  0  0  0  0  0  0  0  0
   20.2720   18.9476   22.3623 C   0  0  0  0  0  0  0  0  0  0  0  0
   20.0938   18.1026   23.0366 H   0  0  0  0  0  0  0  0  0  0  0  0
   20.2539   18.5365   21.3444 H   0  0  0  0  0  0  0  0  0  0  0  0
   21.6804   19.5262   22.6280 C   0  0  1  0  0  0  0  0  0  0  0  0
   21.8199   20.4003   21.9845 H   0  0  0  0  0  0  0  0  0  0  0  0
   21.8590   19.9642   24.0929 C   0  0  0  0  0  0  0  0  0  0  0  0
   21.6671   19.1324   24.7821 H   0  0  0  0  0  0  0  0  0  0  0  0
   21.1816   20.7865   24.3498 H   0  0  0  0  0  0  0  0  0  0  0  0
   22.8816   20.3210   24.2673 H   0  0  0  0  0  0  0  0  0  0  0  0
   22.7522   18.5433   22.2456 N   0  3  0  0  0  0  0  0  0  0  0  0
   22.6950   17.6893   22.8068 H   0  0  0  0  0  0  0  0  0  0  0  0
   22.6800   18.2701   21.2613 H   0  0  0  0  0  0  0  0  0  0  0  0
   23.6873   18.9371   22.3836 H   0  0  0  0  0  0  0  0  0  0  0  0
  1  2  1  0  0  0  0
  1  3  1  0  0  0  0
  1  4  1  0  0  0  0
  1  5  1  0  0  0  0
  5  6  1  0  0  0  0
  5  7  1  0  0  0  0
  5  8  1  0  0  0  0
  8  9  1  0  0  0  0
  8 10  1  0  0  0  0
  8 11  1  0  0  0  0
 11 12  1  0  0  0  0
 11 13  1  0  0  0  0
 11 14  1  0  0  0  0
 14 15  1  0  0  0  0
 14 16  1  0  0  0  0
 14 17  1  0  0  0  0
 17 18  1  0  0  0  0
 17 19  1  0  0  0  0
 19 20  1  0  0  0  0
 19 21  1  0  0  0  0
 19 22  1  0  0  0  0
 17 23  1  0  0  0  0
 23 24  1  0  0  0  0
 23 25  1  0  0  0  0
 23 26  1  0  0  0  0
M  END
> <VConfSearch Rank>
656

> <Conf_Id>
80

> <Delta U+W>
3.351

> <U+W>
-26.948

> <U>
27.261

> <W>
-54.209

> <W(PB)>
-56.471

> <W(SA)>
2.263

> <Valence>
6.230

> <Coulomb>
19.945

> <VdW>
1.087

> <VdW6>
-8.618

> <VdW12>
9.704

> <Bond>
0.277

> <Angle>
1.928

> <Pdih>
4.025

> <Idih>
0.000

> <Tether>
0.000

$$$$
VeraChem MOL file


 26 25  0  0  0  0  0  0  0  0999 V2000     
   23.0757   19.4006   23.3785 C   0  0  0  0  0  0  0  0  0  0  0  0
   23.7410   19.5572   24.2374 H   0  0  0  0  0  0  0  0  0  0  0  0
   23.6922   19.0753   22.5306 H   0  0  0  0  0  0  0  0  0  0  0  0
   22.6276   20.3702   23.1278 H   0  0  0  0  0  0  0  0  0  0  0  0
   21.9949   18.3489   23.7159 C   0  0  0  0  0  0  0  0  0  0  0  0
   21.3758   18.7088   24.5477 H   0  0  0  0  0  0  0  0  0  0  0  0
   22.4909   17.4412   24.0870 H   0  0  0  0  0  0  0  0  0  0  0  0
   21.1054   17.9605   22.5062 C   0  0  0  0  0  0  0  0  0  0  0  0
   21.7371   17.4595   21.7599 H   0  0  0  0  0  0  0  0  0  0  0  0
   20.3843   17.2028   22.8330 H   0  0  0  0  0  0  0  0  0  0  0  0
   20.3685   19.1368   21.8051 C   0  0  0  0  0  0  0  0  0  0  0  0
   19.8361   18.7570   20.9223 H   0  0  0  0  0  0  0  0  0  0  0  0
   21.1223   19.8277   21.4052 H   0  0  0  0  0  0  0  0  0  0  0  0
   19.3801   19.9435   22.6935 C   0  0  0  0  0  0  0  0  0  0  0  0
   19.7227   19.9785   23.7337 H   0  0  0  0  0  0  0  0  0  0  0  0
   19.4016   20.9843   22.3447 H   0  0  0  0  0  0  0  0  0  0  0  0
   17.9067   19.4729   22.6355 C   0  0  1  0  0  0  0  0  0  0  0  0
   17.5766   19.5132   21.5929 H   0  0  0  0  0  0  0  0  0  0  0  0
   17.7149   18.0342   23.1429 C   0  0  0  0  0  0  0  0  0  0  0  0
   18.1717   17.3133   22.4560 H   0  0  0  0  0  0  0  0  0  0  0  0
   16.6487   17.7840   23.2055 H   0  0  0  0  0  0  0  0  0  0  0  0
   18.1560   17.9002   24.1385 H   0  0  0  0  0  0  0  0  0  0  0  0
   17.0133   20.4137   23.3959 N   0  3  0  0  0  0  0  0  0  0  0  0
   17.0875   21.3723   23.0436 H   0  0  0  0  0  0  0  0  0  0  0  0
   16.0301   20.1379   23.3215 H   0  0  0  0  0  0  0  0  0  0  0  0
   17.2505   20.4323   24.3913 H   0  0  0  0  0  0  0  0  0  0  0  0
  1  2  1  0  0  0  0
  1  3  1  0  0  0  0
  1  4  1  0  0  0  0
  1  5  1  0  0  0  0
  5  6  1  0  0  0  0
  5  7  1  0  0  0  0
  5  8  1  0  0  0  0
  8  9  1  0  0  0  0
  8 10  1  0  0  0  0
  8 11  1  0  0  0  0
 11 12  1  0  0  0  0
 11 13  1  0  0  0  0
 11 14  1  0  0  0  0
 14 15  1  0  0  0  0
 14 16  1  0  0  0  0
 14 17  1  0  0  0  0
 17 18  1  0  0  0  0
 17 19  1  0  0  0  0
 19 20  1  0  0  0  0
 19 21  1  0  0  0  0
 19 22  1  0  0  0  0
 17 23  1  0  0  0  0
 23 24  1  0  0  0  0
 23 25  1  0  0  0  0
 23 26  1  0  0  0  0
M  END
> <VConfSearch Rank>
657

> <Conf_Id>
136

> <Delta U+W>
4.272

> <U+W>
-26.026

> <U>
28.262

> <W>
-54.288

> <W(PB)>
-56.488

> <W(SA)>
2.200

> <Valence>
7.096

> <Coulomb>
19.990

> <VdW>
1.175

> <VdW6>
-9.404

> <VdW12>
10.580

> <Bond>
0.360

> <Angle>
2.785

> <Pdih>
3.951

> <Idih>
0.000

> <Tether>
0.000

$$$$
VeraChem MOL file


 26 25  0  0  0  0  0  0  0  0999 V2000     
   22.2095   19.6498   21.3154 C   0  0  0  0  0  0  0  0  0  0  0  0
   21.9925   20.1980   22.2405 H   0  0  0  0  0  0  0  0  0  0  0  0
   23.2165   19.9415   20.9904 H   0  0  0  0  0  0  0  0  0  0  0  0
   21.5006   19.9725   20.5421 H   0  0  0  0  0  0  0  0  0  0  0  0
   22.1356   18.1233   21.5371 C   0  0  0  0  0  0  0  0  0  0  0  0
   22.8144   17.8406   22.3538 H   0  0  0  0  0  0  0  0  0  0  0  0
   22.5151   17.6181   20.6379 H   0  0  0  0  0  0  0  0  0  0  0  0
   20.7116   17.5891   21.8371 C   0  0  0  0  0  0  0  0  0  0  0  0
   20.0491   17.7776   20.9812 H   0  0  0  0  0  0  0  0  0  0  0  0
   20.7806   16.4957   21.9224 H   0  0  0  0  0  0  0  0  0  0  0  0
   20.0762   18.1367   23.1417 C   0  0  0  0  0  0  0  0  0  0  0  0
   20.8636   18.3932   23.8640 H   0  0  0  0  0  0  0  0  0  0  0  0
   19.4912   17.3289   23.6013 H   0  0  0  0  0  0  0  0  0  0  0  0
   19.1426   19.3525   22.9058 C   0  0  0  0  0  0  0  0  0  0  0  0
   19.6804   20.1303   22.3522 H   0  0  0  0  0  0  0  0  0  0  0  0
   18.2992   19.0508   22.2707 H   0  0  0  0  0  0  0  0  0  0  0  0
   18.6079   19.9628   24.2195 C   0  0  1  0  0  0  0  0  0  0  0  0
   19.4643   20.2325   24.8452 H   0  0  0  0  0  0  0  0  0  0  0  0
   17.8033   21.2395   23.9273 C   0  0  0  0  0  0  0  0  0  0  0  0
   16.9287   21.0232   23.3011 H   0  0  0  0  0  0  0  0  0  0  0  0
   18.4225   21.9798   23.4054 H   0  0  0  0  0  0  0  0  0  0  0  0
   17.4513   21.6986   24.8593 H   0  0  0  0  0  0  0  0  0  0  0  0
   17.7812   18.9886   25.0138 N   0  3  0  0  0  0  0  0  0  0  0  0
   16.9561   18.6850   24.4899 H   0  0  0  0  0  0  0  0  0  0  0  0
   18.3186   18.1517   25.2552 H   0  0  0  0  0  0  0  0  0  0  0  0
   17.4522   19.4041   25.8899 H   0  0  0  0  0  0  0  0  0  0  0  0
  1  2  1  0  0  0  0
  1  3  1  0  0  0  0
  1  4  1  0  0  0  0
  1  5  1  0  0  0  0
  5  6  1  0  0  0  0
  5  7  1  0  0  0  0
  5  8  1  0  0  0  0
  8  9  1  0  0  0  0
  8 10  1  0  0  0  0
  8 11  1  0  0  0  0
 11 12  1  0  0  0  0
 11 13  1  0  0  0  0
 11 14  1  0  0  0  0
 14 15  1  0  0  0  0
 14 16  1  0  0  0  0
 14 17  1  0  0  0  0
 17 18  1  0  0  0  0
 17 19  1  0  0  0  0
 19 20  1  0  0  0  0
 19 21  1  0  0  0  0
 19 22  1  0  0  0  0
 17 23  1  0  0  0  0
 23 24  1  0  0  0  0
 23 25  1  0  0  0  0
 23 26  1  0  0  0  0
M  END
> <VConfSearch Rank>
658

> <Conf_Id>
124

> <Delta U+W>
3.001

> <U+W>
-27.298

> <U>
26.787

> <W>
-54.085

> <W(PB)>
-56.347

> <W(SA)>
2.262

> <Valence>
5.742

> <Coulomb>
20.023

> <VdW>
1.022

> <VdW6>
-8.392

> <VdW12>
9.414

> <Bond>
0.261

> <Angle>
1.576

> <Pdih>
3.904

> <Idih>
0.000

> <Tether>
0.000

$$$$
VeraChem MOL file


 26 25  0  0  0  0  0  0  0  0999 V2000     
   20.3239   16.2557   24.1878 C   0  0  0  0  0  0  0  0  0  0  0  0
   19.9648   16.1346   25.2180 H   0  0  0  0  0  0  0  0  0  0  0  0
   20.8085   15.3163   23.8920 H   0  0  0  0  0  0  0  0  0  0  0  0
   21.0905   17.0381   24.1877 H   0  0  0  0  0  0  0  0  0  0  0  0
   19.1542   16.5848   23.2310 C   0  0  0  0  0  0  0  0  0  0  0  0
   18.4459   15.7449   23.2624 H   0  0  0  0  0  0  0  0  0  0  0  0
   19.5126   16.6387   22.1936 H   0  0  0  0  0  0  0  0  0  0  0  0
   18.3954   17.8835   23.6078 C   0  0  0  0  0  0  0  0  0  0  0  0
   17.3316   17.7362   23.3752 H   0  0  0  0  0  0  0  0  0  0  0  0
   18.4398   18.0489   24.6931 H   0  0  0  0  0  0  0  0  0  0  0  0
   18.8648   19.1546   22.8539 C   0  0  0  0  0  0  0  0  0  0  0  0
   18.2024   19.9813   23.1414 H   0  0  0  0  0  0  0  0  0  0  0  0
   18.7178   19.0035   21.7762 H   0  0  0  0  0  0  0  0  0  0  0  0
   20.3390   19.5503   23.1328 C   0  0  0  0  0  0  0  0  0  0  0  0
   20.5155   19.5532   24.2163 H   0  0  0  0  0  0  0  0  0  0  0  0
   21.0052   18.7869   22.7125 H   0  0  0  0  0  0  0  0  0  0  0  0
   20.7621   20.9245   22.5619 C   0  0  1  0  0  0  0  0  0  0  0  0
   21.8140   21.0752   22.8240 H   0  0  0  0  0  0  0  0  0  0  0  0
   20.6529   20.9707   21.0278 C   0  0  0  0  0  0  0  0  0  0  0  0
   19.6097   20.9160   20.6942 H   0  0  0  0  0  0  0  0  0  0  0  0
   21.2038   20.1384   20.5726 H   0  0  0  0  0  0  0  0  0  0  0  0
   21.0803   21.9037   20.6406 H   0  0  0  0  0  0  0  0  0  0  0  0
   20.0101   22.0654   23.1908 N   0  3  0  0  0  0  0  0  0  0  0  0
   20.3474   22.9695   22.8485 H   0  0  0  0  0  0  0  0  0  0  0  0
   19.0102   22.0123   22.9820 H   0  0  0  0  0  0  0  0  0  0  0  0
   20.1128   22.0667   24.2096 H   0  0  0  0  0  0  0  0  0  0  0  0
  1  2  1  0  0  0  0
  1  3  1  0  0  0  0
  1  4  1  0  0  0  0
  1  5  1  0  0  0  0
  5  6  1  0  0  0  0
  5  7  1  0  0  0  0
  5  8  1  0  0  0  0
  8  9  1  0  0  0  0
  8 10  1  0  0  0  0
  8 11  1  0  0  0  0
 11 12  1  0  0  0  0
 11 13  1  0  0  0  0
 11 14  1  0  0  0  0
 14 15  1  0  0  0  0
 14 16  1  0  0  0  0
 14 17  1  0  0  0  0
 17 18  1  0  0  0  0
 17 19  1  0  0  0  0
 19 20  1  0  0  0  0
 19 21  1  0  0  0  0
 19 22  1  0  0  0  0
 17 23  1  0  0  0  0
 23 24  1  0  0  0  0
 23 25  1  0  0  0  0
 23 26  1  0  0  0  0
M  END
> <VConfSearch Rank>
659

> <Conf_Id>
105

> <Delta U+W>
3.442

> <U+W>
-26.857

> <U>
27.313

> <W>
-54.169

> <W(PB)>
-56.414

> <W(SA)>
2.245

> <Valence>
6.229

> <Coulomb>
19.943

> <VdW>
1.140

> <VdW6>
-9.001

> <VdW12>
10.140

> <Bond>
0.294

> <Angle>
1.969

> <Pdih>
3.967

> <Idih>
0.000

> <Tether>
0.000

$$$$
VeraChem MOL file


 26 25  0  0  0  0  0  0  0  0999 V2000     
   18.7196   19.8767   25.7544 C   0  0  0  0  0  0  0  0  0  0  0  0
   17.6347   19.8122   25.9089 H   0  0  0  0  0  0  0  0  0  0  0  0
   19.1533   20.3599   26.6394 H   0  0  0  0  0  0  0  0  0  0  0  0
   18.8997   20.5341   24.8970 H   0  0  0  0  0  0  0  0  0  0  0  0
   19.3326   18.4714   25.5515 C   0  0  0  0  0  0  0  0  0  0  0  0
   19.1421   17.8856   26.4617 H   0  0  0  0  0  0  0  0  0  0  0  0
   20.4255   18.5408   25.4604 H   0  0  0  0  0  0  0  0  0  0  0  0
   18.7380   17.7068   24.3407 C   0  0  0  0  0  0  0  0  0  0  0  0
   18.7028   16.6386   24.5959 H   0  0  0  0  0  0  0  0  0  0  0  0
   17.6933   18.0058   24.1779 H   0  0  0  0  0  0  0  0  0  0  0  0
   19.5449   17.8440   23.0237 C   0  0  0  0  0  0  0  0  0  0  0  0
   19.0745   17.2036   22.2646 H   0  0  0  0  0  0  0  0  0  0  0  0
   20.5558   17.4443   23.1803 H   0  0  0  0  0  0  0  0  0  0  0  0
   19.6302   19.2904   22.4773 C   0  0  0  0  0  0  0  0  0  0  0  0
   18.6226   19.7268   22.4645 H   0  0  0  0  0  0  0  0  0  0  0  0
   20.2394   19.9075   23.1494 H   0  0  0  0  0  0  0  0  0  0  0  0
   20.2215   19.3589   21.0528 C   0  0  1  0  0  0  0  0  0  0  0  0
   19.6142   18.7255   20.3988 H   0  0  0  0  0  0  0  0  0  0  0  0
   20.1636   20.7991   20.5188 C   0  0  0  0  0  0  0  0  0  0  0  0
   20.7612   21.4776   21.1405 H   0  0  0  0  0  0  0  0  0  0  0  0
   19.1306   21.1687   20.5055 H   0  0  0  0  0  0  0  0  0  0  0  0
   20.5476   20.8485   19.4925 H   0  0  0  0  0  0  0  0  0  0  0  0
   21.6271   18.8268   20.9873 N   0  3  0  0  0  0  0  0  0  0  0  0
   21.6731   17.8536   21.3006 H   0  0  0  0  0  0  0  0  0  0  0  0
   21.9952   18.8587   20.0324 H   0  0  0  0  0  0  0  0  0  0  0  0
   22.2605   19.3716   21.5783 H   0  0  0  0  0  0  0  0  0  0  0  0
  1  2  1  0  0  0  0
  1  3  1  0  0  0  0
  1  4  1  0  0  0  0
  1  5  1  0  0  0  0
  5  6  1  0  0  0  0
  5  7  1  0  0  0  0
  5  8  1  0  0  0  0
  8  9  1  0  0  0  0
  8 10  1  0  0  0  0
  8 11  1  0  0  0  0
 11 12  1  0  0  0  0
 11 13  1  0  0  0  0
 11 14  1  0  0  0  0
 14 15  1  0  0  0  0
 14 16  1  0  0  0  0
 14 17  1  0  0  0  0
 17 18  1  0  0  0  0
 17 19  1  0  0  0  0
 19 20  1  0  0  0  0
 19 21  1  0  0  0  0
 19 22  1  0  0  0  0
 17 23  1  0  0  0  0
 23 24  1  0  0  0  0
 23 25  1  0  0  0  0
 23 26  1  0  0  0  0
M  END
> <VConfSearch Rank>
660

> <Conf_Id>
107

> <Delta U+W>
2.995

> <U+W>
-27.304

> <U>
26.796

> <W>
-54.100

> <W(PB)>
-56.404

> <W(SA)>
2.304

> <Valence>
5.706

> <Coulomb>
20.107

> <VdW>
0.982

> <VdW6>
-8.396

> <VdW12>
9.378

> <Bond>
0.254

> <Angle>
1.644

> <Pdih>
3.808

> <Idih>
0.000

> <Tether>
0.000

$$$$
VeraChem MOL file


 26 25  0  0  0  0  0  0  0  0999 V2000     
   20.8870   22.8895   21.4557 C   0  0  0  0  0  0  0  0  0  0  0  0
   21.7138   23.0944   22.1483 H   0  0  0  0  0  0  0  0  0  0  0  0
   21.1411   23.3368   20.4859 H   0  0  0  0  0  0  0  0  0  0  0  0
   19.9896   23.3953   21.8353 H   0  0  0  0  0  0  0  0  0  0  0  0
   20.6485   21.3716   21.3099 C   0  0  0  0  0  0  0  0  0  0  0  0
   21.5507   20.8989   20.8969 H   0  0  0  0  0  0  0  0  0  0  0  0
   19.8398   21.1977   20.5863 H   0  0  0  0  0  0  0  0  0  0  0  0
   20.2888   20.7167   22.6620 C   0  0  0  0  0  0  0  0  0  0  0  0
   21.0988   20.8966   23.3824 H   0  0  0  0  0  0  0  0  0  0  0  0
   19.3876   21.1936   23.0716 H   0  0  0  0  0  0  0  0  0  0  0  0
   20.0500   19.1963   22.5203 C   0  0  0  0  0  0  0  0  0  0  0  0
   20.9532   18.7202   22.1139 H   0  0  0  0  0  0  0  0  0  0  0  0
   19.2442   19.0252   21.7941 H   0  0  0  0  0  0  0  0  0  0  0  0
   19.6884   18.5432   23.8765 C   0  0  0  0  0  0  0  0  0  0  0  0
   20.4798   18.7722   24.6027 H   0  0  0  0  0  0  0  0  0  0  0  0
   18.7645   18.9888   24.2689 H   0  0  0  0  0  0  0  0  0  0  0  0
   19.5270   17.0103   23.7836 C   0  0  1  0  0  0  0  0  0  0  0  0
   20.4497   16.5930   23.3685 H   0  0  0  0  0  0  0  0  0  0  0  0
   19.3125   16.4098   25.1821 C   0  0  0  0  0  0  0  0  0  0  0  0
   18.3950   16.7960   25.6437 H   0  0  0  0  0  0  0  0  0  0  0  0
   20.1547   16.6499   25.8430 H   0  0  0  0  0  0  0  0  0  0  0  0
   19.2339   15.3170   25.1277 H   0  0  0  0  0  0  0  0  0  0  0  0
   18.4128   16.6030   22.8582 N   0  3  0  0  0  0  0  0  0  0  0  0
   17.5100   16.9613   23.1805 H   0  0  0  0  0  0  0  0  0  0  0  0
   18.5651   16.9577   21.9104 H   0  0  0  0  0  0  0  0  0  0  0  0
   18.3331   15.5842   22.7943 H   0  0  0  0  0  0  0  0  0  0  0  0
  1  2  1  0  0  0  0
  1  3  1  0  0  0  0
  1  4  1  0  0  0  0
  1  5  1  0  0  0  0
  5  6  1  0  0  0  0
  5  7  1  0  0  0  0
  5  8  1  0  0  0  0
  8  9  1  0  0  0  0
  8 10  1  0  0  0  0
  8 11  1  0  0  0  0
 11 12  1  0  0  0  0
 11 13  1  0  0  0  0
 11 14  1  0  0  0  0
 14 15  1  0  0  0  0
 14 16  1  0  0  0  0
 14 17  1  0  0  0  0
 17 18  1  0  0  0  0
 17 19  1  0  0  0  0
 19 20  1  0  0  0  0
 19 21  1  0  0  0  0
 19 22  1  0  0  0  0
 17 23  1  0  0  0  0
 23 24  1  0  0  0  0
 23 25  1  0  0  0  0
 23 26  1  0  0  0  0
M  END
> <VConfSearch Rank>
661

> <Conf_Id>
122

> <Delta U+W>
0.000

> <U+W>
-30.299

> <U>
23.517

> <W>
-53.816

> <W(PB)>
-56.162

> <W(SA)>
2.346

> <Valence>
2.737

> <Coulomb>
19.862

> <VdW>
0.919

> <VdW6>
-6.793

> <VdW12>
7.712

> <Bond>
0.171

> <Angle>
0.873

> <Pdih>
1.693

> <Idih>
0.000

> <Tether>
0.000

$$$$
VeraChem MOL file


 26 25  0  0  0  0  0  0  0  0999 V2000     
   16.9355   19.5598   19.9186 C   0  0  0  0  0  0  0  0  0  0  0  0
   16.4140   18.9174   19.1972 H   0  0  0  0  0  0  0  0  0  0  0  0
   16.1762   20.0794   20.5176 H   0  0  0  0  0  0  0  0  0  0  0  0
   17.4992   20.3131   19.3530 H   0  0  0  0  0  0  0  0  0  0  0  0
   17.8726   18.7233   20.8153 C   0  0  0  0  0  0  0  0  0  0  0  0
   18.5984   18.1894   20.1859 H   0  0  0  0  0  0  0  0  0  0  0  0
   17.2857   17.9575   21.3417 H   0  0  0  0  0  0  0  0  0  0  0  0
   18.6198   19.6043   21.8410 C   0  0  0  0  0  0  0  0  0  0  0  0
   19.2035   20.3693   21.3103 H   0  0  0  0  0  0  0  0  0  0  0  0
   17.8895   20.1380   22.4650 H   0  0  0  0  0  0  0  0  0  0  0  0
   19.5592   18.7700   22.7413 C   0  0  0  0  0  0  0  0  0  0  0  0
   20.2784   18.2350   22.1074 H   0  0  0  0  0  0  0  0  0  0  0  0
   18.9740   18.0084   23.2752 H   0  0  0  0  0  0  0  0  0  0  0  0
   20.3099   19.6565   23.7653 C   0  0  0  0  0  0  0  0  0  0  0  0
   20.9468   20.3770   23.2349 H   0  0  0  0  0  0  0  0  0  0  0  0
   19.5715   20.2466   24.3240 H   0  0  0  0  0  0  0  0  0  0  0  0
   21.1617   18.8557   24.7768 C   0  0  1  0  0  0  0  0  0  0  0  0
   20.5149   18.1176   25.2612 H   0  0  0  0  0  0  0  0  0  0  0  0
   22.3248   18.1119   24.0959 C   0  0  0  0  0  0  0  0  0  0  0  0
   22.9687   18.8054   23.5409 H   0  0  0  0  0  0  0  0  0  0  0  0
   21.9578   17.3501   23.3986 H   0  0  0  0  0  0  0  0  0  0  0  0
   22.9430   17.5969   24.8416 H   0  0  0  0  0  0  0  0  0  0  0  0
   21.6830   19.7454   25.8710 N   0  3  0  0  0  0  0  0  0  0  0  0
   22.3045   20.4694   25.5009 H   0  0  0  0  0  0  0  0  0  0  0  0
   20.9223   20.2177   26.3680 H   0  0  0  0  0  0  0  0  0  0  0  0
   22.2146   19.2125   26.5652 H   0  0  0  0  0  0  0  0  0  0  0  0
  1  2  1  0  0  0  0
  1  3  1  0  0  0  0
  1  4  1  0  0  0  0
  1  5  1  0  0  0  0
  5  6  1  0  0  0  0
  5  7  1  0  0  0  0
  5  8  1  0  0  0  0
  8  9  1  0  0  0  0
  8 10  1  0  0  0  0
  8 11  1  0  0  0  0
 11 12  1  0  0  0  0
 11 13  1  0  0  0  0
 11 14  1  0  0  0  0
 14 15  1  0  0  0  0
 14 16  1  0  0  0  0
 14 17  1  0  0  0  0
 17 18  1  0  0  0  0
 17 19  1  0  0  0  0
 19 20  1  0  0  0  0
 19 21  1  0  0  0  0
 19 22  1  0  0  0  0
 17 23  1  0  0  0  0
 23 24  1  0  0  0  0
 23 25  1  0  0  0  0
 23 26  1  0  0  0  0
M  END
> <VConfSearch Rank>
662

> <Conf_Id>
54

> <Delta U+W>
0.453

> <U+W>
-29.845

> <U>
23.817

> <W>
-53.663

> <W(PB)>
-56.021

> <W(SA)>
2.358

> <Valence>
3.277

> <Coulomb>
19.492

> <VdW>
1.049

> <VdW6>
-6.949

> <VdW12>
7.998

> <Bond>
0.183

> <Angle>
1.152

> <Pdih>
1.942

> <Idih>
0.000

> <Tether>
0.000

$$$$
VeraChem MOL file


 26 25  0  0  0  0  0  0  0  0999 V2000     
   21.6653   16.5349   21.1239 C   0  0  0  0  0  0  0  0  0  0  0  0
   22.4761   16.5666   21.8632 H   0  0  0  0  0  0  0  0  0  0  0  0
   20.8631   15.9006   21.5201 H   0  0  0  0  0  0  0  0  0  0  0  0
   22.0543   16.0464   20.2211 H   0  0  0  0  0  0  0  0  0  0  0  0
   21.1592   17.9574   20.7921 C   0  0  0  0  0  0  0  0  0  0  0  0
   20.3264   17.8982   20.0774 H   0  0  0  0  0  0  0  0  0  0  0  0
   21.9636   18.5045   20.2808 H   0  0  0  0  0  0  0  0  0  0  0  0
   20.7257   18.7673   22.0382 C   0  0  0  0  0  0  0  0  0  0  0  0
   21.5527   18.7966   22.7610 H   0  0  0  0  0  0  0  0  0  0  0  0
   20.5460   19.7989   21.7132 H   0  0  0  0  0  0  0  0  0  0  0  0
   19.4470   18.2153   22.7177 C   0  0  0  0  0  0  0  0  0  0  0  0
   19.5799   17.1465   22.9274 H   0  0  0  0  0  0  0  0  0  0  0  0
   18.6028   18.2854   22.0181 H   0  0  0  0  0  0  0  0  0  0  0  0
   19.0682   18.9071   24.0540 C   0  0  0  0  0  0  0  0  0  0  0  0
   18.2153   18.3546   24.4705 H   0  0  0  0  0  0  0  0  0  0  0  0
   19.8815   18.7937   24.7830 H   0  0  0  0  0  0  0  0  0  0  0  0
   18.6765   20.3988   23.9279 C   0  0  1  0  0  0  0  0  0  0  0  0
   18.1066   20.5294   23.0029 H   0  0  0  0  0  0  0  0  0  0  0  0
   17.7831   20.8199   25.1066 C   0  0  0  0  0  0  0  0  0  0  0  0
   17.4894   21.8729   25.0151 H   0  0  0  0  0  0  0  0  0  0  0  0
   18.3031   20.6916   26.0643 H   0  0  0  0  0  0  0  0  0  0  0  0
   16.8637   20.2217   25.1337 H   0  0  0  0  0  0  0  0  0  0  0  0
   19.8704   21.3110   23.8479 N   0  3  0  0  0  0  0  0  0  0  0  0
   20.4815   21.0620   23.0671 H   0  0  0  0  0  0  0  0  0  0  0  0
   19.5874   22.2867   23.7198 H   0  0  0  0  0  0  0  0  0  0  0  0
   20.4304   21.2656   24.7033 H   0  0  0  0  0  0  0  0  0  0  0  0
  1  2  1  0  0  0  0
  1  3  1  0  0  0  0
  1  4  1  0  0  0  0
  1  5  1  0  0  0  0
  5  6  1  0  0  0  0
  5  7  1  0  0  0  0
  5  8  1  0  0  0  0
  8  9  1  0  0  0  0
  8 10  1  0  0  0  0
  8 11  1  0  0  0  0
 11 12  1  0  0  0  0
 11 13  1  0  0  0  0
 11 14  1  0  0  0  0
 14 15  1  0  0  0  0
 14 16  1  0  0  0  0
 14 17  1  0  0  0  0
 17 18  1  0  0  0  0
 17 19  1  0  0  0  0
 19 20  1  0  0  0  0
 19 21  1  0  0  0  0
 19 22  1  0  0  0  0
 17 23  1  0  0  0  0
 23 24  1  0  0  0  0
 23 25  1  0  0  0  0
 23 26  1  0  0  0  0
M  END
> <VConfSearch Rank>
663

> <Conf_Id>
110

> <Delta U+W>
3.764

> <U+W>
-26.535

> <U>
27.400

> <W>
-53.935

> <W(PB)>
-56.238

> <W(SA)>
2.303

> <Valence>
5.205

> <Coulomb>
21.096

> <VdW>
1.098

> <VdW6>
-8.389

> <VdW12>
9.488

> <Bond>
0.270

> <Angle>
1.912

> <Pdih>
3.023

> <Idih>
0.000

> <Tether>
0.000

$$$$
VeraChem MOL file


 26 25  0  0  0  0  0  0  0  0999 V2000     
   20.7932   15.6856   22.2032 C   0  0  0  0  0  0  0  0  0  0  0  0
   21.5829   14.9319   22.0882 H   0  0  0  0  0  0  0  0  0  0  0  0
   20.4238   15.6211   23.2342 H   0  0  0  0  0  0  0  0  0  0  0  0
   19.9722   15.4176   21.5256 H   0  0  0  0  0  0  0  0  0  0  0  0
   21.3404   17.0952   21.8832 C   0  0  0  0  0  0  0  0  0  0  0  0
   21.8075   17.0763   20.8886 H   0  0  0  0  0  0  0  0  0  0  0  0
   22.1394   17.3510   22.5931 H   0  0  0  0  0  0  0  0  0  0  0  0
   20.2533   18.1967   21.9006 C   0  0  0  0  0  0  0  0  0  0  0  0
   20.7059   19.1332   21.5532 H   0  0  0  0  0  0  0  0  0  0  0  0
   19.4718   17.9487   21.1691 H   0  0  0  0  0  0  0  0  0  0  0  0
   19.6088   18.4032   23.2957 C   0  0  0  0  0  0  0  0  0  0  0  0
   20.3850   18.5175   24.0649 H   0  0  0  0  0  0  0  0  0  0  0  0
   19.0512   17.4947   23.5594 H   0  0  0  0  0  0  0  0  0  0  0  0
   18.6271   19.6040   23.3467 C   0  0  0  0  0  0  0  0  0  0  0  0
   18.2007   19.7904   22.3521 H   0  0  0  0  0  0  0  0  0  0  0  0
   17.7810   19.3179   23.9854 H   0  0  0  0  0  0  0  0  0  0  0  0
   19.2264   20.9084   23.9256 C   0  0  1  0  0  0  0  0  0  0  0  0
   19.5990   20.6936   24.9319 H   0  0  0  0  0  0  0  0  0  0  0  0
   20.3962   21.4520   23.0879 C   0  0  0  0  0  0  0  0  0  0  0  0
   20.0992   21.6068   22.0432 H   0  0  0  0  0  0  0  0  0  0  0  0
   21.2493   20.7640   23.1101 H   0  0  0  0  0  0  0  0  0  0  0  0
   20.7456   22.4116   23.4882 H   0  0  0  0  0  0  0  0  0  0  0  0
   18.1674   21.9639   24.0849 N   0  3  0  0  0  0  0  0  0  0  0  0
   17.3996   21.6414   24.6808 H   0  0  0  0  0  0  0  0  0  0  0  0
   18.5472   22.8135   24.5119 H   0  0  0  0  0  0  0  0  0  0  0  0
   17.7652   22.2298   23.1821 H   0  0  0  0  0  0  0  0  0  0  0  0
  1  2  1  0  0  0  0
  1  3  1  0  0  0  0
  1  4  1  0  0  0  0
  1  5  1  0  0  0  0
  5  6  1  0  0  0  0
  5  7  1  0  0  0  0
  5  8  1  0  0  0  0
  8  9  1  0  0  0  0
  8 10  1  0  0  0  0
  8 11  1  0  0  0  0
 11 12  1  0  0  0  0
 11 13  1  0  0  0  0
 11 14  1  0  0  0  0
 14 15  1  0  0  0  0
 14 16  1  0  0  0  0
 14 17  1  0  0  0  0
 17 18  1  0  0  0  0
 17 19  1  0  0  0  0
 19 20  1  0  0  0  0
 19 21  1  0  0  0  0
 19 22  1  0  0  0  0
 17 23  1  0  0  0  0
 23 24  1  0  0  0  0
 23 25  1  0  0  0  0
 23 26  1  0  0  0  0
M  END
> <VConfSearch Rank>
664

> <Conf_Id>
34

> <Delta U+W>
3.568

> <U+W>
-26.731

> <U>
27.221

> <W>
-53.952

> <W(PB)>
-56.213

> <W(SA)>
2.261

> <Valence>
6.368

> <Coulomb>
19.698

> <VdW>
1.155

> <VdW6>
-8.532

> <VdW12>
9.687

> <Bond>
0.272

> <Angle>
1.847

> <Pdih>
4.248

> <Idih>
0.000

> <Tether>
0.000

$$$$
VeraChem MOL file


 26 25  0  0  0  0  0  0  0  0999 V2000     
   23.6630   19.2027   21.5268 C   0  0  0  0  0  0  0  0  0  0  0  0
   23.9503   20.1902   21.9108 H   0  0  0  0  0  0  0  0  0  0  0  0
   24.0915   18.4400   22.1901 H   0  0  0  0  0  0  0  0  0  0  0  0
   24.1181   19.0812   20.5353 H   0  0  0  0  0  0  0  0  0  0  0  0
   22.1280   19.0654   21.4424 C   0  0  0  0  0  0  0  0  0  0  0  0
   21.8726   18.0818   21.0237 H   0  0  0  0  0  0  0  0  0  0  0  0
   21.7325   19.8186   20.7465 H   0  0  0  0  0  0  0  0  0  0  0  0
   21.4618   19.2325   22.8261 C   0  0  0  0  0  0  0  0  0  0  0  0
   21.8625   18.4790   23.5183 H   0  0  0  0  0  0  0  0  0  0  0  0
   21.7224   20.2159   23.2413 H   0  0  0  0  0  0  0  0  0  0  0  0
   19.9244   19.0960   22.7459 C   0  0  0  0  0  0  0  0  0  0  0  0
   19.6716   18.1123   22.3287 H   0  0  0  0  0  0  0  0  0  0  0  0
   19.5350   19.8495   22.0488 H   0  0  0  0  0  0  0  0  0  0  0  0
   19.2619   19.2677   24.1378 C   0  0  0  0  0  0  0  0  0  0  0  0
   19.6967   18.5407   24.8362 H   0  0  0  0  0  0  0  0  0  0  0  0
   19.5124   20.2587   24.5391 H   0  0  0  0  0  0  0  0  0  0  0  0
   17.7239   19.1000   24.1530 C   0  0  1  0  0  0  0  0  0  0  0  0
   17.3951   19.2150   25.1905 H   0  0  0  0  0  0  0  0  0  0  0  0
   17.0154   20.1814   23.3185 C   0  0  0  0  0  0  0  0  0  0  0  0
   17.2223   20.0683   22.2477 H   0  0  0  0  0  0  0  0  0  0  0  0
   17.3357   21.1843   23.6271 H   0  0  0  0  0  0  0  0  0  0  0  0
   15.9290   20.1221   23.4575 H   0  0  0  0  0  0  0  0  0  0  0  0
   17.2919   17.7230   23.7293 N   0  3  0  0  0  0  0  0  0  0  0  0
   16.2772   17.6093   23.8056 H   0  0  0  0  0  0  0  0  0  0  0  0
   17.5493   17.5352   22.7574 H   0  0  0  0  0  0  0  0  0  0  0  0
   17.7250   16.9985   24.3089 H   0  0  0  0  0  0  0  0  0  0  0  0
  1  2  1  0  0  0  0
  1  3  1  0  0  0  0
  1  4  1  0  0  0  0
  1  5  1  0  0  0  0
  5  6  1  0  0  0  0
  5  7  1  0  0  0  0
  5  8  1  0  0  0  0
  8  9  1  0  0  0  0
  8 10  1  0  0  0  0
  8 11  1  0  0  0  0
 11 12  1  0  0  0  0
 11 13  1  0  0  0  0
 11 14  1  0  0  0  0
 14 15  1  0  0  0  0
 14 16  1  0  0  0  0
 14 17  1  0  0  0  0
 17 18  1  0  0  0  0
 17 19  1  0  0  0  0
 19 20  1  0  0  0  0
 19 21  1  0  0  0  0
 19 22  1  0  0  0  0
 17 23  1  0  0  0  0
 23 24  1  0  0  0  0
 23 25  1  0  0  0  0
 23 26  1  0  0  0  0
M  END
> <VConfSearch Rank>
665

> <Conf_Id>
132

> <Delta U+W>
0.363

> <U+W>
-29.936

> <U>
24.060

> <W>
-53.996

> <W(PB)>
-56.327

> <W(SA)>
2.332

> <Valence>
3.249

> <Coulomb>
19.781

> <VdW>
1.030

> <VdW6>
-7.421

> <VdW12>
8.451

> <Bond>
0.207

> <Angle>
1.205

> <Pdih>
1.837

> <Idih>
0.000

> <Tether>
0.000

$$$$
VeraChem MOL file


 26 25  0  0  0  0  0  0  0  0999 V2000     
   20.4419   22.0849   20.4340 C   0  0  0  0  0  0  0  0  0  0  0  0
   19.7349   22.3871   19.6505 H   0  0  0  0  0  0  0  0  0  0  0  0
   20.6992   22.9782   21.0180 H   0  0  0  0  0  0  0  0  0  0  0  0
   21.3546   21.7227   19.9430 H   0  0  0  0  0  0  0  0  0  0  0  0
   19.8250   20.9922   21.3328 C   0  0  0  0  0  0  0  0  0  0  0  0
   19.5438   20.1349   20.7072 H   0  0  0  0  0  0  0  0  0  0  0  0
   18.8995   21.3738   21.7862 H   0  0  0  0  0  0  0  0  0  0  0  0
   20.8062   20.5468   22.4430 C   0  0  0  0  0  0  0  0  0  0  0  0
   21.7085   20.1145   21.9889 H   0  0  0  0  0  0  0  0  0  0  0  0
   21.1375   21.4334   23.0010 H   0  0  0  0  0  0  0  0  0  0  0  0
   20.1944   19.5379   23.4461 C   0  0  0  0  0  0  0  0  0  0  0  0
   19.2976   19.9797   23.9003 H   0  0  0  0  0  0  0  0  0  0  0  0
   20.9159   19.3935   24.2605 H   0  0  0  0  0  0  0  0  0  0  0  0
   19.8501   18.1646   22.8067 C   0  0  0  0  0  0  0  0  0  0  0  0
   19.1053   18.3040   22.0139 H   0  0  0  0  0  0  0  0  0  0  0  0
   20.7437   17.7579   22.3153 H   0  0  0  0  0  0  0  0  0  0  0  0
   19.3000   17.1072   23.7933 C   0  0  1  0  0  0  0  0  0  0  0  0
   19.0492   16.2174   23.2076 H   0  0  0  0  0  0  0  0  0  0  0  0
   20.3461   16.6906   24.8422 C   0  0  0  0  0  0  0  0  0  0  0  0
   20.5736   17.5075   25.5370 H   0  0  0  0  0  0  0  0  0  0  0  0
   21.2805   16.3790   24.3591 H   0  0  0  0  0  0  0  0  0  0  0  0
   19.9790   15.8425   25.4330 H   0  0  0  0  0  0  0  0  0  0  0  0
   18.0212   17.5466   24.4518 N   0  3  0  0  0  0  0  0  0  0  0  0
   17.3037   17.7811   23.7600 H   0  0  0  0  0  0  0  0  0  0  0  0
   17.6379   16.8115   25.0528 H   0  0  0  0  0  0  0  0  0  0  0  0
   18.1691   18.3737   25.0352 H   0  0  0  0  0  0  0  0  0  0  0  0
  1  2  1  0  0  0  0
  1  3  1  0  0  0  0
  1  4  1  0  0  0  0
  1  5  1  0  0  0  0
  5  6  1  0  0  0  0
  5  7  1  0  0  0  0
  5  8  1  0  0  0  0
  8  9  1  0  0  0  0
  8 10  1  0  0  0  0
  8 11  1  0  0  0  0
 11 12  1  0  0  0  0
 11 13  1  0  0  0  0
 11 14  1  0  0  0  0
 14 15  1  0  0  0  0
 14 16  1  0  0  0  0
 14 17  1  0  0  0  0
 17 18  1  0  0  0  0
 17 19  1  0  0  0  0
 19 20  1  0  0  0  0
 19 21  1  0  0  0  0
 19 22  1  0  0  0  0
 17 23  1  0  0  0  0
 23 24  1  0  0  0  0
 23 25  1  0  0  0  0
 23 26  1  0  0  0  0
M  END
> <VConfSearch Rank>
666

> <Conf_Id>
46

> <Delta U+W>
1.114

> <U+W>
-29.185

> <U>
24.990

> <W>
-54.175

> <W(PB)>
-56.455

> <W(SA)>
2.279

> <Valence>
3.862

> <Coulomb>
19.956

> <VdW>
1.172

> <VdW6>
-8.054

> <VdW12>
9.226

> <Bond>
0.258

> <Angle>
1.499

> <Pdih>
2.106

> <Idih>
0.000

> <Tether>
0.000

$$$$
VeraChem MOL file


 26 25  0  0  0  0  0  0  0  0999 V2000     
   17.0722   21.4106   22.2025 C   0  0  0  0  0  0  0  0  0  0  0  0
   16.5193   20.5244   22.5374 H   0  0  0  0  0  0  0  0  0  0  0  0
   17.2201   22.0714   23.0665 H   0  0  0  0  0  0  0  0  0  0  0  0
   16.4382   21.9403   21.4798 H   0  0  0  0  0  0  0  0  0  0  0  0
   18.4237   21.0282   21.5573 C   0  0  0  0  0  0  0  0  0  0  0  0
   18.8766   21.9319   21.1260 H   0  0  0  0  0  0  0  0  0  0  0  0
   18.2512   20.3406   20.7175 H   0  0  0  0  0  0  0  0  0  0  0  0
   19.4274   20.3983   22.5531 C   0  0  0  0  0  0  0  0  0  0  0  0
   20.3900   20.2835   22.0381 H   0  0  0  0  0  0  0  0  0  0  0  0
   19.6029   21.0942   23.3851 H   0  0  0  0  0  0  0  0  0  0  0  0
   18.9662   19.0265   23.1080 C   0  0  0  0  0  0  0  0  0  0  0  0
   18.7624   18.3383   22.2771 H   0  0  0  0  0  0  0  0  0  0  0  0
   18.0147   19.1488   23.6414 H   0  0  0  0  0  0  0  0  0  0  0  0
   19.9851   18.3899   24.0881 C   0  0  0  0  0  0  0  0  0  0  0  0
   20.1048   19.0549   24.9538 H   0  0  0  0  0  0  0  0  0  0  0  0
   19.5670   17.4523   24.4781 H   0  0  0  0  0  0  0  0  0  0  0  0
   21.3747   18.1104   23.4721 C   0  0  1  0  0  0  0  0  0  0  0  0
   21.7894   19.0563   23.1119 H   0  0  0  0  0  0  0  0  0  0  0  0
   22.3280   17.5462   24.5375 C   0  0  0  0  0  0  0  0  0  0  0  0
   23.3277   17.3829   24.1166 H   0  0  0  0  0  0  0  0  0  0  0  0
   21.9625   16.5894   24.9312 H   0  0  0  0  0  0  0  0  0  0  0  0
   22.4305   18.2444   25.3776 H   0  0  0  0  0  0  0  0  0  0  0  0
   21.3017   17.1894   22.2851 N   0  3  0  0  0  0  0  0  0  0  0  0
   20.6993   17.5746   21.5527 H   0  0  0  0  0  0  0  0  0  0  0  0
   22.2262   17.0345   21.8733 H   0  0  0  0  0  0  0  0  0  0  0  0
   20.9247   16.2744   22.5456 H   0  0  0  0  0  0  0  0  0  0  0  0
  1  2  1  0  0  0  0
  1  3  1  0  0  0  0
  1  4  1  0  0  0  0
  1  5  1  0  0  0  0
  5  6  1  0  0  0  0
  5  7  1  0  0  0  0
  5  8  1  0  0  0  0
  8  9  1  0  0  0  0
  8 10  1  0  0  0  0
  8 11  1  0  0  0  0
 11 12  1  0  0  0  0
 11 13  1  0  0  0  0
 11 14  1  0  0  0  0
 14 15  1  0  0  0  0
 14 16  1  0  0  0  0
 14 17  1  0  0  0  0
 17 18  1  0  0  0  0
 17 19  1  0  0  0  0
 19 20  1  0  0  0  0
 19 21  1  0  0  0  0
 19 22  1  0  0  0  0
 17 23  1  0  0  0  0
 23 24  1  0  0  0  0
 23 25  1  0  0  0  0
 23 26  1  0  0  0  0
M  END
> <VConfSearch Rank>
667

> <Conf_Id>
113

> <Delta U+W>
1.137

> <U+W>
-29.162

> <U>
24.833

> <W>
-53.995

> <W(PB)>
-56.288

> <W(SA)>
2.294

> <Valence>
3.589

> <Coulomb>
20.270

> <VdW>
0.974

> <VdW6>
-8.255

> <VdW12>
9.229

> <Bond>
0.244

> <Angle>
1.377

> <Pdih>
1.967

> <Idih>
0.000

> <Tether>
0.000

$$$$
VeraChem MOL file


 26 25  0  0  0  0  0  0  0  0999 V2000     
   18.8799   15.7080   21.2589 C   0  0  0  0  0  0  0  0  0  0  0  0
   18.4250   14.8588   21.7853 H   0  0  0  0  0  0  0  0  0  0  0  0
   18.1569   16.0710   20.5168 H   0  0  0  0  0  0  0  0  0  0  0  0
   19.7634   15.3375   20.7229 H   0  0  0  0  0  0  0  0  0  0  0  0
   19.2614   16.8248   22.2536 C   0  0  0  0  0  0  0  0  0  0  0  0
   19.9617   16.4240   22.9998 H   0  0  0  0  0  0  0  0  0  0  0  0
   18.3610   17.1391   22.7978 H   0  0  0  0  0  0  0  0  0  0  0  0
   19.9011   18.0353   21.5335 C   0  0  0  0  0  0  0  0  0  0  0  0
   20.7505   17.6838   20.9316 H   0  0  0  0  0  0  0  0  0  0  0  0
   19.1809   18.4683   20.8256 H   0  0  0  0  0  0  0  0  0  0  0  0
   20.4065   19.1354   22.4991 C   0  0  0  0  0  0  0  0  0  0  0  0
   20.9466   19.8863   21.9079 H   0  0  0  0  0  0  0  0  0  0  0  0
   21.1398   18.6972   23.1890 H   0  0  0  0  0  0  0  0  0  0  0  0
   19.2663   19.8248   23.2974 C   0  0  0  0  0  0  0  0  0  0  0  0
   18.4887   20.1617   22.5995 H   0  0  0  0  0  0  0  0  0  0  0  0
   18.7846   19.0945   23.9594 H   0  0  0  0  0  0  0  0  0  0  0  0
   19.7125   21.0334   24.1540 C   0  0  1  0  0  0  0  0  0  0  0  0
   18.8200   21.4266   24.6506 H   0  0  0  0  0  0  0  0  0  0  0  0
   20.7135   20.6265   25.2495 C   0  0  0  0  0  0  0  0  0  0  0  0
   21.6724   20.3075   24.8242 H   0  0  0  0  0  0  0  0  0  0  0  0
   20.3149   19.8035   25.8556 H   0  0  0  0  0  0  0  0  0  0  0  0
   20.9096   21.4702   25.9225 H   0  0  0  0  0  0  0  0  0  0  0  0
   20.2549   22.1615   23.3200 N   0  3  0  0  0  0  0  0  0  0  0  0
   19.5776   22.4672   22.6155 H   0  0  0  0  0  0  0  0  0  0  0  0
   20.4847   22.9760   23.8965 H   0  0  0  0  0  0  0  0  0  0  0  0
   21.1075   21.8841   22.8279 H   0  0  0  0  0  0  0  0  0  0  0  0
  1  2  1  0  0  0  0
  1  3  1  0  0  0  0
  1  4  1  0  0  0  0
  1  5  1  0  0  0  0
  5  6  1  0  0  0  0
  5  7  1  0  0  0  0
  5  8  1  0  0  0  0
  8  9  1  0  0  0  0
  8 10  1  0  0  0  0
  8 11  1  0  0  0  0
 11 12  1  0  0  0  0
 11 13  1  0  0  0  0
 11 14  1  0  0  0  0
 14 15  1  0  0  0  0
 14 16  1  0  0  0  0
 14 17  1  0  0  0  0
 17 18  1  0  0  0  0
 17 19  1  0  0  0  0
 19 20  1  0  0  0  0
 19 21  1  0  0  0  0
 19 22  1  0  0  0  0
 17 23  1  0  0  0  0
 23 24  1  0  0  0  0
 23 25  1  0  0  0  0
 23 26  1  0  0  0  0
M  END
> <VConfSearch Rank>
668

> <Conf_Id>
45

> <Delta U+W>
1.035

> <U+W>
-29.264

> <U>
24.725

> <W>
-53.989

> <W(PB)>
-56.298

> <W(SA)>
2.309

> <Valence>
3.780

> <Coulomb>
19.804

> <VdW>
1.141

> <VdW6>
-8.104

> <VdW12>
9.246

> <Bond>
0.254

> <Angle>
1.437

> <Pdih>
2.089

> <Idih>
0.000

> <Tether>
0.000

$$$$
VeraChem MOL file


 26 25  0  0  0  0  0  0  0  0999 V2000     
   19.8428   22.7108   24.7020 C   0  0  0  0  0  0  0  0  0  0  0  0
   20.4554   23.5539   24.3570 H   0  0  0  0  0  0  0  0  0  0  0  0
   18.8273   23.0855   24.8854 H   0  0  0  0  0  0  0  0  0  0  0  0
   20.2565   22.3623   25.6572 H   0  0  0  0  0  0  0  0  0  0  0  0
   19.8360   21.5774   23.6542 C   0  0  0  0  0  0  0  0  0  0  0  0
   20.8704   21.2598   23.4683 H   0  0  0  0  0  0  0  0  0  0  0  0
   19.4446   21.9638   22.7028 H   0  0  0  0  0  0  0  0  0  0  0  0
   18.9816   20.3751   24.1213 C   0  0  0  0  0  0  0  0  0  0  0  0
   19.4068   19.9537   25.0426 H   0  0  0  0  0  0  0  0  0  0  0  0
   17.9764   20.7339   24.3827 H   0  0  0  0  0  0  0  0  0  0  0  0
   18.8407   19.2596   23.0562 C   0  0  0  0  0  0  0  0  0  0  0  0
   18.4137   19.6822   22.1362 H   0  0  0  0  0  0  0  0  0  0  0  0
   18.1117   18.5273   23.4272 H   0  0  0  0  0  0  0  0  0  0  0  0
   20.1762   18.5418   22.7309 C   0  0  0  0  0  0  0  0  0  0  0  0
   20.8943   19.2721   22.3381 H   0  0  0  0  0  0  0  0  0  0  0  0
   20.6134   18.1346   23.6522 H   0  0  0  0  0  0  0  0  0  0  0  0
   20.0147   17.4122   21.6901 C   0  0  1  0  0  0  0  0  0  0  0  0
   19.5451   17.8343   20.7963 H   0  0  0  0  0  0  0  0  0  0  0  0
   21.3897   16.8512   21.2930 C   0  0  0  0  0  0  0  0  0  0  0  0
   21.9049   16.4140   22.1575 H   0  0  0  0  0  0  0  0  0  0  0  0
   22.0284   17.6410   20.8782 H   0  0  0  0  0  0  0  0  0  0  0  0
   21.2851   16.0724   20.5276 H   0  0  0  0  0  0  0  0  0  0  0  0
   19.1152   16.3064   22.1716 N   0  3  0  0  0  0  0  0  0  0  0  0
   18.1795   16.6552   22.3954 H   0  0  0  0  0  0  0  0  0  0  0  0
   19.0074   15.5762   21.4619 H   0  0  0  0  0  0  0  0  0  0  0  0
   19.4884   15.8616   23.0143 H   0  0  0  0  0  0  0  0  0  0  0  0
  1  2  1  0  0  0  0
  1  3  1  0  0  0  0
  1  4  1  0  0  0  0
  1  5  1  0  0  0  0
  5  6  1  0  0  0  0
  5  7  1  0  0  0  0
  5  8  1  0  0  0  0
  8  9  1  0  0  0  0
  8 10  1  0  0  0  0
  8 11  1  0  0  0  0
 11 12  1  0  0  0  0
 11 13  1  0  0  0  0
 11 14  1  0  0  0  0
 14 15  1  0  0  0  0
 14 16  1  0  0  0  0
 14 17  1  0  0  0  0
 17 18  1  0  0  0  0
 17 19  1  0  0  0  0
 19 20  1  0  0  0  0
 19 21  1  0  0  0  0
 19 22  1  0  0  0  0
 17 23  1  0  0  0  0
 23 24  1  0  0  0  0
 23 25  1  0  0  0  0
 23 26  1  0  0  0  0
M  END
> <VConfSearch Rank>
669

> <Conf_Id>
121

> <Delta U+W>
0.736

> <U+W>
-29.562

> <U>
24.282

> <W>
-53.844

> <W(PB)>
-56.205

> <W(SA)>
2.361

> <Valence>
3.311

> <Coulomb>
19.887

> <VdW>
1.083

> <VdW6>
-7.444

> <VdW12>
8.527

> <Bond>
0.219

> <Angle>
1.167

> <Pdih>
1.926

> <Idih>
0.000

> <Tether>
0.000

$$$$
VeraChem MOL file


 26 25  0  0  0  0  0  0  0  0999 V2000     
   16.4365   20.3660   22.2002 C   0  0  0  0  0  0  0  0  0  0  0  0
   15.3738   20.1802   21.9976 H   0  0  0  0  0  0  0  0  0  0  0  0
   16.5083   21.2830   22.7995 H   0  0  0  0  0  0  0  0  0  0  0  0
   16.9286   20.5451   21.2363 H   0  0  0  0  0  0  0  0  0  0  0  0
   17.0626   19.1649   22.9447 C   0  0  0  0  0  0  0  0  0  0  0  0
   17.0093   18.2683   22.3113 H   0  0  0  0  0  0  0  0  0  0  0  0
   16.4570   18.9478   23.8357 H   0  0  0  0  0  0  0  0  0  0  0  0
   18.5259   19.4071   23.3875 C   0  0  0  0  0  0  0  0  0  0  0  0
   18.5723   20.2994   24.0270 H   0  0  0  0  0  0  0  0  0  0  0  0
   18.8354   18.5604   24.0141 H   0  0  0  0  0  0  0  0  0  0  0  0
   19.5112   19.5619   22.2013 C   0  0  0  0  0  0  0  0  0  0  0  0
   19.2098   20.4179   21.5840 H   0  0  0  0  0  0  0  0  0  0  0  0
   19.4489   18.6818   21.5478 H   0  0  0  0  0  0  0  0  0  0  0  0
   20.9780   19.7902   22.6503 C   0  0  0  0  0  0  0  0  0  0  0  0
   21.6070   19.9181   21.7593 H   0  0  0  0  0  0  0  0  0  0  0  0
   21.0285   20.7411   23.1969 H   0  0  0  0  0  0  0  0  0  0  0  0
   21.5774   18.6751   23.5397 C   0  0  1  0  0  0  0  0  0  0  0  0
   20.9493   18.5666   24.4287 H   0  0  0  0  0  0  0  0  0  0  0  0
   21.6299   17.3197   22.8123 C   0  0  0  0  0  0  0  0  0  0  0  0
   22.2038   17.3917   21.8800 H   0  0  0  0  0  0  0  0  0  0  0  0
   20.6234   16.9594   22.5698 H   0  0  0  0  0  0  0  0  0  0  0  0
   22.1031   16.5592   23.4455 H   0  0  0  0  0  0  0  0  0  0  0  0
   22.9452   19.0543   24.0356 N   0  3  0  0  0  0  0  0  0  0  0  0
   22.9262   19.9335   24.5602 H   0  0  0  0  0  0  0  0  0  0  0  0
   23.3301   18.3374   24.6572 H   0  0  0  0  0  0  0  0  0  0  0  0
   23.6045   19.1725   23.2617 H   0  0  0  0  0  0  0  0  0  0  0  0
  1  2  1  0  0  0  0
  1  3  1  0  0  0  0
  1  4  1  0  0  0  0
  1  5  1  0  0  0  0
  5  6  1  0  0  0  0
  5  7  1  0  0  0  0
  5  8  1  0  0  0  0
  8  9  1  0  0  0  0
  8 10  1  0  0  0  0
  8 11  1  0  0  0  0
 11 12  1  0  0  0  0
 11 13  1  0  0  0  0
 11 14  1  0  0  0  0
 14 15  1  0  0  0  0
 14 16  1  0  0  0  0
 14 17  1  0  0  0  0
 17 18  1  0  0  0  0
 17 19  1  0  0  0  0
 19 20  1  0  0  0  0
 19 21  1  0  0  0  0
 19 22  1  0  0  0  0
 17 23  1  0  0  0  0
 23 24  1  0  0  0  0
 23 25  1  0  0  0  0
 23 26  1  0  0  0  0
M  END
> <VConfSearch Rank>
670

> <Conf_Id>
5

> <Delta U+W>
1.233

> <U+W>
-29.065

> <U>
25.023

> <W>
-54.088

> <W(PB)>
-56.383

> <W(SA)>
2.296

> <Valence>
4.083

> <Coulomb>
19.893

> <VdW>
1.047

> <VdW6>
-8.479

> <VdW12>
9.527

> <Bond>
0.256

> <Angle>
1.716

> <Pdih>
2.112

> <Idih>
0.000

> <Tether>
0.000

$$$$
VeraChem MOL file


 26 25  0  0  0  0  0  0  0  0999 V2000     
   19.7317   17.0414   19.9523 C   0  0  0  0  0  0  0  0  0  0  0  0
   19.9789   16.1348   19.3849 H   0  0  0  0  0  0  0  0  0  0  0  0
   18.6692   16.9828   20.2182 H   0  0  0  0  0  0  0  0  0  0  0  0
   19.8733   17.9026   19.2865 H   0  0  0  0  0  0  0  0  0  0  0  0
   20.6281   17.1547   21.2064 C   0  0  0  0  0  0  0  0  0  0  0  0
   21.6794   17.0791   20.8952 H   0  0  0  0  0  0  0  0  0  0  0  0
   20.4430   16.3004   21.8726 H   0  0  0  0  0  0  0  0  0  0  0  0
   20.4371   18.4785   21.9856 C   0  0  0  0  0  0  0  0  0  0  0  0
   21.2081   18.5242   22.7656 H   0  0  0  0  0  0  0  0  0  0  0  0
   20.6182   19.3287   21.3137 H   0  0  0  0  0  0  0  0  0  0  0  0
   19.0388   18.6138   22.6387 C   0  0  0  0  0  0  0  0  0  0  0  0
   18.8764   17.7763   23.3312 H   0  0  0  0  0  0  0  0  0  0  0  0
   18.2632   18.5299   21.8668 H   0  0  0  0  0  0  0  0  0  0  0  0
   18.8198   19.9512   23.3909 C   0  0  0  0  0  0  0  0  0  0  0  0
   18.8943   20.7932   22.6898 H   0  0  0  0  0  0  0  0  0  0  0  0
   17.7828   19.9592   23.7516 H   0  0  0  0  0  0  0  0  0  0  0  0
   19.7771   20.1585   24.5899 C   0  0  1  0  0  0  0  0  0  0  0  0
   20.2044   19.1872   24.8573 H   0  0  0  0  0  0  0  0  0  0  0  0
   20.9247   21.1229   24.2385 C   0  0  0  0  0  0  0  0  0  0  0  0
   20.5423   22.1270   24.0157 H   0  0  0  0  0  0  0  0  0  0  0  0
   21.4880   20.7762   23.3649 H   0  0  0  0  0  0  0  0  0  0  0  0
   21.6290   21.2065   25.0753 H   0  0  0  0  0  0  0  0  0  0  0  0
   19.0496   20.6465   25.8128 N   0  3  0  0  0  0  0  0  0  0  0  0
   18.3103   19.9966   26.0956 H   0  0  0  0  0  0  0  0  0  0  0  0
   19.6845   20.7500   26.6094 H   0  0  0  0  0  0  0  0  0  0  0  0
   18.6130   21.5579   25.6501 H   0  0  0  0  0  0  0  0  0  0  0  0
  1  2  1  0  0  0  0
  1  3  1  0  0  0  0
  1  4  1  0  0  0  0
  1  5  1  0  0  0  0
  5  6  1  0  0  0  0
  5  7  1  0  0  0  0
  5  8  1  0  0  0  0
  8  9  1  0  0  0  0
  8 10  1  0  0  0  0
  8 11  1  0  0  0  0
 11 12  1  0  0  0  0
 11 13  1  0  0  0  0
 11 14  1  0  0  0  0
 14 15  1  0  0  0  0
 14 16  1  0  0  0  0
 14 17  1  0  0  0  0
 17 18  1  0  0  0  0
 17 19  1  0  0  0  0
 19 20  1  0  0  0  0
 19 21  1  0  0  0  0
 19 22  1  0  0  0  0
 17 23  1  0  0  0  0
 23 24  1  0  0  0  0
 23 25  1  0  0  0  0
 23 26  1  0  0  0  0
M  END
> <VConfSearch Rank>
671

> <Conf_Id>
100

> <Delta U+W>
3.818

> <U+W>
-26.481

> <U>
27.496

> <W>
-53.977

> <W(PB)>
-56.267

> <W(SA)>
2.290

> <Valence>
6.472

> <Coulomb>
19.839

> <VdW>
1.185

> <VdW6>
-8.405

> <VdW12>
9.590

> <Bond>
0.248

> <Angle>
1.619

> <Pdih>
4.604

> <Idih>
0.000

> <Tether>
0.000

$$$$
VeraChem MOL file


 26 25  0  0  0  0  0  0  0  0999 V2000     
   22.8039   16.8960   22.5605 C   0  0  0  0  0  0  0  0  0  0  0  0
   23.8998   16.9567   22.5786 H   0  0  0  0  0  0  0  0  0  0  0  0
   22.4742   16.4709   23.5175 H   0  0  0  0  0  0  0  0  0  0  0  0
   22.5181   16.2003   21.7608 H   0  0  0  0  0  0  0  0  0  0  0  0
   22.1846   18.2908   22.3300 C   0  0  0  0  0  0  0  0  0  0  0  0
   22.5598   18.7042   21.3833 H   0  0  0  0  0  0  0  0  0  0  0  0
   22.5150   18.9721   23.1265 H   0  0  0  0  0  0  0  0  0  0  0  0
   20.6412   18.2336   22.2997 C   0  0  0  0  0  0  0  0  0  0  0  0
   20.3188   17.5503   21.5019 H   0  0  0  0  0  0  0  0  0  0  0  0
   20.2788   17.8068   23.2422 H   0  0  0  0  0  0  0  0  0  0  0  0
   20.0195   19.6318   22.0616 C   0  0  0  0  0  0  0  0  0  0  0  0
   20.3910   20.0086   21.0986 H   0  0  0  0  0  0  0  0  0  0  0  0
   20.3777   20.3403   22.8196 H   0  0  0  0  0  0  0  0  0  0  0  0
   18.4659   19.6200   22.0127 C   0  0  0  0  0  0  0  0  0  0  0  0
   18.1394   20.3574   21.2675 H   0  0  0  0  0  0  0  0  0  0  0  0
   18.1111   18.6521   21.6348 H   0  0  0  0  0  0  0  0  0  0  0  0
   17.7398   19.9508   23.3404 C   0  0  1  0  0  0  0  0  0  0  0  0
   16.6652   19.8902   23.1419 H   0  0  0  0  0  0  0  0  0  0  0  0
   18.0582   18.9502   24.4631 C   0  0  0  0  0  0  0  0  0  0  0  0
   19.0967   19.0435   24.8020 H   0  0  0  0  0  0  0  0  0  0  0  0
   17.8911   17.9195   24.1266 H   0  0  0  0  0  0  0  0  0  0  0  0
   17.4080   19.1266   25.3287 H   0  0  0  0  0  0  0  0  0  0  0  0
   17.9955   21.3623   23.7937 N   0  3  0  0  0  0  0  0  0  0  0  0
   17.7342   22.0415   23.0733 H   0  0  0  0  0  0  0  0  0  0  0  0
   17.4577   21.5880   24.6353 H   0  0  0  0  0  0  0  0  0  0  0  0
   18.9836   21.5105   24.0124 H   0  0  0  0  0  0  0  0  0  0  0  0
  1  2  1  0  0  0  0
  1  3  1  0  0  0  0
  1  4  1  0  0  0  0
  1  5  1  0  0  0  0
  5  6  1  0  0  0  0
  5  7  1  0  0  0  0
  5  8  1  0  0  0  0
  8  9  1  0  0  0  0
  8 10  1  0  0  0  0
  8 11  1  0  0  0  0
 11 12  1  0  0  0  0
 11 13  1  0  0  0  0
 11 14  1  0  0  0  0
 14 15  1  0  0  0  0
 14 16  1  0  0  0  0
 14 17  1  0  0  0  0
 17 18  1  0  0  0  0
 17 19  1  0  0  0  0
 19 20  1  0  0  0  0
 19 21  1  0  0  0  0
 19 22  1  0  0  0  0
 17 23  1  0  0  0  0
 23 24  1  0  0  0  0
 23 25  1  0  0  0  0
 23 26  1  0  0  0  0
M  END
> <VConfSearch Rank>
672

> <Conf_Id>
142

> <Delta U+W>
2.978

> <U+W>
-27.320

> <U>
26.848

> <W>
-54.168

> <W(PB)>
-56.427

> <W(SA)>
2.259

> <Valence>
5.823

> <Coulomb>
20.057

> <VdW>
0.968

> <VdW6>
-8.367

> <VdW12>
9.335

> <Bond>
0.267

> <Angle>
1.799

> <Pdih>
3.758

> <Idih>
0.000

> <Tether>
0.000

$$$$
VeraChem MOL file


 26 25  0  0  0  0  0  0  0  0999 V2000     
   21.1662   17.6461   20.0380 C   0  0  0  0  0  0  0  0  0  0  0  0
   20.4357   16.8271   20.0132 H   0  0  0  0  0  0  0  0  0  0  0  0
   21.5919   17.7460   19.0312 H   0  0  0  0  0  0  0  0  0  0  0  0
   21.9823   17.3591   20.7122 H   0  0  0  0  0  0  0  0  0  0  0  0
   20.5014   18.9710   20.4768 C   0  0  0  0  0  0  0  0  0  0  0  0
   19.7865   19.2779   19.7006 H   0  0  0  0  0  0  0  0  0  0  0  0
   21.2580   19.7664   20.5287 H   0  0  0  0  0  0  0  0  0  0  0  0
   19.7514   18.8705   21.8273 C   0  0  0  0  0  0  0  0  0  0  0  0
   19.1931   19.8037   21.9643 H   0  0  0  0  0  0  0  0  0  0  0  0
   19.0119   18.0596   21.7758 H   0  0  0  0  0  0  0  0  0  0  0  0
   20.6915   18.6523   23.0397 C   0  0  0  0  0  0  0  0  0  0  0  0
   21.3868   19.4979   23.1244 H   0  0  0  0  0  0  0  0  0  0  0  0
   21.3182   17.7709   22.8548 H   0  0  0  0  0  0  0  0  0  0  0  0
   19.9627   18.4226   24.3941 C   0  0  0  0  0  0  0  0  0  0  0  0
   19.3641   17.5044   24.3323 H   0  0  0  0  0  0  0  0  0  0  0  0
   20.7295   18.2181   25.1529 H   0  0  0  0  0  0  0  0  0  0  0  0
   19.0703   19.5697   24.9336 C   0  0  1  0  0  0  0  0  0  0  0  0
   18.8436   19.3273   25.9764 H   0  0  0  0  0  0  0  0  0  0  0  0
   19.7901   20.9296   24.9265 C   0  0  0  0  0  0  0  0  0  0  0  0
   19.9706   21.2873   23.9058 H   0  0  0  0  0  0  0  0  0  0  0  0
   20.7555   20.8608   25.4431 H   0  0  0  0  0  0  0  0  0  0  0  0
   19.1881   21.6856   25.4454 H   0  0  0  0  0  0  0  0  0  0  0  0
   17.7333   19.6524   24.2494 N   0  3  0  0  0  0  0  0  0  0  0  0
   17.2228   18.7673   24.3171 H   0  0  0  0  0  0  0  0  0  0  0  0
   17.1436   20.3769   24.6688 H   0  0  0  0  0  0  0  0  0  0  0  0
   17.8350   19.8741   23.2572 H   0  0  0  0  0  0  0  0  0  0  0  0
  1  2  1  0  0  0  0
  1  3  1  0  0  0  0
  1  4  1  0  0  0  0
  1  5  1  0  0  0  0
  5  6  1  0  0  0  0
  5  7  1  0  0  0  0
  5  8  1  0  0  0  0
  8  9  1  0  0  0  0
  8 10  1  0  0  0  0
  8 11  1  0  0  0  0
 11 12  1  0  0  0  0
 11 13  1  0  0  0  0
 11 14  1  0  0  0  0
 14 15  1  0  0  0  0
 14 16  1  0  0  0  0
 14 17  1  0  0  0  0
 17 18  1  0  0  0  0
 17 19  1  0  0  0  0
 19 20  1  0  0  0  0
 19 21  1  0  0  0  0
 19 22  1  0  0  0  0
 17 23  1  0  0  0  0
 23 24  1  0  0  0  0
 23 25  1  0  0  0  0
 23 26  1  0  0  0  0
M  END
> <VConfSearch Rank>
673

> <Conf_Id>
119

> <Delta U+W>
3.538

> <U+W>
-26.761

> <U>
27.482

> <W>
-54.243

> <W(PB)>
-56.494

> <W(SA)>
2.251

> <Valence>
5.284

> <Coulomb>
21.247

> <VdW>
0.951

> <VdW6>
-9.416

> <VdW12>
10.367

> <Bond>
0.323

> <Angle>
2.522

> <Pdih>
2.439

> <Idih>
0.000

> <Tether>
0.000

$$$$
VeraChem MOL file


 26 25  0  0  0  0  0  0  0  0999 V2000     
   21.0141   20.4830   19.9201 C   0  0  0  0  0  0  0  0  0  0  0  0
   20.1104   20.9390   19.4954 H   0  0  0  0  0  0  0  0  0  0  0  0
   21.3972   21.1451   20.7064 H   0  0  0  0  0  0  0  0  0  0  0  0
   21.7724   20.4395   19.1276 H   0  0  0  0  0  0  0  0  0  0  0  0
   20.7190   19.0668   20.4642 C   0  0  0  0  0  0  0  0  0  0  0  0
   21.6304   18.6454   20.9110 H   0  0  0  0  0  0  0  0  0  0  0  0
   20.4588   18.4111   19.6215 H   0  0  0  0  0  0  0  0  0  0  0  0
   19.5657   19.0304   21.4959 C   0  0  0  0  0  0  0  0  0  0  0  0
   18.6514   19.4279   21.0342 H   0  0  0  0  0  0  0  0  0  0  0  0
   19.3529   17.9820   21.7356 H   0  0  0  0  0  0  0  0  0  0  0  0
   19.8760   19.8197   22.7938 C   0  0  0  0  0  0  0  0  0  0  0  0
   19.9672   20.8837   22.5389 H   0  0  0  0  0  0  0  0  0  0  0  0
   20.8526   19.5202   23.1950 H   0  0  0  0  0  0  0  0  0  0  0  0
   18.7714   19.6811   23.8787 C   0  0  0  0  0  0  0  0  0  0  0  0
   18.6705   20.6457   24.3933 H   0  0  0  0  0  0  0  0  0  0  0  0
   17.7983   19.5061   23.4011 H   0  0  0  0  0  0  0  0  0  0  0  0
   19.0148   18.6009   24.9620 C   0  0  1  0  0  0  0  0  0  0  0  0
   18.1534   18.6226   25.6367 H   0  0  0  0  0  0  0  0  0  0  0  0
   19.1096   17.1810   24.3804 C   0  0  0  0  0  0  0  0  0  0  0  0
   20.0161   17.0535   23.7767 H   0  0  0  0  0  0  0  0  0  0  0  0
   18.2378   16.9573   23.7533 H   0  0  0  0  0  0  0  0  0  0  0  0
   19.1380   16.4379   25.1866 H   0  0  0  0  0  0  0  0  0  0  0  0
   20.2142   18.9104   25.8157 N   0  3  0  0  0  0  0  0  0  0  0  0
   20.1360   19.8330   26.2531 H   0  0  0  0  0  0  0  0  0  0  0  0
   20.3248   18.2245   26.5678 H   0  0  0  0  0  0  0  0  0  0  0  0
   21.0758   18.9032   25.2647 H   0  0  0  0  0  0  0  0  0  0  0  0
  1  2  1  0  0  0  0
  1  3  1  0  0  0  0
  1  4  1  0  0  0  0
  1  5  1  0  0  0  0
  5  6  1  0  0  0  0
  5  7  1  0  0  0  0
  5  8  1  0  0  0  0
  8  9  1  0  0  0  0
  8 10  1  0  0  0  0
  8 11  1  0  0  0  0
 11 12  1  0  0  0  0
 11 13  1  0  0  0  0
 11 14  1  0  0  0  0
 14 15  1  0  0  0  0
 14 16  1  0  0  0  0
 14 17  1  0  0  0  0
 17 18  1  0  0  0  0
 17 19  1  0  0  0  0
 19 20  1  0  0  0  0
 19 21  1  0  0  0  0
 19 22  1  0  0  0  0
 17 23  1  0  0  0  0
 23 24  1  0  0  0  0
 23 25  1  0  0  0  0
 23 26  1  0  0  0  0
M  END
> <VConfSearch Rank>
674

> <Conf_Id>
127

> <Delta U+W>
3.544

> <U+W>
-26.754

> <U>
27.509

> <W>
-54.263

> <W(PB)>
-56.496

> <W(SA)>
2.232

> <Valence>
6.375

> <Coulomb>
20.014

> <VdW>
1.120

> <VdW6>
-8.976

> <VdW12>
10.096

> <Bond>
0.304

> <Angle>
1.986

> <Pdih>
4.086

> <Idih>
0.000

> <Tether>
0.000

$$$$
VeraChem MOL file


 26 25  0  0  0  0  0  0  0  0999 V2000     
   21.6472   21.4956   21.7036 C   0  0  0  0  0  0  0  0  0  0  0  0
   21.7152   22.0269   20.7455 H   0  0  0  0  0  0  0  0  0  0  0  0
   22.4580   21.8630   22.3459 H   0  0  0  0  0  0  0  0  0  0  0  0
   21.8282   20.4331   21.5076 H   0  0  0  0  0  0  0  0  0  0  0  0
   20.2690   21.7407   22.3612 C   0  0  0  0  0  0  0  0  0  0  0  0
   19.4612   21.4390   21.6800 H   0  0  0  0  0  0  0  0  0  0  0  0
   20.1518   22.8237   22.5070 H   0  0  0  0  0  0  0  0  0  0  0  0
   20.1087   21.0375   23.7337 C   0  0  0  0  0  0  0  0  0  0  0  0
   21.0864   20.9328   24.2240 H   0  0  0  0  0  0  0  0  0  0  0  0
   19.5200   21.6958   24.3876 H   0  0  0  0  0  0  0  0  0  0  0  0
   19.3877   19.6655   23.6835 C   0  0  0  0  0  0  0  0  0  0  0  0
   18.3730   19.8091   23.2892 H   0  0  0  0  0  0  0  0  0  0  0  0
   19.2696   19.3135   24.7161 H   0  0  0  0  0  0  0  0  0  0  0  0
   20.1291   18.5892   22.8465 C   0  0  0  0  0  0  0  0  0  0  0  0
   20.1560   18.9050   21.7968 H   0  0  0  0  0  0  0  0  0  0  0  0
   21.1742   18.5245   23.1769 H   0  0  0  0  0  0  0  0  0  0  0  0
   19.5006   17.1763   22.8973 C   0  0  1  0  0  0  0  0  0  0  0  0
   20.0702   16.5439   22.2093 H   0  0  0  0  0  0  0  0  0  0  0  0
   19.6028   16.5442   24.2967 C   0  0  0  0  0  0  0  0  0  0  0  0
   20.6378   16.5652   24.6597 H   0  0  0  0  0  0  0  0  0  0  0  0
   19.2828   15.4955   24.2670 H   0  0  0  0  0  0  0  0  0  0  0  0
   18.9717   17.0648   25.0264 H   0  0  0  0  0  0  0  0  0  0  0  0
   18.0812   17.1603   22.4001 N   0  3  0  0  0  0  0  0  0  0  0  0
   18.0118   17.5352   21.4498 H   0  0  0  0  0  0  0  0  0  0  0  0
   17.7016   16.2096   22.3823 H   0  0  0  0  0  0  0  0  0  0  0  0
   17.4719   17.7229   22.9989 H   0  0  0  0  0  0  0  0  0  0  0  0
  1  2  1  0  0  0  0
  1  3  1  0  0  0  0
  1  4  1  0  0  0  0
  1  5  1  0  0  0  0
  5  6  1  0  0  0  0
  5  7  1  0  0  0  0
  5  8  1  0  0  0  0
  8  9  1  0  0  0  0
  8 10  1  0  0  0  0
  8 11  1  0  0  0  0
 11 12  1  0  0  0  0
 11 13  1  0  0  0  0
 11 14  1  0  0  0  0
 14 15  1  0  0  0  0
 14 16  1  0  0  0  0
 14 17  1  0  0  0  0
 17 18  1  0  0  0  0
 17 19  1  0  0  0  0
 19 20  1  0  0  0  0
 19 21  1  0  0  0  0
 19 22  1  0  0  0  0
 17 23  1  0  0  0  0
 23 24  1  0  0  0  0
 23 25  1  0  0  0  0
 23 26  1  0  0  0  0
M  END
> <VConfSearch Rank>
675

> <Conf_Id>
131

> <Delta U+W>
3.589

> <U+W>
-26.710

> <U>
27.573

> <W>
-54.283

> <W(PB)>
-56.537

> <W(SA)>
2.254

> <Valence>
6.363

> <Coulomb>
20.026

> <VdW>
1.184

> <VdW6>
-8.939

> <VdW12>
10.123

> <Bond>
0.298

> <Angle>
2.018

> <Pdih>
4.047

> <Idih>
0.000

> <Tether>
0.000

$$$$
VeraChem MOL file


 26 25  0  0  0  0  0  0  0  0999 V2000     
   20.3590   21.4115   24.4709 C   0  0  0  0  0  0  0  0  0  0  0  0
   21.0765   21.6351   23.6709 H   0  0  0  0  0  0  0  0  0  0  0  0
   19.3949   21.1537   24.0158 H   0  0  0  0  0  0  0  0  0  0  0  0
   20.2099   22.3290   25.0547 H   0  0  0  0  0  0  0  0  0  0  0  0
   20.8726   20.2727   25.3786 C   0  0  0  0  0  0  0  0  0  0  0  0
   20.1022   20.0241   26.1218 H   0  0  0  0  0  0  0  0  0  0  0  0
   21.7375   20.6397   25.9487 H   0  0  0  0  0  0  0  0  0  0  0  0
   21.2948   18.9894   24.6183 C   0  0  0  0  0  0  0  0  0  0  0  0
   22.1419   19.2067   23.9533 H   0  0  0  0  0  0  0  0  0  0  0  0
   21.6785   18.2771   25.3618 H   0  0  0  0  0  0  0  0  0  0  0  0
   20.1526   18.2959   23.8304 C   0  0  0  0  0  0  0  0  0  0  0  0
   19.1951   18.4839   24.3328 H   0  0  0  0  0  0  0  0  0  0  0  0
   20.3116   17.2095   23.8732 H   0  0  0  0  0  0  0  0  0  0  0  0
   20.0919   18.7144   22.3374 C   0  0  0  0  0  0  0  0  0  0  0  0
   19.9123   19.7912   22.2435 H   0  0  0  0  0  0  0  0  0  0  0  0
   21.0751   18.5272   21.8861 H   0  0  0  0  0  0  0  0  0  0  0  0
   19.0281   17.9451   21.5215 C   0  0  1  0  0  0  0  0  0  0  0  0
   19.1902   16.8730   21.6700 H   0  0  0  0  0  0  0  0  0  0  0  0
   17.5958   18.2892   21.9686 C   0  0  0  0  0  0  0  0  0  0  0  0
   17.4057   19.3674   21.8965 H   0  0  0  0  0  0  0  0  0  0  0  0
   17.4139   17.9768   23.0032 H   0  0  0  0  0  0  0  0  0  0  0  0
   16.8604   17.7718   21.3404 H   0  0  0  0  0  0  0  0  0  0  0  0
   19.1868   18.1976   20.0477 N   0  3  0  0  0  0  0  0  0  0  0  0
   19.0473   19.1856   19.8198 H   0  0  0  0  0  0  0  0  0  0  0  0
   20.1199   17.9345   19.7181 H   0  0  0  0  0  0  0  0  0  0  0  0
   18.5086   17.6595   19.5010 H   0  0  0  0  0  0  0  0  0  0  0  0
  1  2  1  0  0  0  0
  1  3  1  0  0  0  0
  1  4  1  0  0  0  0
  1  5  1  0  0  0  0
  5  6  1  0  0  0  0
  5  7  1  0  0  0  0
  5  8  1  0  0  0  0
  8  9  1  0  0  0  0
  8 10  1  0  0  0  0
  8 11  1  0  0  0  0
 11 12  1  0  0  0  0
 11 13  1  0  0  0  0
 11 14  1  0  0  0  0
 14 15  1  0  0  0  0
 14 16  1  0  0  0  0
 14 17  1  0  0  0  0
 17 18  1  0  0  0  0
 17 19  1  0  0  0  0
 19 20  1  0  0  0  0
 19 21  1  0  0  0  0
 19 22  1  0  0  0  0
 17 23  1  0  0  0  0
 23 24  1  0  0  0  0
 23 25  1  0  0  0  0
 23 26  1  0  0  0  0
M  END
> <VConfSearch Rank>
676

> <Conf_Id>
80

> <Delta U+W>
3.351

> <U+W>
-26.948

> <U>
27.261

> <W>
-54.209

> <W(PB)>
-56.471

> <W(SA)>
2.263

> <Valence>
6.230

> <Coulomb>
19.945

> <VdW>
1.087

> <VdW6>
-8.618

> <VdW12>
9.704

> <Bond>
0.277

> <Angle>
1.928

> <Pdih>
4.025

> <Idih>
0.000

> <Tether>
0.000

$$$$
VeraChem MOL file


 26 25  0  0  0  0  0  0  0  0999 V2000     
   16.7818   17.9577   23.4029 C   0  0  0  0  0  0  0  0  0  0  0  0
   15.7932   18.1896   22.9862 H   0  0  0  0  0  0  0  0  0  0  0  0
   16.7107   16.9918   23.9197 H   0  0  0  0  0  0  0  0  0  0  0  0
   17.0157   18.7304   24.1459 H   0  0  0  0  0  0  0  0  0  0  0  0
   17.8444   17.9115   22.2818 C   0  0  0  0  0  0  0  0  0  0  0  0
   17.9154   18.8947   21.7991 H   0  0  0  0  0  0  0  0  0  0  0  0
   17.5000   17.2214   21.4989 H   0  0  0  0  0  0  0  0  0  0  0  0
   19.2411   17.4432   22.7670 C   0  0  0  0  0  0  0  0  0  0  0  0
   19.1596   16.3982   23.0964 H   0  0  0  0  0  0  0  0  0  0  0  0
   19.9206   17.4252   21.9074 H   0  0  0  0  0  0  0  0  0  0  0  0
   19.8643   18.2694   23.9276 C   0  0  0  0  0  0  0  0  0  0  0  0
   20.8092   17.8031   24.2386 H   0  0  0  0  0  0  0  0  0  0  0  0
   19.2066   18.1865   24.8029 H   0  0  0  0  0  0  0  0  0  0  0  0
   20.1076   19.7763   23.6328 C   0  0  0  0  0  0  0  0  0  0  0  0
   19.3494   20.1720   22.9479 H   0  0  0  0  0  0  0  0  0  0  0  0
   19.9622   20.3215   24.5746 H   0  0  0  0  0  0  0  0  0  0  0  0
   21.5241   20.1268   23.1163 C   0  0  1  0  0  0  0  0  0  0  0  0
   22.2524   19.7770   23.8543 H   0  0  0  0  0  0  0  0  0  0  0  0
   21.8531   19.4646   21.7681 C   0  0  0  0  0  0  0  0  0  0  0  0
   21.9548   18.3796   21.8802 H   0  0  0  0  0  0  0  0  0  0  0  0
   22.8080   19.8361   21.3765 H   0  0  0  0  0  0  0  0  0  0  0  0
   21.0751   19.6702   21.0224 H   0  0  0  0  0  0  0  0  0  0  0  0
   21.7058   21.6164   23.0197 N   0  3  0  0  0  0  0  0  0  0  0  0
   21.5388   22.0762   23.9193 H   0  0  0  0  0  0  0  0  0  0  0  0
   22.6563   21.8589   22.7263 H   0  0  0  0  0  0  0  0  0  0  0  0
   21.0620   22.0285   22.3392 H   0  0  0  0  0  0  0  0  0  0  0  0
  1  2  1  0  0  0  0
  1  3  1  0  0  0  0
  1  4  1  0  0  0  0
  1  5  1  0  0  0  0
  5  6  1  0  0  0  0
  5  7  1  0  0  0  0
  5  8  1  0  0  0  0
  8  9  1  0  0  0  0
  8 10  1  0  0  0  0
  8 11  1  0  0  0  0
 11 12  1  0  0  0  0
 11 13  1  0  0  0  0
 11 14  1  0  0  0  0
 14 15  1  0  0  0  0
 14 16  1  0  0  0  0
 14 17  1  0  0  0  0
 17 18  1  0  0  0  0
 17 19  1  0  0  0  0
 19 20  1  0  0  0  0
 19 21  1  0  0  0  0
 19 22  1  0  0  0  0
 17 23  1  0  0  0  0
 23 24  1  0  0  0  0
 23 25  1  0  0  0  0
 23 26  1  0  0  0  0
M  END
> <VConfSearch Rank>
677

> <Conf_Id>
136

> <Delta U+W>
4.272

> <U+W>
-26.026

> <U>
28.262

> <W>
-54.288

> <W(PB)>
-56.488

> <W(SA)>
2.200

> <Valence>
7.096

> <Coulomb>
19.990

> <VdW>
1.175

> <VdW6>
-9.404

> <VdW12>
10.580

> <Bond>
0.360

> <Angle>
2.785

> <Pdih>
3.951

> <Idih>
0.000

> <Tether>
0.000

$$$$
VeraChem MOL file


 26 25  0  0  0  0  0  0  0  0999 V2000     
   22.2598   20.8531   22.9495 C   0  0  0  0  0  0  0  0  0  0  0  0
   22.0676   20.0603   23.6829 H   0  0  0  0  0  0  0  0  0  0  0  0
   23.2892   21.2008   23.1053 H   0  0  0  0  0  0  0  0  0  0  0  0
   21.5863   21.6944   23.1579 H   0  0  0  0  0  0  0  0  0  0  0  0
   22.0774   20.3378   21.5052 C   0  0  0  0  0  0  0  0  0  0  0  0
   22.7230   19.4627   21.3465 H   0  0  0  0  0  0  0  0  0  0  0  0
   22.4343   21.1091   20.8085 H   0  0  0  0  0  0  0  0  0  0  0  0
   20.6157   19.9787   21.1344 C   0  0  0  0  0  0  0  0  0  0  0  0
   19.9804   20.8732   21.1921 H   0  0  0  0  0  0  0  0  0  0  0  0
   20.6077   19.6782   20.0774 H   0  0  0  0  0  0  0  0  0  0  0  0
   20.0005   18.8255   21.9695 C   0  0  0  0  0  0  0  0  0  0  0  0
   20.7930   18.1460   22.3124 H   0  0  0  0  0  0  0  0  0  0  0  0
   19.3545   18.2327   21.3084 H   0  0  0  0  0  0  0  0  0  0  0  0
   19.1566   19.3220   23.1723 C   0  0  0  0  0  0  0  0  0  0  0  0
   19.7549   20.0024   23.7886 H   0  0  0  0  0  0  0  0  0  0  0  0
   18.3038   19.9089   22.8060 H   0  0  0  0  0  0  0  0  0  0  0  0
   18.6460   18.1695   24.0640 C   0  0  1  0  0  0  0  0  0  0  0  0
   19.5097   17.5853   24.3963 H   0  0  0  0  0  0  0  0  0  0  0  0
   17.9359   18.7295   25.3070 C   0  0  0  0  0  0  0  0  0  0  0  0
   17.0578   19.3252   25.0280 H   0  0  0  0  0  0  0  0  0  0  0  0
   18.6123   19.3691   25.8876 H   0  0  0  0  0  0  0  0  0  0  0  0
   17.6027   17.9161   25.9633 H   0  0  0  0  0  0  0  0  0  0  0  0
   17.7424   17.2227   23.3221 N   0  3  0  0  0  0  0  0  0  0  0  0
   16.9062   17.6996   22.9748 H   0  0  0  0  0  0  0  0  0  0  0  0
   18.2172   16.8065   22.5166 H   0  0  0  0  0  0  0  0  0  0  0  0
   17.4301   16.4550   23.9233 H   0  0  0  0  0  0  0  0  0  0  0  0
  1  2  1  0  0  0  0
  1  3  1  0  0  0  0
  1  4  1  0  0  0  0
  1  5  1  0  0  0  0
  5  6  1  0  0  0  0
  5  7  1  0  0  0  0
  5  8  1  0  0  0  0
  8  9  1  0  0  0  0
  8 10  1  0  0  0  0
  8 11  1  0  0  0  0
 11 12  1  0  0  0  0
 11 13  1  0  0  0  0
 11 14  1  0  0  0  0
 14 15  1  0  0  0  0
 14 16  1  0  0  0  0
 14 17  1  0  0  0  0
 17 18  1  0  0  0  0
 17 19  1  0  0  0  0
 19 20  1  0  0  0  0
 19 21  1  0  0  0  0
 19 22  1  0  0  0  0
 17 23  1  0  0  0  0
 23 24  1  0  0  0  0
 23 25  1  0  0  0  0
 23 26  1  0  0  0  0
M  END
> <VConfSearch Rank>
678

> <Conf_Id>
124

> <Delta U+W>
3.001

> <U+W>
-27.298

> <U>
26.787

> <W>
-54.085

> <W(PB)>
-56.347

> <W(SA)>
2.262

> <Valence>
5.742

> <Coulomb>
20.023

> <VdW>
1.022

> <VdW6>
-8.392

> <VdW12>
9.414

> <Bond>
0.261

> <Angle>
1.576

> <Pdih>
3.904

> <Idih>
0.000

> <Tether>
0.000

$$$$
VeraChem MOL file


 26 25  0  0  0  0  0  0  0  0999 V2000     
   18.0938   19.5616   25.6231 C   0  0  0  0  0  0  0  0  0  0  0  0
   17.4917   20.4795   25.6325 H   0  0  0  0  0  0  0  0  0  0  0  0
   17.9500   19.0598   26.5887 H   0  0  0  0  0  0  0  0  0  0  0  0
   19.1481   19.8507   25.5539 H   0  0  0  0  0  0  0  0  0  0  0  0
   17.6659   18.6331   24.4627 C   0  0  0  0  0  0  0  0  0  0  0  0
   16.6119   18.3631   24.6174 H   0  0  0  0  0  0  0  0  0  0  0  0
   18.2279   17.6896   24.5011 H   0  0  0  0  0  0  0  0  0  0  0  0
   17.8066   19.2881   23.0643 C   0  0  0  0  0  0  0  0  0  0  0  0
   16.9813   18.9277   22.4347 H   0  0  0  0  0  0  0  0  0  0  0  0
   17.6682   20.3756   23.1378 H   0  0  0  0  0  0  0  0  0  0  0  0
   19.1308   18.9668   22.3243 C   0  0  0  0  0  0  0  0  0  0  0  0
   19.0746   19.4130   21.3230 H   0  0  0  0  0  0  0  0  0  0  0  0
   19.1997   17.8812   22.1737 H   0  0  0  0  0  0  0  0  0  0  0  0
   20.4037   19.4785   23.0493 C   0  0  0  0  0  0  0  0  0  0  0  0
   20.2640   20.5307   23.3292 H   0  0  0  0  0  0  0  0  0  0  0  0
   20.5353   18.9235   23.9863 H   0  0  0  0  0  0  0  0  0  0  0  0
   21.7109   19.3568   22.2309 C   0  0  1  0  0  0  0  0  0  0  0  0
   22.5220   19.7452   22.8546 H   0  0  0  0  0  0  0  0  0  0  0  0
   22.0447   17.8938   21.8904 C   0  0  0  0  0  0  0  0  0  0  0  0
   21.3174   17.4647   21.1909 H   0  0  0  0  0  0  0  0  0  0  0  0
   22.0566   17.2756   22.7966 H   0  0  0  0  0  0  0  0  0  0  0  0
   23.0366   17.8242   21.4273 H   0  0  0  0  0  0  0  0  0  0  0  0
   21.6957   20.2090   20.9915 N   0  3  0  0  0  0  0  0  0  0  0  0
   22.5913   20.1661   20.4970 H   0  0  0  0  0  0  0  0  0  0  0  0
   20.9702   19.9036   20.3385 H   0  0  0  0  0  0  0  0  0  0  0  0
   21.5163   21.1923   21.2140 H   0  0  0  0  0  0  0  0  0  0  0  0
  1  2  1  0  0  0  0
  1  3  1  0  0  0  0
  1  4  1  0  0  0  0
  1  5  1  0  0  0  0
  5  6  1  0  0  0  0
  5  7  1  0  0  0  0
  5  8  1  0  0  0  0
  8  9  1  0  0  0  0
  8 10  1  0  0  0  0
  8 11  1  0  0  0  0
 11 12  1  0  0  0  0
 11 13  1  0  0  0  0
 11 14  1  0  0  0  0
 14 15  1  0  0  0  0
 14 16  1  0  0  0  0
 14 17  1  0  0  0  0
 17 18  1  0  0  0  0
 17 19  1  0  0  0  0
 19 20  1  0  0  0  0
 19 21  1  0  0  0  0
 19 22  1  0  0  0  0
 17 23  1  0  0  0  0
 23 24  1  0  0  0  0
 23 25  1  0  0  0  0
 23 26  1  0  0  0  0
M  END
> <VConfSearch Rank>
679

> <Conf_Id>
105

> <Delta U+W>
3.442

> <U+W>
-26.857

> <U>
27.313

> <W>
-54.169

> <W(PB)>
-56.414

> <W(SA)>
2.245

> <Valence>
6.229

> <Coulomb>
19.943

> <VdW>
1.140

> <VdW6>
-9.001

> <VdW12>
10.140

> <Bond>
0.294

> <Angle>
1.969

> <Pdih>
3.967

> <Idih>
0.000

> <Tether>
0.000

$$$$
VeraChem MOL file


 26 25  0  0  0  0  0  0  0  0999 V2000     
   17.0809   18.2463   21.7637 C   0  0  0  0  0  0  0  0  0  0  0  0
   16.8145   17.1845   21.8452 H   0  0  0  0  0  0  0  0  0  0  0  0
   16.3375   18.7266   21.1144 H   0  0  0  0  0  0  0  0  0  0  0  0
   18.0516   18.3128   21.2606 H   0  0  0  0  0  0  0  0  0  0  0  0
   17.0975   18.9196   23.1559 C   0  0  0  0  0  0  0  0  0  0  0  0
   16.0864   18.8433   23.5797 H   0  0  0  0  0  0  0  0  0  0  0  0
   17.3033   19.9946   23.0579 H   0  0  0  0  0  0  0  0  0  0  0  0
   18.0968   18.2672   24.1459 C   0  0  0  0  0  0  0  0  0  0  0  0
   17.6599   18.3162   25.1530 H   0  0  0  0  0  0  0  0  0  0  0  0
   18.2077   17.1968   23.9242 H   0  0  0  0  0  0  0  0  0  0  0  0
   19.4888   18.9473   24.2091 C   0  0  0  0  0  0  0  0  0  0  0  0
   20.0783   18.4505   24.9923 H   0  0  0  0  0  0  0  0  0  0  0  0
   19.3635   19.9894   24.5323 H   0  0  0  0  0  0  0  0  0  0  0  0
   20.2808   18.9009   22.8792 C   0  0  0  0  0  0  0  0  0  0  0  0
   20.2717   17.8725   22.4944 H   0  0  0  0  0  0  0  0  0  0  0  0
   19.7859   19.5295   22.1285 H   0  0  0  0  0  0  0  0  0  0  0  0
   21.7459   19.3611   23.0379 C   0  0  1  0  0  0  0  0  0  0  0  0
   22.2204   18.7370   23.8015 H   0  0  0  0  0  0  0  0  0  0  0  0
   22.5109   19.1738   21.7180 C   0  0  0  0  0  0  0  0  0  0  0  0
   22.0749   19.7829   20.9162 H   0  0  0  0  0  0  0  0  0  0  0  0
   22.4884   18.1239   21.4001 H   0  0  0  0  0  0  0  0  0  0  0  0
   23.5625   19.4636   21.8341 H   0  0  0  0  0  0  0  0  0  0  0  0
   21.8534   20.7842   23.5140 N   0  3  0  0  0  0  0  0  0  0  0  0
   21.3837   20.9135   24.4140 H   0  0  0  0  0  0  0  0  0  0  0  0
   22.8304   21.0654   23.6354 H   0  0  0  0  0  0  0  0  0  0  0  0
   21.4280   21.4340   22.8476 H   0  0  0  0  0  0  0  0  0  0  0  0
  1  2  1  0  0  0  0
  1  3  1  0  0  0  0
  1  4  1  0  0  0  0
  1  5  1  0  0  0  0
  5  6  1  0  0  0  0
  5  7  1  0  0  0  0
  5  8  1  0  0  0  0
  8  9  1  0  0  0  0
  8 10  1  0  0  0  0
  8 11  1  0  0  0  0
 11 12  1  0  0  0  0
 11 13  1  0  0  0  0
 11 14  1  0  0  0  0
 14 15  1  0  0  0  0
 14 16  1  0  0  0  0
 14 17  1  0  0  0  0
 17 18  1  0  0  0  0
 17 19  1  0  0  0  0
 19 20  1  0  0  0  0
 19 21  1  0  0  0  0
 19 22  1  0  0  0  0
 17 23  1  0  0  0  0
 23 24  1  0  0  0  0
 23 25  1  0  0  0  0
 23 26  1  0  0  0  0
M  END
> <VConfSearch Rank>
680

> <Conf_Id>
107

> <Delta U+W>
2.995

> <U+W>
-27.304

> <U>
26.796

> <W>
-54.100

> <W(PB)>
-56.404

> <W(SA)>
2.304

> <Valence>
5.706

> <Coulomb>
20.107

> <VdW>
0.982

> <VdW6>
-8.396

> <VdW12>
9.378

> <Bond>
0.254

> <Angle>
1.644

> <Pdih>
3.808

> <Idih>
0.000

> <Tether>
0.000

$$$$
VeraChem MOL file


 26 25  0  0  0  0  0  0  0  0999 V2000     
   19.8395   14.9311   23.0508 C   0  0  0  0  0  0  0  0  0  0  0  0
   19.1570   14.8046   23.9013 H   0  0  0  0  0  0  0  0  0  0  0  0
   19.6659   14.1014   22.3532 H   0  0  0  0  0  0  0  0  0  0  0  0
   20.8689   14.8484   23.4232 H   0  0  0  0  0  0  0  0  0  0  0  0
   19.6097   16.2879   22.3519 C   0  0  0  0  0  0  0  0  0  0  0  0
   18.5833   16.3272   21.9609 H   0  0  0  0  0  0  0  0  0  0  0  0
   20.2821   16.3705   21.4865 H   0  0  0  0  0  0  0  0  0  0  0  0
   19.8477   17.4738   23.3128 C   0  0  0  0  0  0  0  0  0  0  0  0
   19.1756   17.3843   24.1775 H   0  0  0  0  0  0  0  0  0  0  0  0
   20.8742   17.4292   23.7024 H   0  0  0  0  0  0  0  0  0  0  0  0
   19.6177   18.8345   22.6168 C   0  0  0  0  0  0  0  0  0  0  0  0
   18.5897   18.8791   22.2309 H   0  0  0  0  0  0  0  0  0  0  0  0
   20.2881   18.9129   21.7506 H   0  0  0  0  0  0  0  0  0  0  0  0
   19.8583   20.0208   23.5819 C   0  0  0  0  0  0  0  0  0  0  0  0
   19.2188   19.8944   24.4657 H   0  0  0  0  0  0  0  0  0  0  0  0
   20.8960   20.0032   23.9409 H   0  0  0  0  0  0  0  0  0  0  0  0
   19.5540   21.3917   22.9397 C   0  0  1  0  0  0  0  0  0  0  0  0
   18.5243   21.3758   22.5694 H   0  0  0  0  0  0  0  0  0  0  0  0
   19.6727   22.5106   23.9870 C   0  0  0  0  0  0  0  0  0  0  0  0
   20.6913   22.5705   24.3904 H   0  0  0  0  0  0  0  0  0  0  0  0
   18.9838   22.3368   24.8230 H   0  0  0  0  0  0  0  0  0  0  0  0
   19.4218   23.4833   23.5463 H   0  0  0  0  0  0  0  0  0  0  0  0
   20.4357   21.6821   21.7557 N   0  3  0  0  0  0  0  0  0  0  0  0
   21.4230   21.7105   22.0234 H   0  0  0  0  0  0  0  0  0  0  0  0
   20.3333   20.9688   21.0290 H   0  0  0  0  0  0  0  0  0  0  0  0
   20.2070   22.5856   21.3316 H   0  0  0  0  0  0  0  0  0  0  0  0
  1  2  1  0  0  0  0
  1  3  1  0  0  0  0
  1  4  1  0  0  0  0
  1  5  1  0  0  0  0
  5  6  1  0  0  0  0
  5  7  1  0  0  0  0
  5  8  1  0  0  0  0
  8  9  1  0  0  0  0
  8 10  1  0  0  0  0
  8 11  1  0  0  0  0
 11 12  1  0  0  0  0
 11 13  1  0  0  0  0
 11 14  1  0  0  0  0
 14 15  1  0  0  0  0
 14 16  1  0  0  0  0
 14 17  1  0  0  0  0
 17 18  1  0  0  0  0
 17 19  1  0  0  0  0
 19 20  1  0  0  0  0
 19 21  1  0  0  0  0
 19 22  1  0  0  0  0
 17 23  1  0  0  0  0
 23 24  1  0  0  0  0
 23 25  1  0  0  0  0
 23 26  1  0  0  0  0
M  END
> <VConfSearch Rank>
681

> <Conf_Id>
122

> <Delta U+W>
0.000

> <U+W>
-30.299

> <U>
23.517

> <W>
-53.816

> <W(PB)>
-56.162

> <W(SA)>
2.346

> <Valence>
2.737

> <Coulomb>
19.862

> <VdW>
0.919

> <VdW6>
-6.793

> <VdW12>
7.712

> <Bond>
0.171

> <Angle>
0.873

> <Pdih>
1.693

> <Idih>
0.000

> <Tether>
0.000

$$$$
VeraChem MOL file


 26 25  0  0  0  0  0  0  0  0999 V2000     
   20.2739   23.2131   23.8506 C   0  0  0  0  0  0  0  0  0  0  0  0
   19.9150   24.1771   23.4673 H   0  0  0  0  0  0  0  0  0  0  0  0
   20.0059   23.1523   24.9135 H   0  0  0  0  0  0  0  0  0  0  0  0
   21.3690   23.2063   23.7732 H   0  0  0  0  0  0  0  0  0  0  0  0
   19.6542   22.0452   23.0544 C   0  0  0  0  0  0  0  0  0  0  0  0
   19.9112   22.1522   21.9912 H   0  0  0  0  0  0  0  0  0  0  0  0
   18.5586   22.0984   23.1226 H   0  0  0  0  0  0  0  0  0  0  0  0
   20.1434   20.6752   23.5743 C   0  0  0  0  0  0  0  0  0  0  0  0
   21.2390   20.6275   23.5058 H   0  0  0  0  0  0  0  0  0  0  0  0
   19.8868   20.5752   24.6381 H   0  0  0  0  0  0  0  0  0  0  0  0
   19.5245   19.5029   22.7795 C   0  0  0  0  0  0  0  0  0  0  0  0
   19.7798   19.6176   21.7179 H   0  0  0  0  0  0  0  0  0  0  0  0
   18.4290   19.5485   22.8525 H   0  0  0  0  0  0  0  0  0  0  0  0
   20.0202   18.1312   23.3001 C   0  0  0  0  0  0  0  0  0  0  0  0
   21.1079   18.0561   23.1685 H   0  0  0  0  0  0  0  0  0  0  0  0
   19.8335   18.0796   24.3809 H   0  0  0  0  0  0  0  0  0  0  0  0
   19.3302   16.9227   22.6270 C   0  0  1  0  0  0  0  0  0  0  0  0
   18.2476   17.0418   22.7350 H   0  0  0  0  0  0  0  0  0  0  0  0
   19.6623   16.8257   21.1270 C   0  0  0  0  0  0  0  0  0  0  0  0
   20.7456   16.7687   20.9632 H   0  0  0  0  0  0  0  0  0  0  0  0
   19.2759   17.6908   20.5759 H   0  0  0  0  0  0  0  0  0  0  0  0
   19.2045   15.9311   20.6871 H   0  0  0  0  0  0  0  0  0  0  0  0
   19.6866   15.6381   23.3226 N   0  3  0  0  0  0  0  0  0  0  0  0
   20.6906   15.4478   23.2662 H   0  0  0  0  0  0  0  0  0  0  0  0
   19.4335   15.6632   24.3145 H   0  0  0  0  0  0  0  0  0  0  0  0
   19.2007   14.8393   22.9052 H   0  0  0  0  0  0  0  0  0  0  0  0
  1  2  1  0  0  0  0
  1  3  1  0  0  0  0
  1  4  1  0  0  0  0
  1  5  1  0  0  0  0
  5  6  1  0  0  0  0
  5  7  1  0  0  0  0
  5  8  1  0  0  0  0
  8  9  1  0  0  0  0
  8 10  1  0  0  0  0
  8 11  1  0  0  0  0
 11 12  1  0  0  0  0
 11 13  1  0  0  0  0
 11 14  1  0  0  0  0
 14 15  1  0  0  0  0
 14 16  1  0  0  0  0
 14 17  1  0  0  0  0
 17 18  1  0  0  0  0
 17 19  1  0  0  0  0
 19 20  1  0  0  0  0
 19 21  1  0  0  0  0
 19 22  1  0  0  0  0
 17 23  1  0  0  0  0
 23 24  1  0  0  0  0
 23 25  1  0  0  0  0
 23 26  1  0  0  0  0
M  END
> <VConfSearch Rank>
682

> <Conf_Id>
54

> <Delta U+W>
0.453

> <U+W>
-29.845

> <U>
23.817

> <W>
-53.663

> <W(PB)>
-56.021

> <W(SA)>
2.358

> <Valence>
3.277

> <Coulomb>
19.492

> <VdW>
1.049

> <VdW6>
-6.949

> <VdW12>
7.998

> <Bond>
0.183

> <Angle>
1.152

> <Pdih>
1.942

> <Idih>
0.000

> <Tether>
0.000

$$$$
VeraChem MOL file


 26 25  0  0  0  0  0  0  0  0999 V2000     
   19.8066   16.4192   25.4311 C   0  0  0  0  0  0  0  0  0  0  0  0
   20.1916   15.7131   24.6840 H   0  0  0  0  0  0  0  0  0  0  0  0
   20.6528   16.9884   25.8347 H   0  0  0  0  0  0  0  0  0  0  0  0
   19.3810   15.8342   26.2567 H   0  0  0  0  0  0  0  0  0  0  0  0
   18.7330   17.3472   24.8179 C   0  0  0  0  0  0  0  0  0  0  0  0
   18.3880   18.0665   25.5738 H   0  0  0  0  0  0  0  0  0  0  0  0
   17.8571   16.7397   24.5503 H   0  0  0  0  0  0  0  0  0  0  0  0
   19.2146   18.1023   23.5551 C   0  0  0  0  0  0  0  0  0  0  0  0
   19.5859   17.3790   22.8161 H   0  0  0  0  0  0  0  0  0  0  0  0
   18.3399   18.5937   23.1128 H   0  0  0  0  0  0  0  0  0  0  0  0
   20.3032   19.1650   23.8503 C   0  0  0  0  0  0  0  0  0  0  0  0
   21.1243   18.6981   24.4085 H   0  0  0  0  0  0  0  0  0  0  0  0
   19.8880   19.9390   24.5105 H   0  0  0  0  0  0  0  0  0  0  0  0
   20.9182   19.8351   22.5931 C   0  0  0  0  0  0  0  0  0  0  0  0
   21.7357   20.4804   22.9414 H   0  0  0  0  0  0  0  0  0  0  0  0
   21.3885   19.0778   21.9522 H   0  0  0  0  0  0  0  0  0  0  0  0
   19.9326   20.6913   21.7625 C   0  0  1  0  0  0  0  0  0  0  0  0
   19.2620   21.2130   22.4522 H   0  0  0  0  0  0  0  0  0  0  0  0
   20.6965   21.7460   20.9445 C   0  0  0  0  0  0  0  0  0  0  0  0
   20.0019   22.3663   20.3648 H   0  0  0  0  0  0  0  0  0  0  0  0
   21.3987   21.2740   20.2458 H   0  0  0  0  0  0  0  0  0  0  0  0
   21.2658   22.4142   21.6026 H   0  0  0  0  0  0  0  0  0  0  0  0
   19.0726   19.8656   20.8445 N   0  3  0  0  0  0  0  0  0  0  0  0
   18.5438   19.1588   21.3602 H   0  0  0  0  0  0  0  0  0  0  0  0
   18.3987   20.4480   20.3393 H   0  0  0  0  0  0  0  0  0  0  0  0
   19.6383   19.3771   20.1453 H   0  0  0  0  0  0  0  0  0  0  0  0
  1  2  1  0  0  0  0
  1  3  1  0  0  0  0
  1  4  1  0  0  0  0
  1  5  1  0  0  0  0
  5  6  1  0  0  0  0
  5  7  1  0  0  0  0
  5  8  1  0  0  0  0
  8  9  1  0  0  0  0
  8 10  1  0  0  0  0
  8 11  1  0  0  0  0
 11 12  1  0  0  0  0
 11 13  1  0  0  0  0
 11 14  1  0  0  0  0
 14 15  1  0  0  0  0
 14 16  1  0  0  0  0
 14 17  1  0  0  0  0
 17 18  1  0  0  0  0
 17 19  1  0  0  0  0
 19 20  1  0  0  0  0
 19 21  1  0  0  0  0
 19 22  1  0  0  0  0
 17 23  1  0  0  0  0
 23 24  1  0  0  0  0
 23 25  1  0  0  0  0
 23 26  1  0  0  0  0
M  END
> <VConfSearch Rank>
683

> <Conf_Id>
110

> <Delta U+W>
3.764

> <U+W>
-26.535

> <U>
27.400

> <W>
-53.935

> <W(PB)>
-56.238

> <W(SA)>
2.303

> <Valence>
5.205

> <Coulomb>
21.096

> <VdW>
1.098

> <VdW6>
-8.389

> <VdW12>
9.488

> <Bond>
0.270

> <Angle>
1.912

> <Pdih>
3.023

> <Idih>
0.000

> <Tether>
0.000

$$$$
VeraChem MOL file


 26 25  0  0  0  0  0  0  0  0999 V2000     
   17.1580   16.6902   22.3351 C   0  0  0  0  0  0  0  0  0  0  0  0
   16.2338   16.4112   21.8127 H   0  0  0  0  0  0  0  0  0  0  0  0
   17.9986   16.2951   21.7513 H   0  0  0  0  0  0  0  0  0  0  0  0
   17.1539   16.1925   23.3135 H   0  0  0  0  0  0  0  0  0  0  0  0
   17.2479   18.2251   22.4927 C   0  0  0  0  0  0  0  0  0  0  0  0
   16.3285   18.5860   22.9744 H   0  0  0  0  0  0  0  0  0  0  0  0
   17.2806   18.6968   21.5007 H   0  0  0  0  0  0  0  0  0  0  0  0
   18.4631   18.6882   23.3320 C   0  0  0  0  0  0  0  0  0  0  0  0
   18.3827   19.7708   23.4867 H   0  0  0  0  0  0  0  0  0  0  0  0
   18.4095   18.2349   24.3315 H   0  0  0  0  0  0  0  0  0  0  0  0
   19.8276   18.3442   22.6808 C   0  0  0  0  0  0  0  0  0  0  0  0
   19.8470   18.6720   21.6323 H   0  0  0  0  0  0  0  0  0  0  0  0
   19.9376   17.2518   22.6597 H   0  0  0  0  0  0  0  0  0  0  0  0
   21.0401   18.9367   23.4470 C   0  0  0  0  0  0  0  0  0  0  0  0
   20.7928   19.0686   24.5087 H   0  0  0  0  0  0  0  0  0  0  0  0
   21.8490   18.1946   23.4189 H   0  0  0  0  0  0  0  0  0  0  0  0
   21.5982   20.2553   22.8591 C   0  0  1  0  0  0  0  0  0  0  0  0
   21.8747   20.0719   21.8162 H   0  0  0  0  0  0  0  0  0  0  0  0
   20.5748   21.4031   22.8883 C   0  0  0  0  0  0  0  0  0  0  0  0
   20.1987   21.5748   23.9045 H   0  0  0  0  0  0  0  0  0  0  0  0
   19.7233   21.1880   22.2324 H   0  0  0  0  0  0  0  0  0  0  0  0
   21.0291   22.3356   22.5314 H   0  0  0  0  0  0  0  0  0  0  0  0
   22.8611   20.6676   23.5635 N   0  3  0  0  0  0  0  0  0  0  0  0
   23.5765   19.9366   23.5146 H   0  0  0  0  0  0  0  0  0  0  0  0
   23.2619   21.5134   23.1483 H   0  0  0  0  0  0  0  0  0  0  0  0
   22.6903   20.8650   24.5531 H   0  0  0  0  0  0  0  0  0  0  0  0
  1  2  1  0  0  0  0
  1  3  1  0  0  0  0
  1  4  1  0  0  0  0
  1  5  1  0  0  0  0
  5  6  1  0  0  0  0
  5  7  1  0  0  0  0
  5  8  1  0  0  0  0
  8  9  1  0  0  0  0
  8 10  1  0  0  0  0
  8 11  1  0  0  0  0
 11 12  1  0  0  0  0
 11 13  1  0  0  0  0
 11 14  1  0  0  0  0
 14 15  1  0  0  0  0
 14 16  1  0  0  0  0
 14 17  1  0  0  0  0
 17 18  1  0  0  0  0
 17 19  1  0  0  0  0
 19 20  1  0  0  0  0
 19 21  1  0  0  0  0
 19 22  1  0  0  0  0
 17 23  1  0  0  0  0
 23 24  1  0  0  0  0
 23 25  1  0  0  0  0
 23 26  1  0  0  0  0
M  END
> <VConfSearch Rank>
684

> <Conf_Id>
34

> <Delta U+W>
3.568

> <U+W>
-26.731

> <U>
27.221

> <W>
-53.952

> <W(PB)>
-56.213

> <W(SA)>
2.261

> <Valence>
6.368

> <Coulomb>
19.698

> <VdW>
1.155

> <VdW6>
-8.532

> <VdW12>
9.687

> <Bond>
0.272

> <Angle>
1.847

> <Pdih>
4.248

> <Idih>
0.000

> <Tether>
0.000

$$$$
VeraChem MOL file


 26 25  0  0  0  0  0  0  0  0999 V2000     
   20.9368   21.9425   20.2169 C   0  0  0  0  0  0  0  0  0  0  0  0
   20.3233   22.7719   20.5922 H   0  0  0  0  0  0  0  0  0  0  0  0
   21.9674   22.0957   20.5628 H   0  0  0  0  0  0  0  0  0  0  0  0
   20.9383   21.9937   19.1203 H   0  0  0  0  0  0  0  0  0  0  0  0
   20.3864   20.5833   20.6983 C   0  0  0  0  0  0  0  0  0  0  0  0
   20.9996   19.7729   20.2797 H   0  0  0  0  0  0  0  0  0  0  0  0
   19.3681   20.4439   20.3088 H   0  0  0  0  0  0  0  0  0  0  0  0
   20.3735   20.4849   22.2399 C   0  0  0  0  0  0  0  0  0  0  0  0
   21.3931   20.6275   22.6240 H   0  0  0  0  0  0  0  0  0  0  0  0
   19.7616   21.2986   22.6534 H   0  0  0  0  0  0  0  0  0  0  0  0
   19.8226   19.1253   22.7261 C   0  0  0  0  0  0  0  0  0  0  0  0
   20.4374   18.3174   22.3079 H   0  0  0  0  0  0  0  0  0  0  0  0
   18.8063   18.9907   22.3333 H   0  0  0  0  0  0  0  0  0  0  0  0
   19.8097   19.0344   24.2744 C   0  0  0  0  0  0  0  0  0  0  0  0
   20.8227   19.2199   24.6549 H   0  0  0  0  0  0  0  0  0  0  0  0
   19.1830   19.8398   24.6799 H   0  0  0  0  0  0  0  0  0  0  0  0
   19.3137   17.6843   24.8443 C   0  0  1  0  0  0  0  0  0  0  0  0
   19.3844   17.7464   25.9347 H   0  0  0  0  0  0  0  0  0  0  0  0
   17.8415   17.4119   24.4890 C   0  0  0  0  0  0  0  0  0  0  0  0
   17.7082   17.2409   23.4142 H   0  0  0  0  0  0  0  0  0  0  0  0
   17.2063   18.2560   24.7848 H   0  0  0  0  0  0  0  0  0  0  0  0
   17.4782   16.5217   25.0169 H   0  0  0  0  0  0  0  0  0  0  0  0
   20.1890   16.5316   24.4352 N   0  3  0  0  0  0  0  0  0  0  0  0
   19.8840   15.6570   24.8716 H   0  0  0  0  0  0  0  0  0  0  0  0
   20.1704   16.3917   23.4222 H   0  0  0  0  0  0  0  0  0  0  0  0
   21.1640   16.6852   24.7078 H   0  0  0  0  0  0  0  0  0  0  0  0
  1  2  1  0  0  0  0
  1  3  1  0  0  0  0
  1  4  1  0  0  0  0
  1  5  1  0  0  0  0
  5  6  1  0  0  0  0
  5  7  1  0  0  0  0
  5  8  1  0  0  0  0
  8  9  1  0  0  0  0
  8 10  1  0  0  0  0
  8 11  1  0  0  0  0
 11 12  1  0  0  0  0
 11 13  1  0  0  0  0
 11 14  1  0  0  0  0
 14 15  1  0  0  0  0
 14 16  1  0  0  0  0
 14 17  1  0  0  0  0
 17 18  1  0  0  0  0
 17 19  1  0  0  0  0
 19 20  1  0  0  0  0
 19 21  1  0  0  0  0
 19 22  1  0  0  0  0
 17 23  1  0  0  0  0
 23 24  1  0  0  0  0
 23 25  1  0  0  0  0
 23 26  1  0  0  0  0
M  END
> <VConfSearch Rank>
685

> <Conf_Id>
132

> <Delta U+W>
0.363

> <U+W>
-29.936

> <U>
24.060

> <W>
-53.996

> <W(PB)>
-56.327

> <W(SA)>
2.332

> <Valence>
3.249

> <Coulomb>
19.781

> <VdW>
1.030

> <VdW6>
-7.421

> <VdW12>
8.451

> <Bond>
0.207

> <Angle>
1.205

> <Pdih>
1.837

> <Idih>
0.000

> <Tether>
0.000

$$$$
VeraChem MOL file


 26 25  0  0  0  0  0  0  0  0999 V2000     
   18.6080   20.2213   19.3793 C   0  0  0  0  0  0  0  0  0  0  0  0
   17.7456   20.8752   19.1959 H   0  0  0  0  0  0  0  0  0  0  0  0
   19.4665   20.6356   18.8348 H   0  0  0  0  0  0  0  0  0  0  0  0
   18.3787   19.2344   18.9564 H   0  0  0  0  0  0  0  0  0  0  0  0
   18.9044   20.1214   20.8907 C   0  0  0  0  0  0  0  0  0  0  0  0
   18.0103   19.7435   21.4037 H   0  0  0  0  0  0  0  0  0  0  0  0
   19.1010   21.1261   21.2901 H   0  0  0  0  0  0  0  0  0  0  0  0
   20.1146   19.2000   21.1742 C   0  0  0  0  0  0  0  0  0  0  0  0
   19.8956   18.1819   20.8240 H   0  0  0  0  0  0  0  0  0  0  0  0
   20.9733   19.5498   20.5845 H   0  0  0  0  0  0  0  0  0  0  0  0
   20.5296   19.1591   22.6657 C   0  0  0  0  0  0  0  0  0  0  0  0
   20.7533   20.1788   23.0059 H   0  0  0  0  0  0  0  0  0  0  0  0
   21.4681   18.5947   22.7385 H   0  0  0  0  0  0  0  0  0  0  0  0
   19.4596   18.5097   23.5857 C   0  0  0  0  0  0  0  0  0  0  0  0
   18.5311   19.0915   23.5380 H   0  0  0  0  0  0  0  0  0  0  0  0
   19.2110   17.5101   23.2055 H   0  0  0  0  0  0  0  0  0  0  0  0
   19.8674   18.3890   25.0734 C   0  0  1  0  0  0  0  0  0  0  0  0
   19.0105   17.9715   25.6112 H   0  0  0  0  0  0  0  0  0  0  0  0
   21.0526   17.4284   25.2753 C   0  0  0  0  0  0  0  0  0  0  0  0
   21.9795   17.8304   24.8499 H   0  0  0  0  0  0  0  0  0  0  0  0
   20.8516   16.4568   24.8071 H   0  0  0  0  0  0  0  0  0  0  0  0
   21.2248   17.2525   26.3443 H   0  0  0  0  0  0  0  0  0  0  0  0
   20.1436   19.7264   25.7035 N   0  3  0  0  0  0  0  0  0  0  0  0
   19.3413   20.3564   25.6145 H   0  0  0  0  0  0  0  0  0  0  0  0
   20.3505   19.6340   26.7020 H   0  0  0  0  0  0  0  0  0  0  0  0
   20.9460   20.1849   25.2650 H   0  0  0  0  0  0  0  0  0  0  0  0
  1  2  1  0  0  0  0
  1  3  1  0  0  0  0
  1  4  1  0  0  0  0
  1  5  1  0  0  0  0
  5  6  1  0  0  0  0
  5  7  1  0  0  0  0
  5  8  1  0  0  0  0
  8  9  1  0  0  0  0
  8 10  1  0  0  0  0
  8 11  1  0  0  0  0
 11 12  1  0  0  0  0
 11 13  1  0  0  0  0
 11 14  1  0  0  0  0
 14 15  1  0  0  0  0
 14 16  1  0  0  0  0
 14 17  1  0  0  0  0
 17 18  1  0  0  0  0
 17 19  1  0  0  0  0
 19 20  1  0  0  0  0
 19 21  1  0  0  0  0
 19 22  1  0  0  0  0
 17 23  1  0  0  0  0
 23 24  1  0  0  0  0
 23 25  1  0  0  0  0
 23 26  1  0  0  0  0
M  END
> <VConfSearch Rank>
686

> <Conf_Id>
46

> <Delta U+W>
1.114

> <U+W>
-29.185

> <U>
24.990

> <W>
-54.175

> <W(PB)>
-56.455

> <W(SA)>
2.279

> <Valence>
3.862

> <Coulomb>
19.956

> <VdW>
1.172

> <VdW6>
-8.054

> <VdW12>
9.226

> <Bond>
0.258

> <Angle>
1.499

> <Pdih>
2.106

> <Idih>
0.000

> <Tether>
0.000

$$$$
VeraChem MOL file


 26 25  0  0  0  0  0  0  0  0999 V2000     
   17.8089   17.2532   25.3664 C   0  0  0  0  0  0  0  0  0  0  0  0
   18.7810   16.7623   25.4985 H   0  0  0  0  0  0  0  0  0  0  0  0
   17.7257   18.0583   26.1079 H   0  0  0  0  0  0  0  0  0  0  0  0
   17.0323   16.5102   25.5895 H   0  0  0  0  0  0  0  0  0  0  0  0
   17.6375   17.7995   23.9308 C   0  0  0  0  0  0  0  0  0  0  0  0
   16.6073   18.1637   23.8129 H   0  0  0  0  0  0  0  0  0  0  0  0
   17.7586   16.9816   23.2069 H   0  0  0  0  0  0  0  0  0  0  0  0
   18.6123   18.9519   23.5879 C   0  0  0  0  0  0  0  0  0  0  0  0
   18.3292   19.3558   22.6071 H   0  0  0  0  0  0  0  0  0  0  0  0
   18.4798   19.7701   24.3092 H   0  0  0  0  0  0  0  0  0  0  0  0
   20.0990   18.5143   23.5620 C   0  0  0  0  0  0  0  0  0  0  0  0
   20.2286   17.6774   22.8631 H   0  0  0  0  0  0  0  0  0  0  0  0
   20.3850   18.1317   24.5502 H   0  0  0  0  0  0  0  0  0  0  0  0
   21.0692   19.6673   23.1967 C   0  0  0  0  0  0  0  0  0  0  0  0
   20.9862   20.4531   23.9592 H   0  0  0  0  0  0  0  0  0  0  0  0
   22.1012   19.2959   23.2512 H   0  0  0  0  0  0  0  0  0  0  0  0
   20.8251   20.2899   21.8034 C   0  0  1  0  0  0  0  0  0  0  0  0
   19.8030   20.6783   21.7729 H   0  0  0  0  0  0  0  0  0  0  0  0
   21.7890   21.4633   21.5661 C   0  0  0  0  0  0  0  0  0  0  0  0
   21.5943   21.9353   20.5951 H   0  0  0  0  0  0  0  0  0  0  0  0
   22.8337   21.1285   21.5800 H   0  0  0  0  0  0  0  0  0  0  0  0
   21.6659   22.2312   22.3400 H   0  0  0  0  0  0  0  0  0  0  0  0
   20.9376   19.2791   20.6952 N   0  3  0  0  0  0  0  0  0  0  0  0
   20.2721   18.5121   20.8232 H   0  0  0  0  0  0  0  0  0  0  0  0
   20.7484   19.7014   19.7819 H   0  0  0  0  0  0  0  0  0  0  0  0
   21.8753   18.8712   20.6562 H   0  0  0  0  0  0  0  0  0  0  0  0
  1  2  1  0  0  0  0
  1  3  1  0  0  0  0
  1  4  1  0  0  0  0
  1  5  1  0  0  0  0
  5  6  1  0  0  0  0
  5  7  1  0  0  0  0
  5  8  1  0  0  0  0
  8  9  1  0  0  0  0
  8 10  1  0  0  0  0
  8 11  1  0  0  0  0
 11 12  1  0  0  0  0
 11 13  1  0  0  0  0
 11 14  1  0  0  0  0
 14 15  1  0  0  0  0
 14 16  1  0  0  0  0
 14 17  1  0  0  0  0
 17 18  1  0  0  0  0
 17 19  1  0  0  0  0
 19 20  1  0  0  0  0
 19 21  1  0  0  0  0
 19 22  1  0  0  0  0
 17 23  1  0  0  0  0
 23 24  1  0  0  0  0
 23 25  1  0  0  0  0
 23 26  1  0  0  0  0
M  END
> <VConfSearch Rank>
687

> <Conf_Id>
113

> <Delta U+W>
1.137

> <U+W>
-29.162

> <U>
24.833

> <W>
-53.995

> <W(PB)>
-56.288

> <W(SA)>
2.294

> <Valence>
3.589

> <Coulomb>
20.270

> <VdW>
0.974

> <VdW6>
-8.255

> <VdW12>
9.229

> <Bond>
0.244

> <Angle>
1.377

> <Pdih>
1.967

> <Idih>
0.000

> <Tether>
0.000

$$$$
VeraChem MOL file


 26 25  0  0  0  0  0  0  0  0999 V2000     
   19.0805   21.2815   26.1463 C   0  0  0  0  0  0  0  0  0  0  0  0
   19.7850   21.9930   26.5964 H   0  0  0  0  0  0  0  0  0  0  0  0
   18.2158   21.8497   25.7795 H   0  0  0  0  0  0  0  0  0  0  0  0
   18.7340   20.6045   26.9380 H   0  0  0  0  0  0  0  0  0  0  0  0
   19.7551   20.4974   25.0007 C   0  0  0  0  0  0  0  0  0  0  0  0
   20.6323   19.9636   25.3922 H   0  0  0  0  0  0  0  0  0  0  0  0
   20.1236   21.2099   24.2510 H   0  0  0  0  0  0  0  0  0  0  0  0
   18.7791   19.4904   24.3474 C   0  0  0  0  0  0  0  0  0  0  0  0
   18.3617   18.8405   25.1289 H   0  0  0  0  0  0  0  0  0  0  0  0
   17.9282   20.0302   23.9094 H   0  0  0  0  0  0  0  0  0  0  0  0
   19.4395   18.5974   23.2683 C   0  0  0  0  0  0  0  0  0  0  0  0
   18.7062   17.8433   22.9541 H   0  0  0  0  0  0  0  0  0  0  0  0
   20.2756   18.0479   23.7208 H   0  0  0  0  0  0  0  0  0  0  0  0
   19.9308   19.3926   22.0278 C   0  0  0  0  0  0  0  0  0  0  0  0
   19.1116   20.0198   21.6527 H   0  0  0  0  0  0  0  0  0  0  0  0
   20.7306   20.0826   22.3240 H   0  0  0  0  0  0  0  0  0  0  0  0
   20.4525   18.5195   20.8620 C   0  0  1  0  0  0  0  0  0  0  0  0
   20.7543   19.1980   20.0580 H   0  0  0  0  0  0  0  0  0  0  0  0
   21.6886   17.6966   21.2651 C   0  0  0  0  0  0  0  0  0  0  0  0
   21.4395   16.9275   22.0060 H   0  0  0  0  0  0  0  0  0  0  0  0
   22.4664   18.3437   21.6890 H   0  0  0  0  0  0  0  0  0  0  0  0
   22.1161   17.1926   20.3897 H   0  0  0  0  0  0  0  0  0  0  0  0
   19.3828   17.6362   20.2805 N   0  3  0  0  0  0  0  0  0  0  0  0
   18.5733   18.1811   19.9702 H   0  0  0  0  0  0  0  0  0  0  0  0
   19.7284   17.1141   19.4703 H   0  0  0  0  0  0  0  0  0  0  0  0
   19.0505   16.9536   20.9659 H   0  0  0  0  0  0  0  0  0  0  0  0
  1  2  1  0  0  0  0
  1  3  1  0  0  0  0
  1  4  1  0  0  0  0
  1  5  1  0  0  0  0
  5  6  1  0  0  0  0
  5  7  1  0  0  0  0
  5  8  1  0  0  0  0
  8  9  1  0  0  0  0
  8 10  1  0  0  0  0
  8 11  1  0  0  0  0
 11 12  1  0  0  0  0
 11 13  1  0  0  0  0
 11 14  1  0  0  0  0
 14 15  1  0  0  0  0
 14 16  1  0  0  0  0
 14 17  1  0  0  0  0
 17 18  1  0  0  0  0
 17 19  1  0  0  0  0
 19 20  1  0  0  0  0
 19 21  1  0  0  0  0
 19 22  1  0  0  0  0
 17 23  1  0  0  0  0
 23 24  1  0  0  0  0
 23 25  1  0  0  0  0
 23 26  1  0  0  0  0
M  END
> <VConfSearch Rank>
688

> <Conf_Id>
45

> <Delta U+W>
1.035

> <U+W>
-29.264

> <U>
24.725

> <W>
-53.989

> <W(PB)>
-56.298

> <W(SA)>
2.309

> <Valence>
3.780

> <Coulomb>
19.804

> <VdW>
1.141

> <VdW6>
-8.104

> <VdW12>
9.246

> <Bond>
0.254

> <Angle>
1.437

> <Pdih>
2.089

> <Idih>
0.000

> <Tether>
0.000

$$$$
VeraChem MOL file


 26 25  0  0  0  0  0  0  0  0999 V2000     
   23.0448   21.3937   22.4574 C   0  0  0  0  0  0  0  0  0  0  0  0
   23.0598   22.3222   21.8720 H   0  0  0  0  0  0  0  0  0  0  0  0
   23.5543   21.5882   23.4102 H   0  0  0  0  0  0  0  0  0  0  0  0
   23.6232   20.6395   21.9080 H   0  0  0  0  0  0  0  0  0  0  0  0
   21.5945   20.9193   22.6896 C   0  0  0  0  0  0  0  0  0  0  0  0
   21.1076   20.7765   21.7160 H   0  0  0  0  0  0  0  0  0  0  0  0
   21.0341   21.7055   23.2146 H   0  0  0  0  0  0  0  0  0  0  0  0
   21.5484   19.6081   23.5096 C   0  0  0  0  0  0  0  0  0  0  0  0
   22.0603   18.8075   22.9579 H   0  0  0  0  0  0  0  0  0  0  0  0
   22.1152   19.7511   24.4401 H   0  0  0  0  0  0  0  0  0  0  0  0
   20.1144   19.1522   23.8759 C   0  0  0  0  0  0  0  0  0  0  0  0
   19.6046   19.9532   24.4292 H   0  0  0  0  0  0  0  0  0  0  0  0
   20.1952   18.3027   24.5666 H   0  0  0  0  0  0  0  0  0  0  0  0
   19.2623   18.7415   22.6472 C   0  0  0  0  0  0  0  0  0  0  0  0
   19.1637   19.5996   21.9710 H   0  0  0  0  0  0  0  0  0  0  0  0
   19.7790   17.9539   22.0830 H   0  0  0  0  0  0  0  0  0  0  0  0
   17.8456   18.2606   23.0305 C   0  0  1  0  0  0  0  0  0  0  0  0
   17.3650   19.0465   23.6214 H   0  0  0  0  0  0  0  0  0  0  0  0
   17.0021   18.0234   21.7674 C   0  0  0  0  0  0  0  0  0  0  0  0
   17.4425   17.2406   21.1371 H   0  0  0  0  0  0  0  0  0  0  0  0
   16.9270   18.9407   21.1703 H   0  0  0  0  0  0  0  0  0  0  0  0
   15.9833   17.7155   22.0329 H   0  0  0  0  0  0  0  0  0  0  0  0
   17.8666   17.0246   23.8881 N   0  3  0  0  0  0  0  0  0  0  0  0
   18.3847   17.1801   24.7568 H   0  0  0  0  0  0  0  0  0  0  0  0
   16.9198   16.7317   24.1454 H   0  0  0  0  0  0  0  0  0  0  0  0
   18.3083   16.2401   23.4017 H   0  0  0  0  0  0  0  0  0  0  0  0
  1  2  1  0  0  0  0
  1  3  1  0  0  0  0
  1  4  1  0  0  0  0
  1  5  1  0  0  0  0
  5  6  1  0  0  0  0
  5  7  1  0  0  0  0
  5  8  1  0  0  0  0
  8  9  1  0  0  0  0
  8 10  1  0  0  0  0
  8 11  1  0  0  0  0
 11 12  1  0  0  0  0
 11 13  1  0  0  0  0
 11 14  1  0  0  0  0
 14 15  1  0  0  0  0
 14 16  1  0  0  0  0
 14 17  1  0  0  0  0
 17 18  1  0  0  0  0
 17 19  1  0  0  0  0
 19 20  1  0  0  0  0
 19 21  1  0  0  0  0
 19 22  1  0  0  0  0
 17 23  1  0  0  0  0
 23 24  1  0  0  0  0
 23 25  1  0  0  0  0
 23 26  1  0  0  0  0
M  END
> <VConfSearch Rank>
689

> <Conf_Id>
121

> <Delta U+W>
0.736

> <U+W>
-29.562

> <U>
24.282

> <W>
-53.844

> <W(PB)>
-56.205

> <W(SA)>
2.361

> <Valence>
3.311

> <Coulomb>
19.887

> <VdW>
1.083

> <VdW6>
-7.444

> <VdW12>
8.527

> <Bond>
0.219

> <Angle>
1.167

> <Pdih>
1.926

> <Idih>
0.000

> <Tether>
0.000

$$$$
VeraChem MOL file


 26 25  0  0  0  0  0  0  0  0999 V2000     
   21.4300   19.1015   19.6540 C   0  0  0  0  0  0  0  0  0  0  0  0
   22.2610   19.3631   18.9861 H   0  0  0  0  0  0  0  0  0  0  0  0
   21.0785   18.0995   19.3755 H   0  0  0  0  0  0  0  0  0  0  0  0
   20.6192   19.8158   19.4653 H   0  0  0  0  0  0  0  0  0  0  0  0
   21.8902   19.1392   21.1290 C   0  0  0  0  0  0  0  0  0  0  0  0
   22.2044   20.1588   21.3927 H   0  0  0  0  0  0  0  0  0  0  0  0
   22.7818   18.5057   21.2365 H   0  0  0  0  0  0  0  0  0  0  0  0
   20.8117   18.6492   22.1254 C   0  0  0  0  0  0  0  0  0  0  0  0
   20.5073   17.6268   21.8623 H   0  0  0  0  0  0  0  0  0  0  0  0
   21.2712   18.5894   23.1206 H   0  0  0  0  0  0  0  0  0  0  0  0
   19.5646   19.5676   22.1844 C   0  0  0  0  0  0  0  0  0  0  0  0
   19.0971   19.6146   21.1925 H   0  0  0  0  0  0  0  0  0  0  0  0
   19.8693   20.5949   22.4235 H   0  0  0  0  0  0  0  0  0  0  0  0
   18.4933   19.0801   23.1944 C   0  0  0  0  0  0  0  0  0  0  0  0
   17.6337   19.7624   23.1582 H   0  0  0  0  0  0  0  0  0  0  0  0
   18.1203   18.1035   22.8587 H   0  0  0  0  0  0  0  0  0  0  0  0
   18.9771   18.9492   24.6582 C   0  0  1  0  0  0  0  0  0  0  0  0
   19.8245   18.2579   24.6819 H   0  0  0  0  0  0  0  0  0  0  0  0
   19.4333   20.2990   25.2401 C   0  0  0  0  0  0  0  0  0  0  0  0
   18.6317   21.0459   25.1856 H   0  0  0  0  0  0  0  0  0  0  0  0
   20.3049   20.6897   24.7021 H   0  0  0  0  0  0  0  0  0  0  0  0
   19.7243   20.1880   26.2920 H   0  0  0  0  0  0  0  0  0  0  0  0
   17.9130   18.3392   25.5278 N   0  3  0  0  0  0  0  0  0  0  0  0
   17.6244   17.4195   25.1821 H   0  0  0  0  0  0  0  0  0  0  0  0
   18.2419   18.2132   26.4892 H   0  0  0  0  0  0  0  0  0  0  0  0
   17.0774   18.9290   25.5663 H   0  0  0  0  0  0  0  0  0  0  0  0
  1  2  1  0  0  0  0
  1  3  1  0  0  0  0
  1  4  1  0  0  0  0
  1  5  1  0  0  0  0
  5  6  1  0  0  0  0
  5  7  1  0  0  0  0
  5  8  1  0  0  0  0
  8  9  1  0  0  0  0
  8 10  1  0  0  0  0
  8 11  1  0  0  0  0
 11 12  1  0  0  0  0
 11 13  1  0  0  0  0
 11 14  1  0  0  0  0
 14 15  1  0  0  0  0
 14 16  1  0  0  0  0
 14 17  1  0  0  0  0
 17 18  1  0  0  0  0
 17 19  1  0  0  0  0
 19 20  1  0  0  0  0
 19 21  1  0  0  0  0
 19 22  1  0  0  0  0
 17 23  1  0  0  0  0
 23 24  1  0  0  0  0
 23 25  1  0  0  0  0
 23 26  1  0  0  0  0
M  END
> <VConfSearch Rank>
690

> <Conf_Id>
5

> <Delta U+W>
1.233

> <U+W>
-29.065

> <U>
25.023

> <W>
-54.088

> <W(PB)>
-56.383

> <W(SA)>
2.296

> <Valence>
4.083

> <Coulomb>
19.893

> <VdW>
1.047

> <VdW6>
-8.479

> <VdW12>
9.527

> <Bond>
0.256

> <Angle>
1.716

> <Pdih>
2.112

> <Idih>
0.000

> <Tether>
0.000

$$$$
VeraChem MOL file


 26 25  0  0  0  0  0  0  0  0999 V2000     
   18.1423   18.6459   19.7236 C   0  0  0  0  0  0  0  0  0  0  0  0
   17.6959   18.0215   18.9389 H   0  0  0  0  0  0  0  0  0  0  0  0
   17.3215   19.1477   20.2505 H   0  0  0  0  0  0  0  0  0  0  0  0
   18.7566   19.4122   19.2333 H   0  0  0  0  0  0  0  0  0  0  0  0
   18.9921   17.7819   20.6831 C   0  0  0  0  0  0  0  0  0  0  0  0
   19.7137   17.2034   20.0894 H   0  0  0  0  0  0  0  0  0  0  0  0
   18.3495   17.0464   21.1869 H   0  0  0  0  0  0  0  0  0  0  0  0
   19.7686   18.6089   21.7364 C   0  0  0  0  0  0  0  0  0  0  0  0
   20.4424   17.9263   22.2701 H   0  0  0  0  0  0  0  0  0  0  0  0
   20.4051   19.3456   21.2273 H   0  0  0  0  0  0  0  0  0  0  0  0
   18.8501   19.3249   22.7579 C   0  0  0  0  0  0  0  0  0  0  0  0
   18.2376   18.5796   23.2838 H   0  0  0  0  0  0  0  0  0  0  0  0
   18.1485   19.9796   22.2253 H   0  0  0  0  0  0  0  0  0  0  0  0
   19.6121   20.1874   23.7962 C   0  0  0  0  0  0  0  0  0  0  0  0
   20.1604   20.9913   23.2870 H   0  0  0  0  0  0  0  0  0  0  0  0
   18.8612   20.6916   24.4188 H   0  0  0  0  0  0  0  0  0  0  0  0
   20.5647   19.3743   24.7063 C   0  0  1  0  0  0  0  0  0  0  0  0
   20.2779   18.3200   24.6450 H   0  0  0  0  0  0  0  0  0  0  0  0
   22.0314   19.5139   24.2595 C   0  0  0  0  0  0  0  0  0  0  0  0
   22.3769   20.5507   24.3573 H   0  0  0  0  0  0  0  0  0  0  0  0
   22.1638   19.2125   23.2144 H   0  0  0  0  0  0  0  0  0  0  0  0
   22.6840   18.8801   24.8725 H   0  0  0  0  0  0  0  0  0  0  0  0
   20.4272   19.7618   26.1533 N   0  3  0  0  0  0  0  0  0  0  0  0
   19.4682   19.6323   26.4884 H   0  0  0  0  0  0  0  0  0  0  0  0
   21.0371   19.1971   26.7514 H   0  0  0  0  0  0  0  0  0  0  0  0
   20.6763   20.7432   26.3035 H   0  0  0  0  0  0  0  0  0  0  0  0
  1  2  1  0  0  0  0
  1  3  1  0  0  0  0
  1  4  1  0  0  0  0
  1  5  1  0  0  0  0
  5  6  1  0  0  0  0
  5  7  1  0  0  0  0
  5  8  1  0  0  0  0
  8  9  1  0  0  0  0
  8 10  1  0  0  0  0
  8 11  1  0  0  0  0
 11 12  1  0  0  0  0
 11 13  1  0  0  0  0
 11 14  1  0  0  0  0
 14 15  1  0  0  0  0
 14 16  1  0  0  0  0
 14 17  1  0  0  0  0
 17 18  1  0  0  0  0
 17 19  1  0  0  0  0
 19 20  1  0  0  0  0
 19 21  1  0  0  0  0
 19 22  1  0  0  0  0
 17 23  1  0  0  0  0
 23 24  1  0  0  0  0
 23 25  1  0  0  0  0
 23 26  1  0  0  0  0
M  END
> <VConfSearch Rank>
691

> <Conf_Id>
100

> <Delta U+W>
3.818

> <U+W>
-26.481

> <U>
27.496

> <W>
-53.977

> <W(PB)>
-56.267

> <W(SA)>
2.290

> <Valence>
6.472

> <Coulomb>
19.839

> <VdW>
1.185

> <VdW6>
-8.405

> <VdW12>
9.590

> <Bond>
0.248

> <Angle>
1.619

> <Pdih>
4.604

> <Idih>
0.000

> <Tether>
0.000

$$$$
VeraChem MOL file


 26 25  0  0  0  0  0  0  0  0999 V2000     
   18.8216   22.6811   23.0488 C   0  0  0  0  0  0  0  0  0  0  0  0
   18.3064   23.3943   23.7052 H   0  0  0  0  0  0  0  0  0  0  0  0
   19.9013   22.8573   23.1414 H   0  0  0  0  0  0  0  0  0  0  0  0
   18.5267   22.9014   22.0145 H   0  0  0  0  0  0  0  0  0  0  0  0
   18.4613   21.2299   23.4314 C   0  0  0  0  0  0  0  0  0  0  0  0
   17.3728   21.0945   23.3626 H   0  0  0  0  0  0  0  0  0  0  0  0
   18.7375   21.0504   24.4799 H   0  0  0  0  0  0  0  0  0  0  0  0
   19.1736   20.2047   22.5216 C   0  0  0  0  0  0  0  0  0  0  0  0
   18.8932   20.3910   21.4757 H   0  0  0  0  0  0  0  0  0  0  0  0
   20.2572   20.3581   22.5869 H   0  0  0  0  0  0  0  0  0  0  0  0
   18.8071   18.7487   22.9007 C   0  0  0  0  0  0  0  0  0  0  0  0
   17.7189   18.6352   22.7983 H   0  0  0  0  0  0  0  0  0  0  0  0
   19.0298   18.5648   23.9597 H   0  0  0  0  0  0  0  0  0  0  0  0
   19.4940   17.6819   22.0027 C   0  0  0  0  0  0  0  0  0  0  0  0
   18.7910   16.8513   21.8559 H   0  0  0  0  0  0  0  0  0  0  0  0
   19.6674   18.0932   20.9996 H   0  0  0  0  0  0  0  0  0  0  0  0
   20.8138   17.0807   22.5469 C   0  0  1  0  0  0  0  0  0  0  0  0
   21.1709   16.3636   21.8012 H   0  0  0  0  0  0  0  0  0  0  0  0
   21.9174   18.1334   22.7393 C   0  0  0  0  0  0  0  0  0  0  0  0
   21.6816   18.8166   23.5638 H   0  0  0  0  0  0  0  0  0  0  0  0
   22.0581   18.7234   21.8253 H   0  0  0  0  0  0  0  0  0  0  0  0
   22.8730   17.6478   22.9718 H   0  0  0  0  0  0  0  0  0  0  0  0
   20.6024   16.2905   23.8095 N   0  3  0  0  0  0  0  0  0  0  0  0
   19.9086   15.5492   23.6771 H   0  0  0  0  0  0  0  0  0  0  0  0
   21.4699   15.8446   24.1211 H   0  0  0  0  0  0  0  0  0  0  0  0
   20.2734   16.8873   24.5721 H   0  0  0  0  0  0  0  0  0  0  0  0
  1  2  1  0  0  0  0
  1  3  1  0  0  0  0
  1  4  1  0  0  0  0
  1  5  1  0  0  0  0
  5  6  1  0  0  0  0
  5  7  1  0  0  0  0
  5  8  1  0  0  0  0
  8  9  1  0  0  0  0
  8 10  1  0  0  0  0
  8 11  1  0  0  0  0
 11 12  1  0  0  0  0
 11 13  1  0  0  0  0
 11 14  1  0  0  0  0
 14 15  1  0  0  0  0
 14 16  1  0  0  0  0
 14 17  1  0  0  0  0
 17 18  1  0  0  0  0
 17 19  1  0  0  0  0
 19 20  1  0  0  0  0
 19 21  1  0  0  0  0
 19 22  1  0  0  0  0
 17 23  1  0  0  0  0
 23 24  1  0  0  0  0
 23 25  1  0  0  0  0
 23 26  1  0  0  0  0
M  END
> <VConfSearch Rank>
692

> <Conf_Id>
142

> <Delta U+W>
2.978

> <U+W>
-27.320

> <U>
26.848

> <W>
-54.168

> <W(PB)>
-56.427

> <W(SA)>
2.259

> <Valence>
5.823

> <Coulomb>
20.057

> <VdW>
0.968

> <VdW6>
-8.367

> <VdW12>
9.335

> <Bond>
0.267

> <Angle>
1.799

> <Pdih>
3.758

> <Idih>
0.000

> <Tether>
0.000

$$$$
VeraChem MOL file


 26 25  0  0  0  0  0  0  0  0999 V2000     
   22.5188   16.9050   22.4810 C   0  0  0  0  0  0  0  0  0  0  0  0
   23.2565   17.7032   22.3266 H   0  0  0  0  0  0  0  0  0  0  0  0
   23.0634   15.9972   22.7712 H   0  0  0  0  0  0  0  0  0  0  0  0
   22.0275   16.7002   21.5220 H   0  0  0  0  0  0  0  0  0  0  0  0
   21.4982   17.2950   23.5745 C   0  0  0  0  0  0  0  0  0  0  0  0
   22.0239   17.3589   24.5375 H   0  0  0  0  0  0  0  0  0  0  0  0
   20.7504   16.4974   23.6856 H   0  0  0  0  0  0  0  0  0  0  0  0
   20.7899   18.6454   23.3078 C   0  0  0  0  0  0  0  0  0  0  0  0
   20.2154   18.8992   24.2062 H   0  0  0  0  0  0  0  0  0  0  0  0
   21.5433   19.4342   23.1762 H   0  0  0  0  0  0  0  0  0  0  0  0
   19.8402   18.6122   22.0838 C   0  0  0  0  0  0  0  0  0  0  0  0
   19.0511   17.8666   22.2490 H   0  0  0  0  0  0  0  0  0  0  0  0
   20.3976   18.2638   21.2054 H   0  0  0  0  0  0  0  0  0  0  0  0
   19.2089   19.9844   21.7134 C   0  0  0  0  0  0  0  0  0  0  0  0
   20.0056   20.6860   21.4336 H   0  0  0  0  0  0  0  0  0  0  0  0
   18.6153   19.8410   20.8010 H   0  0  0  0  0  0  0  0  0  0  0  0
   18.2900   20.6595   22.7638 C   0  0  1  0  0  0  0  0  0  0  0  0
   17.7647   21.4689   22.2473 H   0  0  0  0  0  0  0  0  0  0  0  0
   17.2213   19.6999   23.3156 C   0  0  0  0  0  0  0  0  0  0  0  0
   17.6663   18.9066   23.9280 H   0  0  0  0  0  0  0  0  0  0  0  0
   16.6613   19.2303   22.4974 H   0  0  0  0  0  0  0  0  0  0  0  0
   16.5030   20.2437   23.9413 H   0  0  0  0  0  0  0  0  0  0  0  0
   19.0517   21.3304   23.8738 N   0  3  0  0  0  0  0  0  0  0  0  0
   19.7127   22.0223   23.5093 H   0  0  0  0  0  0  0  0  0  0  0  0
   18.4218   21.8198   24.5159 H   0  0  0  0  0  0  0  0  0  0  0  0
   19.5855   20.6535   24.4222 H   0  0  0  0  0  0  0  0  0  0  0  0
  1  2  1  0  0  0  0
  1  3  1  0  0  0  0
  1  4  1  0  0  0  0
  1  5  1  0  0  0  0
  5  6  1  0  0  0  0
  5  7  1  0  0  0  0
  5  8  1  0  0  0  0
  8  9  1  0  0  0  0
  8 10  1  0  0  0  0
  8 11  1  0  0  0  0
 11 12  1  0  0  0  0
 11 13  1  0  0  0  0
 11 14  1  0  0  0  0
 14 15  1  0  0  0  0
 14 16  1  0  0  0  0
 14 17  1  0  0  0  0
 17 18  1  0  0  0  0
 17 19  1  0  0  0  0
 19 20  1  0  0  0  0
 19 21  1  0  0  0  0
 19 22  1  0  0  0  0
 17 23  1  0  0  0  0
 23 24  1  0  0  0  0
 23 25  1  0  0  0  0
 23 26  1  0  0  0  0
M  END
> <VConfSearch Rank>
693

> <Conf_Id>
119

> <Delta U+W>
3.538

> <U+W>
-26.761

> <U>
27.482

> <W>
-54.243

> <W(PB)>
-56.494

> <W(SA)>
2.251

> <Valence>
5.284

> <Coulomb>
21.247

> <VdW>
0.951

> <VdW6>
-9.416

> <VdW12>
10.367

> <Bond>
0.323

> <Angle>
2.522

> <Pdih>
2.439

> <Idih>
0.000

> <Tether>
0.000

$$$$
VeraChem MOL file


 26 25  0  0  0  0  0  0  0  0999 V2000     
   21.9431   18.4974   25.7001 C   0  0  0  0  0  0  0  0  0  0  0  0
   22.9484   18.6007   25.2716 H   0  0  0  0  0  0  0  0  0  0  0  0
   21.5335   19.5018   25.8638 H   0  0  0  0  0  0  0  0  0  0  0  0
   22.0447   18.0187   26.6827 H   0  0  0  0  0  0  0  0  0  0  0  0
   21.0306   17.6550   24.7801 C   0  0  0  0  0  0  0  0  0  0  0  0
   20.0235   17.5929   25.2154 H   0  0  0  0  0  0  0  0  0  0  0  0
   21.4148   16.6258   24.7470 H   0  0  0  0  0  0  0  0  0  0  0  0
   20.9426   18.1986   23.3336 C   0  0  0  0  0  0  0  0  0  0  0  0
   21.9496   18.2327   22.8954 H   0  0  0  0  0  0  0  0  0  0  0  0
   20.3741   17.4803   22.7312 H   0  0  0  0  0  0  0  0  0  0  0  0
   20.2902   19.6022   23.2423 C   0  0  0  0  0  0  0  0  0  0  0  0
   20.9428   20.3216   23.7543 H   0  0  0  0  0  0  0  0  0  0  0  0
   19.3391   19.6142   23.7897 H   0  0  0  0  0  0  0  0  0  0  0  0
   20.0889   20.0948   21.7818 C   0  0  0  0  0  0  0  0  0  0  0  0
   20.2765   21.1762   21.7536 H   0  0  0  0  0  0  0  0  0  0  0  0
   20.8534   19.6525   21.1294 H   0  0  0  0  0  0  0  0  0  0  0  0
   18.6867   19.8514   21.1700 C   0  0  1  0  0  0  0  0  0  0  0  0
   18.7101   20.2415   20.1477 H   0  0  0  0  0  0  0  0  0  0  0  0
   18.3209   18.3606   21.0866 C   0  0  0  0  0  0  0  0  0  0  0  0
   18.1723   17.9268   22.0827 H   0  0  0  0  0  0  0  0  0  0  0  0
   19.1070   17.7942   20.5724 H   0  0  0  0  0  0  0  0  0  0  0  0
   17.3906   18.2255   20.5214 H   0  0  0  0  0  0  0  0  0  0  0  0
   17.6121   20.6269   21.8820 N   0  3  0  0  0  0  0  0  0  0  0  0
   17.8186   21.6297   21.8952 H   0  0  0  0  0  0  0  0  0  0  0  0
   16.7022   20.5086   21.4275 H   0  0  0  0  0  0  0  0  0  0  0  0
   17.5122   20.3205   22.8526 H   0  0  0  0  0  0  0  0  0  0  0  0
  1  2  1  0  0  0  0
  1  3  1  0  0  0  0
  1  4  1  0  0  0  0
  1  5  1  0  0  0  0
  5  6  1  0  0  0  0
  5  7  1  0  0  0  0
  5  8  1  0  0  0  0
  8  9  1  0  0  0  0
  8 10  1  0  0  0  0
  8 11  1  0  0  0  0
 11 12  1  0  0  0  0
 11 13  1  0  0  0  0
 11 14  1  0  0  0  0
 14 15  1  0  0  0  0
 14 16  1  0  0  0  0
 14 17  1  0  0  0  0
 17 18  1  0  0  0  0
 17 19  1  0  0  0  0
 19 20  1  0  0  0  0
 19 21  1  0  0  0  0
 19 22  1  0  0  0  0
 17 23  1  0  0  0  0
 23 24  1  0  0  0  0
 23 25  1  0  0  0  0
 23 26  1  0  0  0  0
M  END
> <VConfSearch Rank>
694

> <Conf_Id>
127

> <Delta U+W>
3.544

> <U+W>
-26.754

> <U>
27.509

> <W>
-54.263

> <W(PB)>
-56.496

> <W(SA)>
2.232

> <Valence>
6.375

> <Coulomb>
20.014

> <VdW>
1.120

> <VdW6>
-8.976

> <VdW12>
10.096

> <Bond>
0.304

> <Angle>
1.986

> <Pdih>
4.086

> <Idih>
0.000

> <Tether>
0.000

$$$$
VeraChem MOL file


 26 25  0  0  0  0  0  0  0  0999 V2000     
   17.5076   19.1819   20.7838 C   0  0  0  0  0  0  0  0  0  0  0  0
   17.4065   18.9605   19.7135 H   0  0  0  0  0  0  0  0  0  0  0  0
   16.5347   19.5428   21.1421 H   0  0  0  0  0  0  0  0  0  0  0  0
   18.2288   20.0000   20.8869 H   0  0  0  0  0  0  0  0  0  0  0  0
   17.9458   17.9172   21.5586 C   0  0  0  0  0  0  0  0  0  0  0  0
   18.8825   17.5199   21.1436 H   0  0  0  0  0  0  0  0  0  0  0  0
   17.1880   17.1389   21.3916 H   0  0  0  0  0  0  0  0  0  0  0  0
   18.0871   18.1492   23.0852 C   0  0  0  0  0  0  0  0  0  0  0  0
   17.4042   18.9447   23.4138 H   0  0  0  0  0  0  0  0  0  0  0  0
   17.7501   17.2395   23.6012 H   0  0  0  0  0  0  0  0  0  0  0  0
   19.5293   18.4513   23.5683 C   0  0  0  0  0  0  0  0  0  0  0  0
   20.1744   17.5968   23.3243 H   0  0  0  0  0  0  0  0  0  0  0  0
   19.5067   18.5169   24.6634 H   0  0  0  0  0  0  0  0  0  0  0  0
   20.1364   19.7527   22.9796 C   0  0  0  0  0  0  0  0  0  0  0  0
   20.2463   19.6398   21.8944 H   0  0  0  0  0  0  0  0  0  0  0  0
   19.4377   20.5852   23.1349 H   0  0  0  0  0  0  0  0  0  0  0  0
   21.5180   20.1460   23.5545 C   0  0  1  0  0  0  0  0  0  0  0  0
   21.8595   21.0267   23.0018 H   0  0  0  0  0  0  0  0  0  0  0  0
   21.4398   20.5359   25.0411 C   0  0  0  0  0  0  0  0  0  0  0  0
   20.6745   21.3050   25.2030 H   0  0  0  0  0  0  0  0  0  0  0  0
   22.3991   20.9459   25.3800 H   0  0  0  0  0  0  0  0  0  0  0  0
   21.2021   19.6749   25.6766 H   0  0  0  0  0  0  0  0  0  0  0  0
   22.5582   19.0832   23.3291 N   0  3  0  0  0  0  0  0  0  0  0  0
   22.6504   18.8525   22.3358 H   0  0  0  0  0  0  0  0  0  0  0  0
   23.4790   19.3847   23.6599 H   0  0  0  0  0  0  0  0  0  0  0  0
   22.3210   18.2208   23.8254 H   0  0  0  0  0  0  0  0  0  0  0  0
  1  2  1  0  0  0  0
  1  3  1  0  0  0  0
  1  4  1  0  0  0  0
  1  5  1  0  0  0  0
  5  6  1  0  0  0  0
  5  7  1  0  0  0  0
  5  8  1  0  0  0  0
  8  9  1  0  0  0  0
  8 10  1  0  0  0  0
  8 11  1  0  0  0  0
 11 12  1  0  0  0  0
 11 13  1  0  0  0  0
 11 14  1  0  0  0  0
 14 15  1  0  0  0  0
 14 16  1  0  0  0  0
 14 17  1  0  0  0  0
 17 18  1  0  0  0  0
 17 19  1  0  0  0  0
 19 20  1  0  0  0  0
 19 21  1  0  0  0  0
 19 22  1  0  0  0  0
 17 23  1  0  0  0  0
 23 24  1  0  0  0  0
 23 25  1  0  0  0  0
 23 26  1  0  0  0  0
M  END
> <VConfSearch Rank>
695

> <Conf_Id>
131

> <Delta U+W>
3.589

> <U+W>
-26.710

> <U>
27.573

> <W>
-54.283

> <W(PB)>
-56.537

> <W(SA)>
2.254

> <Valence>
6.363

> <Coulomb>
20.026

> <VdW>
1.184

> <VdW6>
-8.939

> <VdW12>
10.123

> <Bond>
0.298

> <Angle>
2.018

> <Pdih>
4.047

> <Idih>
0.000

> <Tether>
0.000

$$$$
VeraChem MOL file


 26 25  0  0  0  0  0  0  0  0999 V2000     
   18.1365   16.7765   22.9837 C   0  0  0  0  0  0  0  0  0  0  0  0
   17.2943   17.4782   22.9270 H   0  0  0  0  0  0  0  0  0  0  0  0
   18.8764   17.0541   22.2230 H   0  0  0  0  0  0  0  0  0  0  0  0
   17.7602   15.7784   22.7247 H   0  0  0  0  0  0  0  0  0  0  0  0
   18.7610   16.7675   24.3959 C   0  0  0  0  0  0  0  0  0  0  0  0
   19.6435   16.1126   24.3994 H   0  0  0  0  0  0  0  0  0  0  0  0
   18.0440   16.3147   25.0950 H   0  0  0  0  0  0  0  0  0  0  0  0
   19.1513   18.1686   24.9321 C   0  0  0  0  0  0  0  0  0  0  0  0
   18.2548   18.7948   25.0380 H   0  0  0  0  0  0  0  0  0  0  0  0
   19.5399   18.0350   25.9511 H   0  0  0  0  0  0  0  0  0  0  0  0
   20.2306   18.9061   24.0969 C   0  0  0  0  0  0  0  0  0  0  0  0
   20.8923   18.1700   23.6227 H   0  0  0  0  0  0  0  0  0  0  0  0
   20.8625   19.4874   24.7826 H   0  0  0  0  0  0  0  0  0  0  0  0
   19.6366   19.8819   23.0468 C   0  0  0  0  0  0  0  0  0  0  0  0
   19.0135   19.3423   22.3249 H   0  0  0  0  0  0  0  0  0  0  0  0
   18.9686   20.5822   23.5652 H   0  0  0  0  0  0  0  0  0  0  0  0
   20.7057   20.7010   22.2884 C   0  0  1  0  0  0  0  0  0  0  0  0
   21.3509   21.1896   23.0252 H   0  0  0  0  0  0  0  0  0  0  0  0
   21.5808   19.8138   21.3846 C   0  0  0  0  0  0  0  0  0  0  0  0
   20.9693   19.2533   20.6666 H   0  0  0  0  0  0  0  0  0  0  0  0
   22.1642   19.0963   21.9728 H   0  0  0  0  0  0  0  0  0  0  0  0
   22.2950   20.4246   20.8188 H   0  0  0  0  0  0  0  0  0  0  0  0
   20.0749   21.8018   21.4813 N   0  3  0  0  0  0  0  0  0  0  0  0
   19.4519   21.4280   20.7605 H   0  0  0  0  0  0  0  0  0  0  0  0
   19.5220   22.4317   22.0696 H   0  0  0  0  0  0  0  0  0  0  0  0
   20.7823   22.3710   21.0081 H   0  0  0  0  0  0  0  0  0  0  0  0
  1  2  1  0  0  0  0
  1  3  1  0  0  0  0
  1  4  1  0  0  0  0
  1  5  1  0  0  0  0
  5  6  1  0  0  0  0
  5  7  1  0  0  0  0
  5  8  1  0  0  0  0
  8  9  1  0  0  0  0
  8 10  1  0  0  0  0
  8 11  1  0  0  0  0
 11 12  1  0  0  0  0
 11 13  1  0  0  0  0
 11 14  1  0  0  0  0
 14 15  1  0  0  0  0
 14 16  1  0  0  0  0
 14 17  1  0  0  0  0
 17 18  1  0  0  0  0
 17 19  1  0  0  0  0
 19 20  1  0  0  0  0
 19 21  1  0  0  0  0
 19 22  1  0  0  0  0
 17 23  1  0  0  0  0
 23 24  1  0  0  0  0
 23 25  1  0  0  0  0
 23 26  1  0  0  0  0
M  END
> <VConfSearch Rank>
696

> <Conf_Id>
80

> <Delta U+W>
3.351

> <U+W>
-26.948

> <U>
27.261

> <W>
-54.209

> <W(PB)>
-56.471

> <W(SA)>
2.263

> <Valence>
6.230

> <Coulomb>
19.945

> <VdW>
1.087

> <VdW6>
-8.618

> <VdW12>
9.704

> <Bond>
0.277

> <Angle>
1.928

> <Pdih>
4.025

> <Idih>
0.000

> <Tether>
0.000

$$$$
VeraChem MOL file


 26 25  0  0  0  0  0  0  0  0999 V2000     
   18.3699   19.9324   20.1381 C   0  0  0  0  0  0  0  0  0  0  0  0
   18.0532   20.8741   19.6716 H   0  0  0  0  0  0  0  0  0  0  0  0
   18.3615   19.1541   19.3641 H   0  0  0  0  0  0  0  0  0  0  0  0
   17.6214   19.6726   20.8971 H   0  0  0  0  0  0  0  0  0  0  0  0
   19.7766   20.0828   20.7600 C   0  0  0  0  0  0  0  0  0  0  0  0
   19.7526   20.8464   21.5481 H   0  0  0  0  0  0  0  0  0  0  0  0
   20.4608   20.4708   19.9926 H   0  0  0  0  0  0  0  0  0  0  0  0
   20.3597   18.7546   21.3091 C   0  0  0  0  0  0  0  0  0  0  0  0
   20.5168   18.0709   20.4635 H   0  0  0  0  0  0  0  0  0  0  0  0
   21.3591   18.9532   21.7124 H   0  0  0  0  0  0  0  0  0  0  0  0
   19.4883   18.0220   22.3684 C   0  0  0  0  0  0  0  0  0  0  0  0
   19.9588   17.0629   22.6249 H   0  0  0  0  0  0  0  0  0  0  0  0
   18.5317   17.7520   21.9021 H   0  0  0  0  0  0  0  0  0  0  0  0
   19.1962   18.8161   23.6726 C   0  0  0  0  0  0  0  0  0  0  0  0
   19.1293   19.8914   23.4735 H   0  0  0  0  0  0  0  0  0  0  0  0
   18.1966   18.5211   24.0181 H   0  0  0  0  0  0  0  0  0  0  0  0
   20.1788   18.5524   24.8392 C   0  0  1  0  0  0  0  0  0  0  0  0
   20.1713   17.4796   25.0555 H   0  0  0  0  0  0  0  0  0  0  0  0
   21.6236   18.9648   24.5129 C   0  0  0  0  0  0  0  0  0  0  0  0
   22.0545   18.3078   23.7494 H   0  0  0  0  0  0  0  0  0  0  0  0
   22.2607   18.8818   25.4020 H   0  0  0  0  0  0  0  0  0  0  0  0
   21.6714   20.0004   24.1541 H   0  0  0  0  0  0  0  0  0  0  0  0
   19.7156   19.2376   26.0951 N   0  3  0  0  0  0  0  0  0  0  0  0
   18.7718   18.9421   26.3604 H   0  0  0  0  0  0  0  0  0  0  0  0
   20.3328   19.0281   26.8848 H   0  0  0  0  0  0  0  0  0  0  0  0
   19.6993   20.2547   25.9821 H   0  0  0  0  0  0  0  0  0  0  0  0
  1  2  1  0  0  0  0
  1  3  1  0  0  0  0
  1  4  1  0  0  0  0
  1  5  1  0  0  0  0
  5  6  1  0  0  0  0
  5  7  1  0  0  0  0
  5  8  1  0  0  0  0
  8  9  1  0  0  0  0
  8 10  1  0  0  0  0
  8 11  1  0  0  0  0
 11 12  1  0  0  0  0
 11 13  1  0  0  0  0
 11 14  1  0  0  0  0
 14 15  1  0  0  0  0
 14 16  1  0  0  0  0
 14 17  1  0  0  0  0
 17 18  1  0  0  0  0
 17 19  1  0  0  0  0
 19 20  1  0  0  0  0
 19 21  1  0  0  0  0
 19 22  1  0  0  0  0
 17 23  1  0  0  0  0
 23 24  1  0  0  0  0
 23 25  1  0  0  0  0
 23 26  1  0  0  0  0
M  END
> <VConfSearch Rank>
697

> <Conf_Id>
136

> <Delta U+W>
4.272

> <U+W>
-26.026

> <U>
28.262

> <W>
-54.288

> <W(PB)>
-56.488

> <W(SA)>
2.200

> <Valence>
7.096

> <Coulomb>
19.990

> <VdW>
1.175

> <VdW6>
-9.404

> <VdW12>
10.580

> <Bond>
0.360

> <Angle>
2.785

> <Pdih>
3.951

> <Idih>
0.000

> <Tether>
0.000

$$$$
VeraChem MOL file


 26 25  0  0  0  0  0  0  0  0999 V2000     
   19.7739   20.1156   25.8142 C   0  0  0  0  0  0  0  0  0  0  0  0
   18.8718   20.0027   25.2004 H   0  0  0  0  0  0  0  0  0  0  0  0
   19.4477   20.3473   26.8364 H   0  0  0  0  0  0  0  0  0  0  0  0
   20.3462   20.9751   25.4417 H   0  0  0  0  0  0  0  0  0  0  0  0
   20.6277   18.8289   25.7993 C   0  0  0  0  0  0  0  0  0  0  0  0
   20.0111   17.9790   26.1236 H   0  0  0  0  0  0  0  0  0  0  0  0
   21.4266   18.9277   26.5475 H   0  0  0  0  0  0  0  0  0  0  0  0
   21.2754   18.5073   24.4281 C   0  0  0  0  0  0  0  0  0  0  0  0
   21.9731   19.3067   24.1429 H   0  0  0  0  0  0  0  0  0  0  0  0
   21.8932   17.6080   24.5579 H   0  0  0  0  0  0  0  0  0  0  0  0
   20.2654   18.2389   23.2820 C   0  0  0  0  0  0  0  0  0  0  0  0
   19.3288   17.8377   23.6933 H   0  0  0  0  0  0  0  0  0  0  0  0
   20.6799   17.4503   22.6400 H   0  0  0  0  0  0  0  0  0  0  0  0
   19.9808   19.4895   22.4100 C   0  0  0  0  0  0  0  0  0  0  0  0
   19.6662   20.3224   23.0487 H   0  0  0  0  0  0  0  0  0  0  0  0
   20.9073   19.8129   21.9173 H   0  0  0  0  0  0  0  0  0  0  0  0
   18.8884   19.2440   21.3466 C   0  0  1  0  0  0  0  0  0  0  0  0
   17.9842   18.8995   21.8579 H   0  0  0  0  0  0  0  0  0  0  0  0
   18.5568   20.5512   20.6092 C   0  0  0  0  0  0  0  0  0  0  0  0
   19.4337   20.9403   20.0767 H   0  0  0  0  0  0  0  0  0  0  0  0
   18.2156   21.3204   21.3133 H   0  0  0  0  0  0  0  0  0  0  0  0
   17.7553   20.3917   19.8774 H   0  0  0  0  0  0  0  0  0  0  0  0
   19.2686   18.1675   20.3668 N   0  3  0  0  0  0  0  0  0  0  0  0
   20.1141   18.4172   19.8472 H   0  0  0  0  0  0  0  0  0  0  0  0
   19.4485   17.2779   20.8397 H   0  0  0  0  0  0  0  0  0  0  0  0
   18.5248   18.0050   19.6821 H   0  0  0  0  0  0  0  0  0  0  0  0
  1  2  1  0  0  0  0
  1  3  1  0  0  0  0
  1  4  1  0  0  0  0
  1  5  1  0  0  0  0
  5  6  1  0  0  0  0
  5  7  1  0  0  0  0
  5  8  1  0  0  0  0
  8  9  1  0  0  0  0
  8 10  1  0  0  0  0
  8 11  1  0  0  0  0
 11 12  1  0  0  0  0
 11 13  1  0  0  0  0
 11 14  1  0  0  0  0
 14 15  1  0  0  0  0
 14 16  1  0  0  0  0
 14 17  1  0  0  0  0
 17 18  1  0  0  0  0
 17 19  1  0  0  0  0
 19 20  1  0  0  0  0
 19 21  1  0  0  0  0
 19 22  1  0  0  0  0
 17 23  1  0  0  0  0
 23 24  1  0  0  0  0
 23 25  1  0  0  0  0
 23 26  1  0  0  0  0
M  END
> <VConfSearch Rank>
698

> <Conf_Id>
124

> <Delta U+W>
3.001

> <U+W>
-27.298

> <U>
26.787

> <W>
-54.085

> <W(PB)>
-56.347

> <W(SA)>
2.262

> <Valence>
5.742

> <Coulomb>
20.023

> <VdW>
1.022

> <VdW6>
-8.392

> <VdW12>
9.414

> <Bond>
0.261

> <Angle>
1.576

> <Pdih>
3.904

> <Idih>
0.000

> <Tether>
0.000

$$$$
VeraChem MOL file


 26 25  0  0  0  0  0  0  0  0999 V2000     
   20.1983   22.3242   23.3559 C   0  0  0  0  0  0  0  0  0  0  0  0
   19.6599   22.7347   24.2199 H   0  0  0  0  0  0  0  0  0  0  0  0
   20.6770   23.1626   22.8334 H   0  0  0  0  0  0  0  0  0  0  0  0
   19.4598   21.8878   22.6747 H   0  0  0  0  0  0  0  0  0  0  0  0
   21.2585   21.2921   23.8061 C   0  0  0  0  0  0  0  0  0  0  0  0
   21.9770   21.8087   24.4578 H   0  0  0  0  0  0  0  0  0  0  0  0
   21.8366   20.9363   22.9419 H   0  0  0  0  0  0  0  0  0  0  0  0
   20.6601   20.0927   24.5855 C   0  0  0  0  0  0  0  0  0  0  0  0
   21.3805   19.7965   25.3606 H   0  0  0  0  0  0  0  0  0  0  0  0
   19.7559   20.4036   25.1267 H   0  0  0  0  0  0  0  0  0  0  0  0
   20.3623   18.8386   23.7236 C   0  0  0  0  0  0  0  0  0  0  0  0
   20.0261   18.0389   24.3963 H   0  0  0  0  0  0  0  0  0  0  0  0
   21.2994   18.4867   23.2719 H   0  0  0  0  0  0  0  0  0  0  0  0
   19.2987   19.0666   22.6170 C   0  0  0  0  0  0  0  0  0  0  0  0
   18.4194   19.5574   23.0539 H   0  0  0  0  0  0  0  0  0  0  0  0
   19.6990   19.7592   21.8664 H   0  0  0  0  0  0  0  0  0  0  0  0
   18.8342   17.7836   21.8880 C   0  0  1  0  0  0  0  0  0  0  0  0
   18.0957   18.0851   21.1386 H   0  0  0  0  0  0  0  0  0  0  0  0
   19.9910   17.0888   21.1486 C   0  0  0  0  0  0  0  0  0  0  0  0
   20.7298   16.6784   21.8473 H   0  0  0  0  0  0  0  0  0  0  0  0
   20.5034   17.7909   20.4793 H   0  0  0  0  0  0  0  0  0  0  0  0
   19.6129   16.2611   20.5361 H   0  0  0  0  0  0  0  0  0  0  0  0
   18.1269   16.8241   22.8054 N   0  3  0  0  0  0  0  0  0  0  0  0
   17.7705   16.0117   22.2942 H   0  0  0  0  0  0  0  0  0  0  0  0
   18.7535   16.4763   23.5351 H   0  0  0  0  0  0  0  0  0  0  0  0
   17.3290   17.2673   23.2694 H   0  0  0  0  0  0  0  0  0  0  0  0
  1  2  1  0  0  0  0
  1  3  1  0  0  0  0
  1  4  1  0  0  0  0
  1  5  1  0  0  0  0
  5  6  1  0  0  0  0
  5  7  1  0  0  0  0
  5  8  1  0  0  0  0
  8  9  1  0  0  0  0
  8 10  1  0  0  0  0
  8 11  1  0  0  0  0
 11 12  1  0  0  0  0
 11 13  1  0  0  0  0
 11 14  1  0  0  0  0
 14 15  1  0  0  0  0
 14 16  1  0  0  0  0
 14 17  1  0  0  0  0
 17 18  1  0  0  0  0
 17 19  1  0  0  0  0
 19 20  1  0  0  0  0
 19 21  1  0  0  0  0
 19 22  1  0  0  0  0
 17 23  1  0  0  0  0
 23 24  1  0  0  0  0
 23 25  1  0  0  0  0
 23 26  1  0  0  0  0
M  END
> <VConfSearch Rank>
699

> <Conf_Id>
105

> <Delta U+W>
3.442

> <U+W>
-26.857

> <U>
27.313

> <W>
-54.169

> <W(PB)>
-56.414

> <W(SA)>
2.245

> <Valence>
6.229

> <Coulomb>
19.943

> <VdW>
1.140

> <VdW6>
-9.001

> <VdW12>
10.140

> <Bond>
0.294

> <Angle>
1.969

> <Pdih>
3.967

> <Idih>
0.000

> <Tether>
0.000

$$$$
VeraChem MOL file


 26 25  0  0  0  0  0  0  0  0999 V2000     
   18.6583   16.3291   23.7054 C   0  0  0  0  0  0  0  0  0  0  0  0
   17.8303   16.3026   24.4257 H   0  0  0  0  0  0  0  0  0  0  0  0
   18.9789   15.2941   23.5293 H   0  0  0  0  0  0  0  0  0  0  0  0
   19.4949   16.8596   24.1726 H   0  0  0  0  0  0  0  0  0  0  0  0
   18.2152   16.9902   22.3793 C   0  0  0  0  0  0  0  0  0  0  0  0
   17.4012   16.3850   21.9560 H   0  0  0  0  0  0  0  0  0  0  0  0
   19.0309   16.9556   21.6439 H   0  0  0  0  0  0  0  0  0  0  0  0
   17.7076   18.4449   22.5536 C   0  0  0  0  0  0  0  0  0  0  0  0
   16.8967   18.6119   21.8310 H   0  0  0  0  0  0  0  0  0  0  0  0
   17.2505   18.5721   23.5446 H   0  0  0  0  0  0  0  0  0  0  0  0
   18.7775   19.5412   22.3135 C   0  0  0  0  0  0  0  0  0  0  0  0
   18.2872   20.5218   22.3889 H   0  0  0  0  0  0  0  0  0  0  0  0
   19.1475   19.4603   21.2826 H   0  0  0  0  0  0  0  0  0  0  0  0
   19.9671   19.4974   23.3040 C   0  0  0  0  0  0  0  0  0  0  0  0
   19.5762   19.4315   24.3281 H   0  0  0  0  0  0  0  0  0  0  0  0
   20.5646   18.5941   23.1292 H   0  0  0  0  0  0  0  0  0  0  0  0
   20.8812   20.7370   23.1980 C   0  0  1  0  0  0  0  0  0  0  0  0
   20.2682   21.6296   23.3571 H   0  0  0  0  0  0  0  0  0  0  0  0
   21.9655   20.6961   24.2866 C   0  0  0  0  0  0  0  0  0  0  0  0
   22.6122   19.8175   24.1703 H   0  0  0  0  0  0  0  0  0  0  0  0
   21.5136   20.6578   25.2857 H   0  0  0  0  0  0  0  0  0  0  0  0
   22.5957   21.5929   24.2409 H   0  0  0  0  0  0  0  0  0  0  0  0
   21.5044   20.8772   21.8359 N   0  3  0  0  0  0  0  0  0  0  0  0
   20.7919   20.9482   21.1046 H   0  0  0  0  0  0  0  0  0  0  0  0
   22.0888   21.7159   21.7763 H   0  0  0  0  0  0  0  0  0  0  0  0
   22.0975   20.0738   21.6121 H   0  0  0  0  0  0  0  0  0  0  0  0
  1  2  1  0  0  0  0
  1  3  1  0  0  0  0
  1  4  1  0  0  0  0
  1  5  1  0  0  0  0
  5  6  1  0  0  0  0
  5  7  1  0  0  0  0
  5  8  1  0  0  0  0
  8  9  1  0  0  0  0
  8 10  1  0  0  0  0
  8 11  1  0  0  0  0
 11 12  1  0  0  0  0
 11 13  1  0  0  0  0
 11 14  1  0  0  0  0
 14 15  1  0  0  0  0
 14 16  1  0  0  0  0
 14 17  1  0  0  0  0
 17 18  1  0  0  0  0
 17 19  1  0  0  0  0
 19 20  1  0  0  0  0
 19 21  1  0  0  0  0
 19 22  1  0  0  0  0
 17 23  1  0  0  0  0
 23 24  1  0  0  0  0
 23 25  1  0  0  0  0
 23 26  1  0  0  0  0
M  END
> <VConfSearch Rank>
700

> <Conf_Id>
107

> <Delta U+W>
2.995

> <U+W>
-27.304

> <U>
26.796

> <W>
-54.100

> <W(PB)>
-56.404

> <W(SA)>
2.304

> <Valence>
5.706

> <Coulomb>
20.107

> <VdW>
0.982

> <VdW6>
-8.396

> <VdW12>
9.378

> <Bond>
0.254

> <Angle>
1.644

> <Pdih>
3.808

> <Idih>
0.000

> <Tether>
0.000

$$$$
VeraChem MOL file


 26 25  0  0  0  0  0  0  0  0999 V2000     
   19.3921   15.8936   20.3130 C   0  0  0  0  0  0  0  0  0  0  0  0
   20.4586   15.6771   20.1689 H   0  0  0  0  0  0  0  0  0  0  0  0
   18.8472   14.9413   20.2782 H   0  0  0  0  0  0  0  0  0  0  0  0
   19.0509   16.5080   19.4695 H   0  0  0  0  0  0  0  0  0  0  0  0
   19.1484   16.6122   21.6570 C   0  0  0  0  0  0  0  0  0  0  0  0
   19.4679   15.9601   22.4820 H   0  0  0  0  0  0  0  0  0  0  0  0
   18.0709   16.7845   21.7880 H   0  0  0  0  0  0  0  0  0  0  0  0
   19.9049   17.9570   21.7321 C   0  0  0  0  0  0  0  0  0  0  0  0
   20.9809   17.7793   21.5971 H   0  0  0  0  0  0  0  0  0  0  0  0
   19.5836   18.6045   20.9045 H   0  0  0  0  0  0  0  0  0  0  0  0
   19.6641   18.6793   23.0770 C   0  0  0  0  0  0  0  0  0  0  0  0
   19.9892   18.0320   23.9035 H   0  0  0  0  0  0  0  0  0  0  0  0
   18.5867   18.8470   23.2070 H   0  0  0  0  0  0  0  0  0  0  0  0
   20.4223   20.0272   23.1485 C   0  0  0  0  0  0  0  0  0  0  0  0
   21.4890   19.8444   22.9618 H   0  0  0  0  0  0  0  0  0  0  0  0
   20.0735   20.6927   22.3476 H   0  0  0  0  0  0  0  0  0  0  0  0
   20.2701   20.7329   24.5135 C   0  0  1  0  0  0  0  0  0  0  0  0
   20.6011   20.0422   25.2953 H   0  0  0  0  0  0  0  0  0  0  0  0
   21.1586   21.9860   24.5692 C   0  0  0  0  0  0  0  0  0  0  0  0
   20.8658   22.7148   23.8031 H   0  0  0  0  0  0  0  0  0  0  0  0
   22.2118   21.7247   24.4075 H   0  0  0  0  0  0  0  0  0  0  0  0
   21.0835   22.4720   25.5498 H   0  0  0  0  0  0  0  0  0  0  0  0
   18.8409   21.0856   24.8239 N   0  3  0  0  0  0  0  0  0  0  0  0
   18.4564   21.7316   24.1295 H   0  0  0  0  0  0  0  0  0  0  0  0
   18.2443   20.2542   24.8355 H   0  0  0  0  0  0  0  0  0  0  0  0
   18.7569   21.5350   25.7401 H   0  0  0  0  0  0  0  0  0  0  0  0
  1  2  1  0  0  0  0
  1  3  1  0  0  0  0
  1  4  1  0  0  0  0
  1  5  1  0  0  0  0
  5  6  1  0  0  0  0
  5  7  1  0  0  0  0
  5  8  1  0  0  0  0
  8  9  1  0  0  0  0
  8 10  1  0  0  0  0
  8 11  1  0  0  0  0
 11 12  1  0  0  0  0
 11 13  1  0  0  0  0
 11 14  1  0  0  0  0
 14 15  1  0  0  0  0
 14 16  1  0  0  0  0
 14 17  1  0  0  0  0
 17 18  1  0  0  0  0
 17 19  1  0  0  0  0
 19 20  1  0  0  0  0
 19 21  1  0  0  0  0
 19 22  1  0  0  0  0
 17 23  1  0  0  0  0
 23 24  1  0  0  0  0
 23 25  1  0  0  0  0
 23 26  1  0  0  0  0
M  END
> <VConfSearch Rank>
701

> <Conf_Id>
122

> <Delta U+W>
0.000

> <U+W>
-30.299

> <U>
23.517

> <W>
-53.816

> <W(PB)>
-56.162

> <W(SA)>
2.346

> <Valence>
2.737

> <Coulomb>
19.862

> <VdW>
0.919

> <VdW6>
-6.793

> <VdW12>
7.712

> <Bond>
0.171

> <Angle>
0.873

> <Pdih>
1.693

> <Idih>
0.000

> <Tether>
0.000

$$$$
VeraChem MOL file


 26 25  0  0  0  0  0  0  0  0999 V2000     
   23.3106   21.2421   21.9627 C   0  0  0  0  0  0  0  0  0  0  0  0
   24.1365   21.7383   22.4887 H   0  0  0  0  0  0  0  0  0  0  0  0
   23.7429   20.4889   21.2912 H   0  0  0  0  0  0  0  0  0  0  0  0
   22.8011   21.9959   21.3483 H   0  0  0  0  0  0  0  0  0  0  0  0
   22.3351   20.5944   22.9682 C   0  0  0  0  0  0  0  0  0  0  0  0
   21.9459   21.3661   23.6471 H   0  0  0  0  0  0  0  0  0  0  0  0
   22.8802   19.8706   23.5903 H   0  0  0  0  0  0  0  0  0  0  0  0
   21.1618   19.8882   22.2533 C   0  0  0  0  0  0  0  0  0  0  0  0
   20.6211   20.6151   21.6313 H   0  0  0  0  0  0  0  0  0  0  0  0
   21.5568   19.1203   21.5738 H   0  0  0  0  0  0  0  0  0  0  0  0
   20.1828   19.2379   23.2571 C   0  0  0  0  0  0  0  0  0  0  0  0
   19.8013   20.0120   23.9357 H   0  0  0  0  0  0  0  0  0  0  0  0
   20.7232   18.5077   23.8754 H   0  0  0  0  0  0  0  0  0  0  0  0
   19.0055   18.5348   22.5375 C   0  0  0  0  0  0  0  0  0  0  0  0
   18.4238   19.2735   21.9702 H   0  0  0  0  0  0  0  0  0  0  0  0
   19.4163   17.8308   21.8017 H   0  0  0  0  0  0  0  0  0  0  0  0
   18.0693   17.7554   23.4893 C   0  0  1  0  0  0  0  0  0  0  0  0
   18.6772   17.0566   24.0722 H   0  0  0  0  0  0  0  0  0  0  0  0
   17.3273   18.6866   24.4650 C   0  0  0  0  0  0  0  0  0  0  0  0
   16.7514   19.4490   23.9258 H   0  0  0  0  0  0  0  0  0  0  0  0
   18.0251   19.1957   25.1397 H   0  0  0  0  0  0  0  0  0  0  0  0
   16.6313   18.1146   25.0910 H   0  0  0  0  0  0  0  0  0  0  0  0
   17.0854   16.9199   22.7182 N   0  3  0  0  0  0  0  0  0  0  0  0
   16.4703   17.5013   22.1428 H   0  0  0  0  0  0  0  0  0  0  0  0
   17.5582   16.2605   22.0934 H   0  0  0  0  0  0  0  0  0  0  0  0
   16.4891   16.3711   23.3440 H   0  0  0  0  0  0  0  0  0  0  0  0
  1  2  1  0  0  0  0
  1  3  1  0  0  0  0
  1  4  1  0  0  0  0
  1  5  1  0  0  0  0
  5  6  1  0  0  0  0
  5  7  1  0  0  0  0
  5  8  1  0  0  0  0
  8  9  1  0  0  0  0
  8 10  1  0  0  0  0
  8 11  1  0  0  0  0
 11 12  1  0  0  0  0
 11 13  1  0  0  0  0
 11 14  1  0  0  0  0
 14 15  1  0  0  0  0
 14 16  1  0  0  0  0
 14 17  1  0  0  0  0
 17 18  1  0  0  0  0
 17 19  1  0  0  0  0
 19 20  1  0  0  0  0
 19 21  1  0  0  0  0
 19 22  1  0  0  0  0
 17 23  1  0  0  0  0
 23 24  1  0  0  0  0
 23 25  1  0  0  0  0
 23 26  1  0  0  0  0
M  END
> <VConfSearch Rank>
702

> <Conf_Id>
54

> <Delta U+W>
0.453

> <U+W>
-29.845

> <U>
23.817

> <W>
-53.663

> <W(PB)>
-56.021

> <W(SA)>
2.358

> <Valence>
3.277

> <Coulomb>
19.492

> <VdW>
1.049

> <VdW6>
-6.949

> <VdW12>
7.998

> <Bond>
0.183

> <Angle>
1.152

> <Pdih>
1.942

> <Idih>
0.000

> <Tether>
0.000

$$$$
VeraChem MOL file


 26 25  0  0  0  0  0  0  0  0999 V2000     
   18.6876   20.8579   19.9593 C   0  0  0  0  0  0  0  0  0  0  0  0
   18.5868   19.9028   19.4275 H   0  0  0  0  0  0  0  0  0  0  0  0
   17.7917   21.0053   20.5745 H   0  0  0  0  0  0  0  0  0  0  0  0
   18.7058   21.6587   19.2088 H   0  0  0  0  0  0  0  0  0  0  0  0
   19.9776   20.8869   20.8107 C   0  0  0  0  0  0  0  0  0  0  0  0
   20.0392   21.8371   21.3595 H   0  0  0  0  0  0  0  0  0  0  0  0
   20.8436   20.8668   20.1343 H   0  0  0  0  0  0  0  0  0  0  0  0
   20.0950   19.7008   21.7986 C   0  0  0  0  0  0  0  0  0  0  0  0
   20.0023   18.7551   21.2470 H   0  0  0  0  0  0  0  0  0  0  0  0
   21.1050   19.7269   22.2245 H   0  0  0  0  0  0  0  0  0  0  0  0
   19.0547   19.7495   22.9462 C   0  0  0  0  0  0  0  0  0  0  0  0
   18.0489   19.8532   22.5202 H   0  0  0  0  0  0  0  0  0  0  0  0
   19.2225   20.6500   23.5528 H   0  0  0  0  0  0  0  0  0  0  0  0
   19.0421   18.5015   23.8683 C   0  0  0  0  0  0  0  0  0  0  0  0
   18.1997   18.6241   24.5621 H   0  0  0  0  0  0  0  0  0  0  0  0
   18.8173   17.6003   23.2827 H   0  0  0  0  0  0  0  0  0  0  0  0
   20.3339   18.2867   24.6926 C   0  0  1  0  0  0  0  0  0  0  0  0
   20.7061   19.2648   25.0129 H   0  0  0  0  0  0  0  0  0  0  0  0
   20.0356   17.4509   25.9485 C   0  0  0  0  0  0  0  0  0  0  0  0
   20.9449   17.3078   26.5453 H   0  0  0  0  0  0  0  0  0  0  0  0
   19.6416   16.4619   25.6827 H   0  0  0  0  0  0  0  0  0  0  0  0
   19.2975   17.9531   26.5863 H   0  0  0  0  0  0  0  0  0  0  0  0
   21.4309   17.6312   23.8984 N   0  3  0  0  0  0  0  0  0  0  0  0
   21.6593   18.1684   23.0591 H   0  0  0  0  0  0  0  0  0  0  0  0
   22.2888   17.5406   24.4500 H   0  0  0  0  0  0  0  0  0  0  0  0
   21.1608   16.6910   23.5977 H   0  0  0  0  0  0  0  0  0  0  0  0
  1  2  1  0  0  0  0
  1  3  1  0  0  0  0
  1  4  1  0  0  0  0
  1  5  1  0  0  0  0
  5  6  1  0  0  0  0
  5  7  1  0  0  0  0
  5  8  1  0  0  0  0
  8  9  1  0  0  0  0
  8 10  1  0  0  0  0
  8 11  1  0  0  0  0
 11 12  1  0  0  0  0
 11 13  1  0  0  0  0
 11 14  1  0  0  0  0
 14 15  1  0  0  0  0
 14 16  1  0  0  0  0
 14 17  1  0  0  0  0
 17 18  1  0  0  0  0
 17 19  1  0  0  0  0
 19 20  1  0  0  0  0
 19 21  1  0  0  0  0
 19 22  1  0  0  0  0
 17 23  1  0  0  0  0
 23 24  1  0  0  0  0
 23 25  1  0  0  0  0
 23 26  1  0  0  0  0
M  END
> <VConfSearch Rank>
703

> <Conf_Id>
110

> <Delta U+W>
3.764

> <U+W>
-26.535

> <U>
27.400

> <W>
-53.935

> <W(PB)>
-56.238

> <W(SA)>
2.303

> <Valence>
5.205

> <Coulomb>
21.096

> <VdW>
1.098

> <VdW6>
-8.389

> <VdW12>
9.488

> <Bond>
0.270

> <Angle>
1.912

> <Pdih>
3.023

> <Idih>
0.000

> <Tether>
0.000

$$$$
VeraChem MOL file


 26 25  0  0  0  0  0  0  0  0999 V2000     
   19.0562   16.8525   25.7167 C   0  0  0  0  0  0  0  0  0  0  0  0
   18.9639   16.6729   26.7957 H   0  0  0  0  0  0  0  0  0  0  0  0
   18.0618   17.1251   25.3419 H   0  0  0  0  0  0  0  0  0  0  0  0
   19.3558   15.9083   25.2437 H   0  0  0  0  0  0  0  0  0  0  0  0
   20.0919   17.9658   25.4405 C   0  0  0  0  0  0  0  0  0  0  0  0
   21.0357   17.7030   25.9384 H   0  0  0  0  0  0  0  0  0  0  0  0
   19.7544   18.9061   25.8985 H   0  0  0  0  0  0  0  0  0  0  0  0
   20.3703   18.1885   23.9343 C   0  0  0  0  0  0  0  0  0  0  0  0
   21.1926   18.9076   23.8384 H   0  0  0  0  0  0  0  0  0  0  0  0
   20.7335   17.2521   23.4887 H   0  0  0  0  0  0  0  0  0  0  0  0
   19.1317   18.6891   23.1472 C   0  0  0  0  0  0  0  0  0  0  0  0
   18.6731   19.5475   23.6571 H   0  0  0  0  0  0  0  0  0  0  0  0
   18.3739   17.8945   23.1486 H   0  0  0  0  0  0  0  0  0  0  0  0
   19.4476   19.0523   21.6719 C   0  0  0  0  0  0  0  0  0  0  0  0
   20.3093   18.4739   21.3129 H   0  0  0  0  0  0  0  0  0  0  0  0
   18.5958   18.7309   21.0581 H   0  0  0  0  0  0  0  0  0  0  0  0
   19.6680   20.5614   21.4076 C   0  0  1  0  0  0  0  0  0  0  0  0
   18.7725   21.0980   21.7358 H   0  0  0  0  0  0  0  0  0  0  0  0
   20.8749   21.1320   22.1714 C   0  0  0  0  0  0  0  0  0  0  0  0
   21.7908   20.5733   21.9425 H   0  0  0  0  0  0  0  0  0  0  0  0
   20.7069   21.0988   23.2542 H   0  0  0  0  0  0  0  0  0  0  0  0
   21.0409   22.1826   21.9031 H   0  0  0  0  0  0  0  0  0  0  0  0
   19.8079   20.8361   19.9359 N   0  3  0  0  0  0  0  0  0  0  0  0
   18.9918   20.5083   19.4114 H   0  0  0  0  0  0  0  0  0  0  0  0
   19.9062   21.8382   19.7500 H   0  0  0  0  0  0  0  0  0  0  0  0
   20.6316   20.3712   19.5450 H   0  0  0  0  0  0  0  0  0  0  0  0
  1  2  1  0  0  0  0
  1  3  1  0  0  0  0
  1  4  1  0  0  0  0
  1  5  1  0  0  0  0
  5  6  1  0  0  0  0
  5  7  1  0  0  0  0
  5  8  1  0  0  0  0
  8  9  1  0  0  0  0
  8 10  1  0  0  0  0
  8 11  1  0  0  0  0
 11 12  1  0  0  0  0
 11 13  1  0  0  0  0
 11 14  1  0  0  0  0
 14 15  1  0  0  0  0
 14 16  1  0  0  0  0
 14 17  1  0  0  0  0
 17 18  1  0  0  0  0
 17 19  1  0  0  0  0
 19 20  1  0  0  0  0
 19 21  1  0  0  0  0
 19 22  1  0  0  0  0
 17 23  1  0  0  0  0
 23 24  1  0  0  0  0
 23 25  1  0  0  0  0
 23 26  1  0  0  0  0
M  END
> <VConfSearch Rank>
704

> <Conf_Id>
34

> <Delta U+W>
3.568

> <U+W>
-26.731

> <U>
27.221

> <W>
-53.952

> <W(PB)>
-56.213

> <W(SA)>
2.261

> <Valence>
6.368

> <Coulomb>
19.698

> <VdW>
1.155

> <VdW6>
-8.532

> <VdW12>
9.687

> <Bond>
0.272

> <Angle>
1.847

> <Pdih>
4.248

> <Idih>
0.000

> <Tether>
0.000

$$$$
VeraChem MOL file


 26 25  0  0  0  0  0  0  0  0999 V2000     
   22.4301   21.6054   21.0228 C   0  0  0  0  0  0  0  0  0  0  0  0
   22.2642   22.5045   21.6306 H   0  0  0  0  0  0  0  0  0  0  0  0
   23.3671   21.1379   21.3526 H   0  0  0  0  0  0  0  0  0  0  0  0
   22.5607   21.9229   19.9801 H   0  0  0  0  0  0  0  0  0  0  0  0
   21.2457   20.6239   21.1495 C   0  0  0  0  0  0  0  0  0  0  0  0
   21.4247   19.7518   20.5051 H   0  0  0  0  0  0  0  0  0  0  0  0
   20.3304   21.1079   20.7809 H   0  0  0  0  0  0  0  0  0  0  0  0
   21.0399   20.1611   22.6089 C   0  0  0  0  0  0  0  0  0  0  0  0
   21.9585   19.6805   22.9731 H   0  0  0  0  0  0  0  0  0  0  0  0
   20.8641   21.0366   23.2491 H   0  0  0  0  0  0  0  0  0  0  0  0
   19.8545   19.1782   22.7401 C   0  0  0  0  0  0  0  0  0  0  0  0
   20.0361   18.3072   22.0967 H   0  0  0  0  0  0  0  0  0  0  0  0
   18.9434   19.6660   22.3694 H   0  0  0  0  0  0  0  0  0  0  0  0
   19.6517   18.7199   24.2079 C   0  0  0  0  0  0  0  0  0  0  0  0
   20.5857   18.2791   24.5803 H   0  0  0  0  0  0  0  0  0  0  0  0
   19.4598   19.5978   24.8389 H   0  0  0  0  0  0  0  0  0  0  0  0
   18.5105   17.6969   24.4199 C   0  0  1  0  0  0  0  0  0  0  0  0
   18.4983   17.4398   25.4836 H   0  0  0  0  0  0  0  0  0  0  0  0
   17.1329   18.2853   24.0683 C   0  0  0  0  0  0  0  0  0  0  0  0
   17.0364   18.4787   22.9934 H   0  0  0  0  0  0  0  0  0  0  0  0
   16.9629   19.2273   24.6043 H   0  0  0  0  0  0  0  0  0  0  0  0
   16.3345   17.5904   24.3562 H   0  0  0  0  0  0  0  0  0  0  0  0
   18.7502   16.4079   23.6827 N   0  3  0  0  0  0  0  0  0  0  0  0
   18.0187   15.7203   23.8840 H   0  0  0  0  0  0  0  0  0  0  0  0
   18.7624   16.5551   22.6706 H   0  0  0  0  0  0  0  0  0  0  0  0
   19.6460   15.9865   23.9443 H   0  0  0  0  0  0  0  0  0  0  0  0
  1  2  1  0  0  0  0
  1  3  1  0  0  0  0
  1  4  1  0  0  0  0
  1  5  1  0  0  0  0
  5  6  1  0  0  0  0
  5  7  1  0  0  0  0
  5  8  1  0  0  0  0
  8  9  1  0  0  0  0
  8 10  1  0  0  0  0
  8 11  1  0  0  0  0
 11 12  1  0  0  0  0
 11 13  1  0  0  0  0
 11 14  1  0  0  0  0
 14 15  1  0  0  0  0
 14 16  1  0  0  0  0
 14 17  1  0  0  0  0
 17 18  1  0  0  0  0
 17 19  1  0  0  0  0
 19 20  1  0  0  0  0
 19 21  1  0  0  0  0
 19 22  1  0  0  0  0
 17 23  1  0  0  0  0
 23 24  1  0  0  0  0
 23 25  1  0  0  0  0
 23 26  1  0  0  0  0
M  END
> <VConfSearch Rank>
705

> <Conf_Id>
132

> <Delta U+W>
0.363

> <U+W>
-29.936

> <U>
24.060

> <W>
-53.996

> <W(PB)>
-56.327

> <W(SA)>
2.332

> <Valence>
3.249

> <Coulomb>
19.781

> <VdW>
1.030

> <VdW6>
-7.421

> <VdW12>
8.451

> <Bond>
0.207

> <Angle>
1.205

> <Pdih>
1.837

> <Idih>
0.000

> <Tether>
0.000

$$$$
VeraChem MOL file


 26 25  0  0  0  0  0  0  0  0999 V2000     
   19.6927   16.1503   25.5087 C   0  0  0  0  0  0  0  0  0  0  0  0
   20.3652   16.0387   26.3691 H   0  0  0  0  0  0  0  0  0  0  0  0
   18.6610   16.0693   25.8752 H   0  0  0  0  0  0  0  0  0  0  0  0
   19.8792   15.3125   24.8242 H   0  0  0  0  0  0  0  0  0  0  0  0
   19.9278   17.5038   24.8052 C   0  0  0  0  0  0  0  0  0  0  0  0
   20.9782   17.5631   24.4914 H   0  0  0  0  0  0  0  0  0  0  0  0
   19.7621   18.3201   25.5221 H   0  0  0  0  0  0  0  0  0  0  0  0
   18.9931   17.6816   23.5852 C   0  0  0  0  0  0  0  0  0  0  0  0
   19.1976   16.8969   22.8438 H   0  0  0  0  0  0  0  0  0  0  0  0
   17.9536   17.5345   23.9096 H   0  0  0  0  0  0  0  0  0  0  0  0
   19.1037   19.0728   22.9139 C   0  0  0  0  0  0  0  0  0  0  0  0
   18.8914   19.8507   23.6592 H   0  0  0  0  0  0  0  0  0  0  0  0
   18.3130   19.1447   22.1562 H   0  0  0  0  0  0  0  0  0  0  0  0
   20.4848   19.3291   22.2505 C   0  0  0  0  0  0  0  0  0  0  0  0
   21.2724   19.2888   23.0125 H   0  0  0  0  0  0  0  0  0  0  0  0
   20.7049   18.5182   21.5437 H   0  0  0  0  0  0  0  0  0  0  0  0
   20.6100   20.6820   21.5103 C   0  0  1  0  0  0  0  0  0  0  0  0
   21.6383   20.7562   21.1430 H   0  0  0  0  0  0  0  0  0  0  0  0
   19.6761   20.7659   20.2901 C   0  0  0  0  0  0  0  0  0  0  0  0
   18.6212   20.8014   20.5864 H   0  0  0  0  0  0  0  0  0  0  0  0
   19.8193   19.9023   19.6289 H   0  0  0  0  0  0  0  0  0  0  0  0
   19.8894   21.6698   19.7063 H   0  0  0  0  0  0  0  0  0  0  0  0
   20.4085   21.8582   22.4257 N   0  3  0  0  0  0  0  0  0  0  0  0
   21.0588   21.8346   23.2163 H   0  0  0  0  0  0  0  0  0  0  0  0
   20.5564   22.7443   21.9344 H   0  0  0  0  0  0  0  0  0  0  0  0
   19.4596   21.8736   22.8072 H   0  0  0  0  0  0  0  0  0  0  0  0
  1  2  1  0  0  0  0
  1  3  1  0  0  0  0
  1  4  1  0  0  0  0
  1  5  1  0  0  0  0
  5  6  1  0  0  0  0
  5  7  1  0  0  0  0
  5  8  1  0  0  0  0
  8  9  1  0  0  0  0
  8 10  1  0  0  0  0
  8 11  1  0  0  0  0
 11 12  1  0  0  0  0
 11 13  1  0  0  0  0
 11 14  1  0  0  0  0
 14 15  1  0  0  0  0
 14 16  1  0  0  0  0
 14 17  1  0  0  0  0
 17 18  1  0  0  0  0
 17 19  1  0  0  0  0
 19 20  1  0  0  0  0
 19 21  1  0  0  0  0
 19 22  1  0  0  0  0
 17 23  1  0  0  0  0
 23 24  1  0  0  0  0
 23 25  1  0  0  0  0
 23 26  1  0  0  0  0
M  END
> <VConfSearch Rank>
706

> <Conf_Id>
46

> <Delta U+W>
1.114

> <U+W>
-29.185

> <U>
24.990

> <W>
-54.175

> <W(PB)>
-56.455

> <W(SA)>
2.279

> <Valence>
3.862

> <Coulomb>
19.956

> <VdW>
1.172

> <VdW6>
-8.054

> <VdW12>
9.226

> <Bond>
0.258

> <Angle>
1.499

> <Pdih>
2.106

> <Idih>
0.000

> <Tether>
0.000

$$$$
VeraChem MOL file


 26 25  0  0  0  0  0  0  0  0999 V2000     
   20.6363   17.1810   19.9575 C   0  0  0  0  0  0  0  0  0  0  0  0
   19.5949   16.8799   20.1252 H   0  0  0  0  0  0  0  0  0  0  0  0
   20.6419   18.0298   19.2615 H   0  0  0  0  0  0  0  0  0  0  0  0
   21.1465   16.3418   19.4671 H   0  0  0  0  0  0  0  0  0  0  0  0
   21.3445   17.5438   21.2826 C   0  0  0  0  0  0  0  0  0  0  0  0
   22.4110   17.7122   21.0776 H   0  0  0  0  0  0  0  0  0  0  0  0
   21.2957   16.6907   21.9737 H   0  0  0  0  0  0  0  0  0  0  0  0
   20.7663   18.8064   21.9664 C   0  0  0  0  0  0  0  0  0  0  0  0
   21.4107   19.0557   22.8195 H   0  0  0  0  0  0  0  0  0  0  0  0
   20.8266   19.6575   21.2742 H   0  0  0  0  0  0  0  0  0  0  0  0
   19.3048   18.6299   22.4511 C   0  0  0  0  0  0  0  0  0  0  0  0
   19.2367   17.7622   23.1205 H   0  0  0  0  0  0  0  0  0  0  0  0
   18.6595   18.4026   21.5927 H   0  0  0  0  0  0  0  0  0  0  0  0
   18.7379   19.8900   23.1547 C   0  0  0  0  0  0  0  0  0  0  0  0
   18.7330   20.7221   22.4381 H   0  0  0  0  0  0  0  0  0  0  0  0
   17.6878   19.7085   23.4199 H   0  0  0  0  0  0  0  0  0  0  0  0
   19.5155   20.3194   24.4194 C   0  0  1  0  0  0  0  0  0  0  0  0
   20.5523   20.5216   24.1354 H   0  0  0  0  0  0  0  0  0  0  0  0
   18.9191   21.6111   25.0007 C   0  0  0  0  0  0  0  0  0  0  0  0
   19.4912   21.9434   25.8757 H   0  0  0  0  0  0  0  0  0  0  0  0
   17.8767   21.4636   25.3098 H   0  0  0  0  0  0  0  0  0  0  0  0
   18.9445   22.4198   24.2597 H   0  0  0  0  0  0  0  0  0  0  0  0
   19.5556   19.2374   25.4635 N   0  3  0  0  0  0  0  0  0  0  0  0
   19.9868   18.3842   25.0979 H   0  0  0  0  0  0  0  0  0  0  0  0
   20.0953   19.5277   26.2838 H   0  0  0  0  0  0  0  0  0  0  0  0
   18.6151   18.9946   25.7854 H   0  0  0  0  0  0  0  0  0  0  0  0
  1  2  1  0  0  0  0
  1  3  1  0  0  0  0
  1  4  1  0  0  0  0
  1  5  1  0  0  0  0
  5  6  1  0  0  0  0
  5  7  1  0  0  0  0
  5  8  1  0  0  0  0
  8  9  1  0  0  0  0
  8 10  1  0  0  0  0
  8 11  1  0  0  0  0
 11 12  1  0  0  0  0
 11 13  1  0  0  0  0
 11 14  1  0  0  0  0
 14 15  1  0  0  0  0
 14 16  1  0  0  0  0
 14 17  1  0  0  0  0
 17 18  1  0  0  0  0
 17 19  1  0  0  0  0
 19 20  1  0  0  0  0
 19 21  1  0  0  0  0
 19 22  1  0  0  0  0
 17 23  1  0  0  0  0
 23 24  1  0  0  0  0
 23 25  1  0  0  0  0
 23 26  1  0  0  0  0
M  END
> <VConfSearch Rank>
707

> <Conf_Id>
113

> <Delta U+W>
1.137

> <U+W>
-29.162

> <U>
24.833

> <W>
-53.995

> <W(PB)>
-56.288

> <W(SA)>
2.294

> <Valence>
3.589

> <Coulomb>
20.270

> <VdW>
0.974

> <VdW6>
-8.255

> <VdW12>
9.229

> <Bond>
0.244

> <Angle>
1.377

> <Pdih>
1.967

> <Idih>
0.000

> <Tether>
0.000

$$$$
VeraChem MOL file


 26 25  0  0  0  0  0  0  0  0999 V2000     
   19.2031   20.9433   26.3726 C   0  0  0  0  0  0  0  0  0  0  0  0
   18.3127   20.8059   26.9998 H   0  0  0  0  0  0  0  0  0  0  0  0
   20.0688   20.5590   26.9276 H   0  0  0  0  0  0  0  0  0  0  0  0
   19.3450   22.0213   26.2211 H   0  0  0  0  0  0  0  0  0  0  0  0
   19.0386   20.2097   25.0247 C   0  0  0  0  0  0  0  0  0  0  0  0
   18.1491   20.5947   24.5068 H   0  0  0  0  0  0  0  0  0  0  0  0
   18.8582   19.1442   25.2194 H   0  0  0  0  0  0  0  0  0  0  0  0
   20.2845   20.3854   24.1245 C   0  0  0  0  0  0  0  0  0  0  0  0
   20.4931   21.4582   24.0102 H   0  0  0  0  0  0  0  0  0  0  0  0
   21.1640   19.9522   24.6205 H   0  0  0  0  0  0  0  0  0  0  0  0
   20.1239   19.7644   22.7150 C   0  0  0  0  0  0  0  0  0  0  0  0
   21.0015   20.0434   22.1174 H   0  0  0  0  0  0  0  0  0  0  0  0
   19.2547   20.2180   22.2207 H   0  0  0  0  0  0  0  0  0  0  0  0
   19.9806   18.2179   22.7365 C   0  0  0  0  0  0  0  0  0  0  0  0
   20.7996   17.7871   23.3271 H   0  0  0  0  0  0  0  0  0  0  0  0
   19.0540   17.9397   23.2538 H   0  0  0  0  0  0  0  0  0  0  0  0
   19.9763   17.5469   21.3425 C   0  0  1  0  0  0  0  0  0  0  0  0
   19.8802   16.4684   21.5016 H   0  0  0  0  0  0  0  0  0  0  0  0
   18.7799   17.9998   20.4874 C   0  0  0  0  0  0  0  0  0  0  0  0
   18.8579   19.0575   20.2091 H   0  0  0  0  0  0  0  0  0  0  0  0
   17.8368   17.8549   21.0287 H   0  0  0  0  0  0  0  0  0  0  0  0
   18.7258   17.4130   19.5622 H   0  0  0  0  0  0  0  0  0  0  0  0
   21.2720   17.7441   20.6044 N   0  3  0  0  0  0  0  0  0  0  0  0
   22.0701   17.4058   21.1495 H   0  0  0  0  0  0  0  0  0  0  0  0
   21.2752   17.2402   19.7131 H   0  0  0  0  0  0  0  0  0  0  0  0
   21.4363   18.7324   20.3983 H   0  0  0  0  0  0  0  0  0  0  0  0
  1  2  1  0  0  0  0
  1  3  1  0  0  0  0
  1  4  1  0  0  0  0
  1  5  1  0  0  0  0
  5  6  1  0  0  0  0
  5  7  1  0  0  0  0
  5  8  1  0  0  0  0
  8  9  1  0  0  0  0
  8 10  1  0  0  0  0
  8 11  1  0  0  0  0
 11 12  1  0  0  0  0
 11 13  1  0  0  0  0
 11 14  1  0  0  0  0
 14 15  1  0  0  0  0
 14 16  1  0  0  0  0
 14 17  1  0  0  0  0
 17 18  1  0  0  0  0
 17 19  1  0  0  0  0
 19 20  1  0  0  0  0
 19 21  1  0  0  0  0
 19 22  1  0  0  0  0
 17 23  1  0  0  0  0
 23 24  1  0  0  0  0
 23 25  1  0  0  0  0
 23 26  1  0  0  0  0
M  END
> <VConfSearch Rank>
708

> <Conf_Id>
45

> <Delta U+W>
1.035

> <U+W>
-29.264

> <U>
24.725

> <W>
-53.989

> <W(PB)>
-56.298

> <W(SA)>
2.309

> <Valence>
3.780

> <Coulomb>
19.804

> <VdW>
1.141

> <VdW6>
-8.104

> <VdW12>
9.246

> <Bond>
0.254

> <Angle>
1.437

> <Pdih>
2.089

> <Idih>
0.000

> <Tether>
0.000

$$$$
VeraChem MOL file


 26 25  0  0  0  0  0  0  0  0999 V2000     
   23.1923   21.0870   23.6938 C   0  0  0  0  0  0  0  0  0  0  0  0
   23.2823   21.8977   24.4284 H   0  0  0  0  0  0  0  0  0  0  0  0
   24.0328   20.3979   23.8484 H   0  0  0  0  0  0  0  0  0  0  0  0
   23.2905   21.5269   22.6927 H   0  0  0  0  0  0  0  0  0  0  0  0
   21.8406   20.3584   23.8491 C   0  0  0  0  0  0  0  0  0  0  0  0
   21.0286   21.0876   23.7292 H   0  0  0  0  0  0  0  0  0  0  0  0
   21.7597   19.9550   24.8681 H   0  0  0  0  0  0  0  0  0  0  0  0
   21.6891   19.2132   22.8198 C   0  0  0  0  0  0  0  0  0  0  0  0
   21.7133   19.6245   21.8013 H   0  0  0  0  0  0  0  0  0  0  0  0
   22.5573   18.5447   22.9021 H   0  0  0  0  0  0  0  0  0  0  0  0
   20.4036   18.3706   23.0098 C   0  0  0  0  0  0  0  0  0  0  0  0
   20.3819   17.9585   24.0282 H   0  0  0  0  0  0  0  0  0  0  0  0
   20.4590   17.5106   22.3296 H   0  0  0  0  0  0  0  0  0  0  0  0
   19.0984   19.1625   22.7383 C   0  0  0  0  0  0  0  0  0  0  0  0
   19.0348   20.0070   23.4356 H   0  0  0  0  0  0  0  0  0  0  0  0
   19.1265   19.5903   21.7274 H   0  0  0  0  0  0  0  0  0  0  0  0
   17.8267   18.3015   22.9020 C   0  0  1  0  0  0  0  0  0  0  0  0
   17.8394   17.8580   23.9024 H   0  0  0  0  0  0  0  0  0  0  0  0
   16.5693   19.1773   22.7789 C   0  0  0  0  0  0  0  0  0  0  0  0
   16.5082   19.6475   21.7895 H   0  0  0  0  0  0  0  0  0  0  0  0
   16.5717   19.9720   23.5353 H   0  0  0  0  0  0  0  0  0  0  0  0
   15.6626   18.5783   22.9294 H   0  0  0  0  0  0  0  0  0  0  0  0
   17.7705   17.1608   21.9226 N   0  3  0  0  0  0  0  0  0  0  0  0
   18.5778   16.5401   22.0236 H   0  0  0  0  0  0  0  0  0  0  0  0
   16.9295   16.5926   22.0580 H   0  0  0  0  0  0  0  0  0  0  0  0
   17.7596   17.4983   20.9565 H   0  0  0  0  0  0  0  0  0  0  0  0
  1  2  1  0  0  0  0
  1  3  1  0  0  0  0
  1  4  1  0  0  0  0
  1  5  1  0  0  0  0
  5  6  1  0  0  0  0
  5  7  1  0  0  0  0
  5  8  1  0  0  0  0
  8  9  1  0  0  0  0
  8 10  1  0  0  0  0
  8 11  1  0  0  0  0
 11 12  1  0  0  0  0
 11 13  1  0  0  0  0
 11 14  1  0  0  0  0
 14 15  1  0  0  0  0
 14 16  1  0  0  0  0
 14 17  1  0  0  0  0
 17 18  1  0  0  0  0
 17 19  1  0  0  0  0
 19 20  1  0  0  0  0
 19 21  1  0  0  0  0
 19 22  1  0  0  0  0
 17 23  1  0  0  0  0
 23 24  1  0  0  0  0
 23 25  1  0  0  0  0
 23 26  1  0  0  0  0
M  END
> <VConfSearch Rank>
709

> <Conf_Id>
121

> <Delta U+W>
0.736

> <U+W>
-29.562

> <U>
24.282

> <W>
-53.844

> <W(PB)>
-56.205

> <W(SA)>
2.361

> <Valence>
3.311

> <Coulomb>
19.887

> <VdW>
1.083

> <VdW6>
-7.444

> <VdW12>
8.527

> <Bond>
0.219

> <Angle>
1.167

> <Pdih>
1.926

> <Idih>
0.000

> <Tether>
0.000

$$$$
VeraChem MOL file


 26 25  0  0  0  0  0  0  0  0999 V2000     
   18.3262   16.0511   24.2248 C   0  0  0  0  0  0  0  0  0  0  0  0
   17.5430   15.2824   24.1989 H   0  0  0  0  0  0  0  0  0  0  0  0
   19.2777   15.5528   24.4514 H   0  0  0  0  0  0  0  0  0  0  0  0
   18.0897   16.7337   25.0502 H   0  0  0  0  0  0  0  0  0  0  0  0
   18.3969   16.7961   22.8724 C   0  0  0  0  0  0  0  0  0  0  0  0
   17.4458   17.3139   22.6850 H   0  0  0  0  0  0  0  0  0  0  0  0
   18.5072   16.0559   22.0675 H   0  0  0  0  0  0  0  0  0  0  0  0
   19.5685   17.8036   22.7826 C   0  0  0  0  0  0  0  0  0  0  0  0
   20.5172   17.2793   22.9624 H   0  0  0  0  0  0  0  0  0  0  0  0
   19.6134   18.1810   21.7526 H   0  0  0  0  0  0  0  0  0  0  0  0
   19.4342   18.9942   23.7657 C   0  0  0  0  0  0  0  0  0  0  0  0
   19.4048   18.6169   24.7960 H   0  0  0  0  0  0  0  0  0  0  0  0
   18.4759   19.5049   23.6039 H   0  0  0  0  0  0  0  0  0  0  0  0
   20.6033   20.0080   23.6619 C   0  0  0  0  0  0  0  0  0  0  0  0
   20.4522   20.8026   24.4046 H   0  0  0  0  0  0  0  0  0  0  0  0
   21.5315   19.4965   23.9489 H   0  0  0  0  0  0  0  0  0  0  0  0
   20.8009   20.6472   22.2668 C   0  0  1  0  0  0  0  0  0  0  0  0
   20.9628   19.8465   21.5393 H   0  0  0  0  0  0  0  0  0  0  0  0
   19.5741   21.4652   21.8256 C   0  0  0  0  0  0  0  0  0  0  0  0
   19.3358   22.2484   22.5561 H   0  0  0  0  0  0  0  0  0  0  0  0
   18.6917   20.8258   21.7067 H   0  0  0  0  0  0  0  0  0  0  0  0
   19.7585   21.9472   20.8577 H   0  0  0  0  0  0  0  0  0  0  0  0
   22.0374   21.5019   22.2329 N   0  3  0  0  0  0  0  0  0  0  0  0
   22.8737   20.9661   22.4823 H   0  0  0  0  0  0  0  0  0  0  0  0
   22.1951   21.8953   21.3008 H   0  0  0  0  0  0  0  0  0  0  0  0
   21.9686   22.2860   22.8871 H   0  0  0  0  0  0  0  0  0  0  0  0
  1  2  1  0  0  0  0
  1  3  1  0  0  0  0
  1  4  1  0  0  0  0
  1  5  1  0  0  0  0
  5  6  1  0  0  0  0
  5  7  1  0  0  0  0
  5  8  1  0  0  0  0
  8  9  1  0  0  0  0
  8 10  1  0  0  0  0
  8 11  1  0  0  0  0
 11 12  1  0  0  0  0
 11 13  1  0  0  0  0
 11 14  1  0  0  0  0
 14 15  1  0  0  0  0
 14 16  1  0  0  0  0
 14 17  1  0  0  0  0
 17 18  1  0  0  0  0
 17 19  1  0  0  0  0
 19 20  1  0  0  0  0
 19 21  1  0  0  0  0
 19 22  1  0  0  0  0
 17 23  1  0  0  0  0
 23 24  1  0  0  0  0
 23 25  1  0  0  0  0
 23 26  1  0  0  0  0
M  END
> <VConfSearch Rank>
710

> <Conf_Id>
5

> <Delta U+W>
1.233

> <U+W>
-29.065

> <U>
25.023

> <W>
-54.088

> <W(PB)>
-56.383

> <W(SA)>
2.296

> <Valence>
4.083

> <Coulomb>
19.893

> <VdW>
1.047

> <VdW6>
-8.479

> <VdW12>
9.527

> <Bond>
0.256

> <Angle>
1.716

> <Pdih>
2.112

> <Idih>
0.000

> <Tether>
0.000

$$$$
VeraChem MOL file


 26 25  0  0  0  0  0  0  0  0999 V2000     
   23.0305   20.4945   24.1269 C   0  0  0  0  0  0  0  0  0  0  0  0
   23.9085   21.1482   24.0445 H   0  0  0  0  0  0  0  0  0  0  0  0
   22.3899   20.9032   24.9180 H   0  0  0  0  0  0  0  0  0  0  0  0
   23.3792   19.5030   24.4437 H   0  0  0  0  0  0  0  0  0  0  0  0
   22.2866   20.4164   22.7742 C   0  0  0  0  0  0  0  0  0  0  0  0
   23.0046   20.1263   21.9944 H   0  0  0  0  0  0  0  0  0  0  0  0
   21.9177   21.4135   22.4960 H   0  0  0  0  0  0  0  0  0  0  0  0
   21.1158   19.4038   22.7698 C   0  0  0  0  0  0  0  0  0  0  0  0
   20.7480   19.3191   21.7390 H   0  0  0  0  0  0  0  0  0  0  0  0
   21.4895   18.4103   23.0534 H   0  0  0  0  0  0  0  0  0  0  0  0
   19.9453   19.8100   23.6997 C   0  0  0  0  0  0  0  0  0  0  0  0
   19.5576   20.7910   23.3920 H   0  0  0  0  0  0  0  0  0  0  0  0
   20.3166   19.9336   24.7250 H   0  0  0  0  0  0  0  0  0  0  0  0
   18.7818   18.7866   23.7344 C   0  0  0  0  0  0  0  0  0  0  0  0
   19.1396   17.8239   24.1234 H   0  0  0  0  0  0  0  0  0  0  0  0
   18.0491   19.1469   24.4686 H   0  0  0  0  0  0  0  0  0  0  0  0
   18.0795   18.5914   22.3685 C   0  0  1  0  0  0  0  0  0  0  0  0
   18.3381   19.4399   21.7276 H   0  0  0  0  0  0  0  0  0  0  0  0
   18.5354   17.2934   21.6774 C   0  0  0  0  0  0  0  0  0  0  0  0
   18.2463   16.4118   22.2631 H   0  0  0  0  0  0  0  0  0  0  0  0
   19.6229   17.2682   21.5464 H   0  0  0  0  0  0  0  0  0  0  0  0
   18.0797   17.2043   20.6836 H   0  0  0  0  0  0  0  0  0  0  0  0
   16.5810   18.6073   22.4991 N   0  3  0  0  0  0  0  0  0  0  0  0
   16.2483   19.4828   22.9136 H   0  0  0  0  0  0  0  0  0  0  0  0
   16.1250   18.5100   21.5875 H   0  0  0  0  0  0  0  0  0  0  0  0
   16.2484   17.8407   23.0901 H   0  0  0  0  0  0  0  0  0  0  0  0
  1  2  1  0  0  0  0
  1  3  1  0  0  0  0
  1  4  1  0  0  0  0
  1  5  1  0  0  0  0
  5  6  1  0  0  0  0
  5  7  1  0  0  0  0
  5  8  1  0  0  0  0
  8  9  1  0  0  0  0
  8 10  1  0  0  0  0
  8 11  1  0  0  0  0
 11 12  1  0  0  0  0
 11 13  1  0  0  0  0
 11 14  1  0  0  0  0
 14 15  1  0  0  0  0
 14 16  1  0  0  0  0
 14 17  1  0  0  0  0
 17 18  1  0  0  0  0
 17 19  1  0  0  0  0
 19 20  1  0  0  0  0
 19 21  1  0  0  0  0
 19 22  1  0  0  0  0
 17 23  1  0  0  0  0
 23 24  1  0  0  0  0
 23 25  1  0  0  0  0
 23 26  1  0  0  0  0
M  END
> <VConfSearch Rank>
711

> <Conf_Id>
100

> <Delta U+W>
3.818

> <U+W>
-26.481

> <U>
27.496

> <W>
-53.977

> <W(PB)>
-56.267

> <W(SA)>
2.290

> <Valence>
6.472

> <Coulomb>
19.839

> <VdW>
1.185

> <VdW6>
-8.405

> <VdW12>
9.590

> <Bond>
0.248

> <Angle>
1.619

> <Pdih>
4.604

> <Idih>
0.000

> <Tether>
0.000

$$$$
VeraChem MOL file


 26 25  0  0  0  0  0  0  0  0999 V2000     
   19.0058   22.1187   24.9388 C   0  0  0  0  0  0  0  0  0  0  0  0
   18.7842   22.4123   25.9730 H   0  0  0  0  0  0  0  0  0  0  0  0
   20.0458   22.3979   24.7248 H   0  0  0  0  0  0  0  0  0  0  0  0
   18.3522   22.7007   24.2759 H   0  0  0  0  0  0  0  0  0  0  0  0
   18.7865   20.6035   24.7436 C   0  0  0  0  0  0  0  0  0  0  0  0
   17.7479   20.3498   24.9984 H   0  0  0  0  0  0  0  0  0  0  0  0
   19.4288   20.0495   25.4425 H   0  0  0  0  0  0  0  0  0  0  0  0
   19.0913   20.1632   23.2946 C   0  0  0  0  0  0  0  0  0  0  0  0
   18.4463   20.7217   22.6022 H   0  0  0  0  0  0  0  0  0  0  0  0
   20.1243   20.4338   23.0466 H   0  0  0  0  0  0  0  0  0  0  0  0
   18.8648   18.6442   23.0965 C   0  0  0  0  0  0  0  0  0  0  0  0
   17.8145   18.4242   23.3328 H   0  0  0  0  0  0  0  0  0  0  0  0
   19.4612   18.0741   23.8205 H   0  0  0  0  0  0  0  0  0  0  0  0
   19.1495   18.1580   21.6478 C   0  0  0  0  0  0  0  0  0  0  0  0
   18.4271   17.3688   21.4013 H   0  0  0  0  0  0  0  0  0  0  0  0
   18.9459   18.9678   20.9349 H   0  0  0  0  0  0  0  0  0  0  0  0
   20.5658   17.5874   21.3865 C   0  0  1  0  0  0  0  0  0  0  0  0
   20.6073   17.3039   20.3302 H   0  0  0  0  0  0  0  0  0  0  0  0
   21.6811   18.6164   21.6316 C   0  0  0  0  0  0  0  0  0  0  0  0
   21.7809   18.8548   22.6971 H   0  0  0  0  0  0  0  0  0  0  0  0
   21.4834   19.5451   21.0822 H   0  0  0  0  0  0  0  0  0  0  0  0
   22.6457   18.2248   21.2860 H   0  0  0  0  0  0  0  0  0  0  0  0
   20.8235   16.3243   22.1620 N   0  3  0  0  0  0  0  0  0  0  0  0
   20.1166   15.6107   21.9636 H   0  0  0  0  0  0  0  0  0  0  0  0
   21.7362   15.9226   21.9297 H   0  0  0  0  0  0  0  0  0  0  0  0
   20.8121   16.4969   23.1701 H   0  0  0  0  0  0  0  0  0  0  0  0
  1  2  1  0  0  0  0
  1  3  1  0  0  0  0
  1  4  1  0  0  0  0
  1  5  1  0  0  0  0
  5  6  1  0  0  0  0
  5  7  1  0  0  0  0
  5  8  1  0  0  0  0
  8  9  1  0  0  0  0
  8 10  1  0  0  0  0
  8 11  1  0  0  0  0
 11 12  1  0  0  0  0
 11 13  1  0  0  0  0
 11 14  1  0  0  0  0
 14 15  1  0  0  0  0
 14 16  1  0  0  0  0
 14 17  1  0  0  0  0
 17 18  1  0  0  0  0
 17 19  1  0  0  0  0
 19 20  1  0  0  0  0
 19 21  1  0  0  0  0
 19 22  1  0  0  0  0
 17 23  1  0  0  0  0
 23 24  1  0  0  0  0
 23 25  1  0  0  0  0
 23 26  1  0  0  0  0
M  END
> <VConfSearch Rank>
712

> <Conf_Id>
142

> <Delta U+W>
2.978

> <U+W>
-27.320

> <U>
26.848

> <W>
-54.168

> <W(PB)>
-56.427

> <W(SA)>
2.259

> <Valence>
5.823

> <Coulomb>
20.057

> <VdW>
0.968

> <VdW6>
-8.367

> <VdW12>
9.335

> <Bond>
0.267

> <Angle>
1.799

> <Pdih>
3.758

> <Idih>
0.000

> <Tether>
0.000

$$$$
VeraChem MOL file


 26 25  0  0  0  0  0  0  0  0999 V2000     
   21.0925   19.3937   19.6741 C   0  0  0  0  0  0  0  0  0  0  0  0
   20.3059   20.0830   19.3407 H   0  0  0  0  0  0  0  0  0  0  0  0
   21.9436   19.5003   18.9891 H   0  0  0  0  0  0  0  0  0  0  0  0
   20.7168   18.3682   19.5733 H   0  0  0  0  0  0  0  0  0  0  0  0
   21.5255   19.7040   21.1252 C   0  0  0  0  0  0  0  0  0  0  0  0
   22.0126   20.6890   21.1423 H   0  0  0  0  0  0  0  0  0  0  0  0
   22.2864   18.9798   21.4484 H   0  0  0  0  0  0  0  0  0  0  0  0
   20.3506   19.7163   22.1332 C   0  0  0  0  0  0  0  0  0  0  0  0
   20.7377   20.0964   23.0857 H   0  0  0  0  0  0  0  0  0  0  0  0
   19.5839   20.4259   21.7932 H   0  0  0  0  0  0  0  0  0  0  0  0
   19.7163   18.3204   22.3576 C   0  0  0  0  0  0  0  0  0  0  0  0
   20.4719   17.6318   22.7585 H   0  0  0  0  0  0  0  0  0  0  0  0
   19.4178   17.9010   21.3887 H   0  0  0  0  0  0  0  0  0  0  0  0
   18.4554   18.3181   23.2679 C   0  0  0  0  0  0  0  0  0  0  0  0
   17.6650   18.9143   22.7936 H   0  0  0  0  0  0  0  0  0  0  0  0
   18.0674   17.2913   23.2947 H   0  0  0  0  0  0  0  0  0  0  0  0
   18.6278   18.7875   24.7354 C   0  0  1  0  0  0  0  0  0  0  0  0
   17.7168   18.4959   25.2673 H   0  0  0  0  0  0  0  0  0  0  0  0
   19.8091   18.0979   25.4400 C   0  0  0  0  0  0  0  0  0  0  0  0
   20.7716   18.4140   25.0205 H   0  0  0  0  0  0  0  0  0  0  0  0
   19.7341   17.0074   25.3466 H   0  0  0  0  0  0  0  0  0  0  0  0
   19.8133   18.3409   26.5096 H   0  0  0  0  0  0  0  0  0  0  0  0
   18.7026   20.2834   24.8743 N   0  3  0  0  0  0  0  0  0  0  0  0
   17.8800   20.7386   24.4687 H   0  0  0  0  0  0  0  0  0  0  0  0
   18.7527   20.5648   25.8576 H   0  0  0  0  0  0  0  0  0  0  0  0
   19.5270   20.6610   24.4034 H   0  0  0  0  0  0  0  0  0  0  0  0
  1  2  1  0  0  0  0
  1  3  1  0  0  0  0
  1  4  1  0  0  0  0
  1  5  1  0  0  0  0
  5  6  1  0  0  0  0
  5  7  1  0  0  0  0
  5  8  1  0  0  0  0
  8  9  1  0  0  0  0
  8 10  1  0  0  0  0
  8 11  1  0  0  0  0
 11 12  1  0  0  0  0
 11 13  1  0  0  0  0
 11 14  1  0  0  0  0
 14 15  1  0  0  0  0
 14 16  1  0  0  0  0
 14 17  1  0  0  0  0
 17 18  1  0  0  0  0
 17 19  1  0  0  0  0
 19 20  1  0  0  0  0
 19 21  1  0  0  0  0
 19 22  1  0  0  0  0
 17 23  1  0  0  0  0
 23 24  1  0  0  0  0
 23 25  1  0  0  0  0
 23 26  1  0  0  0  0
M  END
> <VConfSearch Rank>
713

> <Conf_Id>
119

> <Delta U+W>
3.538

> <U+W>
-26.761

> <U>
27.482

> <W>
-54.243

> <W(PB)>
-56.494

> <W(SA)>
2.251

> <Valence>
5.284

> <Coulomb>
21.247

> <VdW>
0.951

> <VdW6>
-9.416

> <VdW12>
10.367

> <Bond>
0.323

> <Angle>
2.522

> <Pdih>
2.439

> <Idih>
0.000

> <Tether>
0.000

$$$$
VeraChem MOL file


 26 25  0  0  0  0  0  0  0  0999 V2000     
   20.8122   17.8052   19.8033 C   0  0  0  0  0  0  0  0  0  0  0  0
   20.0793   18.2522   19.1192 H   0  0  0  0  0  0  0  0  0  0  0  0
   21.5666   18.5644   20.0440 H   0  0  0  0  0  0  0  0  0  0  0  0
   21.3207   16.9937   19.2669 H   0  0  0  0  0  0  0  0  0  0  0  0
   20.1250   17.2636   21.0774 C   0  0  0  0  0  0  0  0  0  0  0  0
   20.8823   16.8504   21.7582 H   0  0  0  0  0  0  0  0  0  0  0  0
   19.4727   16.4244   20.7980 H   0  0  0  0  0  0  0  0  0  0  0  0
   19.2777   18.3250   21.8198 C   0  0  0  0  0  0  0  0  0  0  0  0
   18.5058   18.7143   21.1417 H   0  0  0  0  0  0  0  0  0  0  0  0
   18.7410   17.8263   22.6354 H   0  0  0  0  0  0  0  0  0  0  0  0
   20.1179   19.5023   22.3785 C   0  0  0  0  0  0  0  0  0  0  0  0
   20.5474   20.0539   21.5319 H   0  0  0  0  0  0  0  0  0  0  0  0
   20.9706   19.1196   22.9538 H   0  0  0  0  0  0  0  0  0  0  0  0
   19.2871   20.5035   23.2292 C   0  0  0  0  0  0  0  0  0  0  0  0
   19.6619   21.5167   23.0330 H   0  0  0  0  0  0  0  0  0  0  0  0
   18.2443   20.5104   22.8857 H   0  0  0  0  0  0  0  0  0  0  0  0
   19.3226   20.2848   24.7624 C   0  0  1  0  0  0  0  0  0  0  0  0
   18.6885   21.0555   25.2116 H   0  0  0  0  0  0  0  0  0  0  0  0
   18.7581   18.9189   25.1851 C   0  0  0  0  0  0  0  0  0  0  0  0
   19.4076   18.0974   24.8602 H   0  0  0  0  0  0  0  0  0  0  0  0
   17.7582   18.7622   24.7621 H   0  0  0  0  0  0  0  0  0  0  0  0
   18.6691   18.8625   26.2769 H   0  0  0  0  0  0  0  0  0  0  0  0
   20.6970   20.4965   25.3364 N   0  3  0  0  0  0  0  0  0  0  0  0
   21.0608   21.4258   25.1071 H   0  0  0  0  0  0  0  0  0  0  0  0
   20.6928   20.4136   26.3569 H   0  0  0  0  0  0  0  0  0  0  0  0
   21.3617   19.8081   24.9754 H   0  0  0  0  0  0  0  0  0  0  0  0
  1  2  1  0  0  0  0
  1  3  1  0  0  0  0
  1  4  1  0  0  0  0
  1  5  1  0  0  0  0
  5  6  1  0  0  0  0
  5  7  1  0  0  0  0
  5  8  1  0  0  0  0
  8  9  1  0  0  0  0
  8 10  1  0  0  0  0
  8 11  1  0  0  0  0
 11 12  1  0  0  0  0
 11 13  1  0  0  0  0
 11 14  1  0  0  0  0
 14 15  1  0  0  0  0
 14 16  1  0  0  0  0
 14 17  1  0  0  0  0
 17 18  1  0  0  0  0
 17 19  1  0  0  0  0
 19 20  1  0  0  0  0
 19 21  1  0  0  0  0
 19 22  1  0  0  0  0
 17 23  1  0  0  0  0
 23 24  1  0  0  0  0
 23 25  1  0  0  0  0
 23 26  1  0  0  0  0
M  END
> <VConfSearch Rank>
714

> <Conf_Id>
127

> <Delta U+W>
3.544

> <U+W>
-26.754

> <U>
27.509

> <W>
-54.263

> <W(PB)>
-56.496

> <W(SA)>
2.232

> <Valence>
6.375

> <Coulomb>
20.014

> <VdW>
1.120

> <VdW6>
-8.976

> <VdW12>
10.096

> <Bond>
0.304

> <Angle>
1.986

> <Pdih>
4.086

> <Idih>
0.000

> <Tether>
0.000

$$$$
VeraChem MOL file


 26 25  0  0  0  0  0  0  0  0999 V2000     
   18.0281   16.5620   22.5511 C   0  0  0  0  0  0  0  0  0  0  0  0
   17.1742   16.0885   23.0526 H   0  0  0  0  0  0  0  0  0  0  0  0
   18.3285   15.9109   21.7200 H   0  0  0  0  0  0  0  0  0  0  0  0
   18.8561   16.5971   23.2675 H   0  0  0  0  0  0  0  0  0  0  0  0
   17.6415   17.9686   22.0374 C   0  0  0  0  0  0  0  0  0  0  0  0
   17.2710   18.5895   22.8649 H   0  0  0  0  0  0  0  0  0  0  0  0
   16.7964   17.8548   21.3440 H   0  0  0  0  0  0  0  0  0  0  0  0
   18.7954   18.6909   21.2952 C   0  0  0  0  0  0  0  0  0  0  0  0
   19.4645   17.9565   20.8260 H   0  0  0  0  0  0  0  0  0  0  0  0
   18.3605   19.2656   20.4657 H   0  0  0  0  0  0  0  0  0  0  0  0
   19.6145   19.6781   22.1665 C   0  0  0  0  0  0  0  0  0  0  0  0
   18.9459   20.4654   22.5393 H   0  0  0  0  0  0  0  0  0  0  0  0
   20.3411   20.1759   21.5120 H   0  0  0  0  0  0  0  0  0  0  0  0
   20.3548   19.0107   23.3562 C   0  0  0  0  0  0  0  0  0  0  0  0
   19.6162   18.6011   24.0556 H   0  0  0  0  0  0  0  0  0  0  0  0
   20.9408   18.1574   22.9903 H   0  0  0  0  0  0  0  0  0  0  0  0
   21.2878   19.9521   24.1545 C   0  0  1  0  0  0  0  0  0  0  0  0
   21.6788   19.3787   25.0007 H   0  0  0  0  0  0  0  0  0  0  0  0
   22.4922   20.4222   23.3198 C   0  0  0  0  0  0  0  0  0  0  0  0
   23.0210   19.5667   22.8816 H   0  0  0  0  0  0  0  0  0  0  0  0
   23.2061   20.9657   23.9507 H   0  0  0  0  0  0  0  0  0  0  0  0
   22.1885   21.0920   22.5069 H   0  0  0  0  0  0  0  0  0  0  0  0
   20.5526   21.1223   24.7481 N   0  3  0  0  0  0  0  0  0  0  0  0
   19.7785   20.8163   25.3443 H   0  0  0  0  0  0  0  0  0  0  0  0
   21.1717   21.7005   25.3232 H   0  0  0  0  0  0  0  0  0  0  0  0
   20.1613   21.7233   24.0187 H   0  0  0  0  0  0  0  0  0  0  0  0
  1  2  1  0  0  0  0
  1  3  1  0  0  0  0
  1  4  1  0  0  0  0
  1  5  1  0  0  0  0
  5  6  1  0  0  0  0
  5  7  1  0  0  0  0
  5  8  1  0  0  0  0
  8  9  1  0  0  0  0
  8 10  1  0  0  0  0
  8 11  1  0  0  0  0
 11 12  1  0  0  0  0
 11 13  1  0  0  0  0
 11 14  1  0  0  0  0
 14 15  1  0  0  0  0
 14 16  1  0  0  0  0
 14 17  1  0  0  0  0
 17 18  1  0  0  0  0
 17 19  1  0  0  0  0
 19 20  1  0  0  0  0
 19 21  1  0  0  0  0
 19 22  1  0  0  0  0
 17 23  1  0  0  0  0
 23 24  1  0  0  0  0
 23 25  1  0  0  0  0
 23 26  1  0  0  0  0
M  END
> <VConfSearch Rank>
715

> <Conf_Id>
131

> <Delta U+W>
3.589

> <U+W>
-26.710

> <U>
27.573

> <W>
-54.283

> <W(PB)>
-56.537

> <W(SA)>
2.254

> <Valence>
6.363

> <Coulomb>
20.026

> <VdW>
1.184

> <VdW6>
-8.939

> <VdW12>
10.123

> <Bond>
0.298

> <Angle>
2.018

> <Pdih>
4.047

> <Idih>
0.000

> <Tether>
0.000

$$$$
VeraChem MOL file


 26 25  0  0  0  0  0  0  0  0999 V2000     
   21.4562   17.3834   24.4813 C   0  0  0  0  0  0  0  0  0  0  0  0
   21.3289   18.1139   25.2907 H   0  0  0  0  0  0  0  0  0  0  0  0
   20.4682   17.1322   24.0767 H   0  0  0  0  0  0  0  0  0  0  0  0
   21.8731   16.4669   24.9184 H   0  0  0  0  0  0  0  0  0  0  0  0
   22.3908   17.9288   23.3797 C   0  0  0  0  0  0  0  0  0  0  0  0
   22.4389   17.2065   22.5528 H   0  0  0  0  0  0  0  0  0  0  0  0
   23.4105   17.9957   23.7843 H   0  0  0  0  0  0  0  0  0  0  0  0
   21.9884   19.3214   22.8306 C   0  0  0  0  0  0  0  0  0  0  0  0
   22.0469   20.0730   23.6298 H   0  0  0  0  0  0  0  0  0  0  0  0
   22.7468   19.6163   22.0922 H   0  0  0  0  0  0  0  0  0  0  0  0
   20.5993   19.3713   22.1417 C   0  0  0  0  0  0  0  0  0  0  0  0
   20.3769   18.3935   21.6957 H   0  0  0  0  0  0  0  0  0  0  0  0
   20.6520   20.0830   21.3062 H   0  0  0  0  0  0  0  0  0  0  0  0
   19.4579   19.8261   23.0894 C   0  0  0  0  0  0  0  0  0  0  0  0
   19.3524   19.1318   23.9304 H   0  0  0  0  0  0  0  0  0  0  0  0
   19.7358   20.7949   23.5247 H   0  0  0  0  0  0  0  0  0  0  0  0
   18.0925   19.9846   22.3824 C   0  0  1  0  0  0  0  0  0  0  0  0
   18.2284   20.6379   21.5149 H   0  0  0  0  0  0  0  0  0  0  0  0
   17.5332   18.6356   21.8953 C   0  0  0  0  0  0  0  0  0  0  0  0
   17.4377   17.9231   22.7241 H   0  0  0  0  0  0  0  0  0  0  0  0
   18.1779   18.1882   21.1302 H   0  0  0  0  0  0  0  0  0  0  0  0
   16.5416   18.7685   21.4454 H   0  0  0  0  0  0  0  0  0  0  0  0
   17.0946   20.6683   23.2756 N   0  3  0  0  0  0  0  0  0  0  0  0
   16.9065   20.1178   24.1175 H   0  0  0  0  0  0  0  0  0  0  0  0
   17.4269   21.5887   23.5775 H   0  0  0  0  0  0  0  0  0  0  0  0
   16.2004   20.8101   22.7974 H   0  0  0  0  0  0  0  0  0  0  0  0
  1  2  1  0  0  0  0
  1  3  1  0  0  0  0
  1  4  1  0  0  0  0
  1  5  1  0  0  0  0
  5  6  1  0  0  0  0
  5  7  1  0  0  0  0
  5  8  1  0  0  0  0
  8  9  1  0  0  0  0
  8 10  1  0  0  0  0
  8 11  1  0  0  0  0
 11 12  1  0  0  0  0
 11 13  1  0  0  0  0
 11 14  1  0  0  0  0
 14 15  1  0  0  0  0
 14 16  1  0  0  0  0
 14 17  1  0  0  0  0
 17 18  1  0  0  0  0
 17 19  1  0  0  0  0
 19 20  1  0  0  0  0
 19 21  1  0  0  0  0
 19 22  1  0  0  0  0
 17 23  1  0  0  0  0
 23 24  1  0  0  0  0
 23 25  1  0  0  0  0
 23 26  1  0  0  0  0
M  END
> <VConfSearch Rank>
716

> <Conf_Id>
80

> <Delta U+W>
3.351

> <U+W>
-26.948

> <U>
27.261

> <W>
-54.209

> <W(PB)>
-56.471

> <W(SA)>
2.263

> <Valence>
6.230

> <Coulomb>
19.945

> <VdW>
1.087

> <VdW6>
-8.618

> <VdW12>
9.704

> <Bond>
0.277

> <Angle>
1.928

> <Pdih>
4.025

> <Idih>
0.000

> <Tether>
0.000

$$$$
VeraChem MOL file


 26 25  0  0  0  0  0  0  0  0999 V2000     
   18.8246   21.5924   24.8451 C   0  0  0  0  0  0  0  0  0  0  0  0
   17.9882   22.3028   24.8193 H   0  0  0  0  0  0  0  0  0  0  0  0
   19.2718   21.6358   25.8466 H   0  0  0  0  0  0  0  0  0  0  0  0
   19.5713   21.9360   24.1183 H   0  0  0  0  0  0  0  0  0  0  0  0
   18.3323   20.1647   24.5175 C   0  0  0  0  0  0  0  0  0  0  0  0
   17.9147   20.1414   23.5026 H   0  0  0  0  0  0  0  0  0  0  0  0
   17.4966   19.9184   25.1872 H   0  0  0  0  0  0  0  0  0  0  0  0
   19.4258   19.0768   24.6791 C   0  0  0  0  0  0  0  0  0  0  0  0
   19.7047   19.0226   25.7404 H   0  0  0  0  0  0  0  0  0  0  0  0
   18.9847   18.1016   24.4439 H   0  0  0  0  0  0  0  0  0  0  0  0
   20.7224   19.2946   23.8486 C   0  0  0  0  0  0  0  0  0  0  0  0
   21.4506   18.5115   24.1004 H   0  0  0  0  0  0  0  0  0  0  0  0
   21.1900   20.2320   24.1774 H   0  0  0  0  0  0  0  0  0  0  0  0
   20.5384   19.3482   22.3058 C   0  0  0  0  0  0  0  0  0  0  0  0
   19.5688   19.7831   22.0387 H   0  0  0  0  0  0  0  0  0  0  0  0
   21.2890   20.0454   21.9109 H   0  0  0  0  0  0  0  0  0  0  0  0
   20.7360   18.0002   21.5710 C   0  0  1  0  0  0  0  0  0  0  0  0
   21.7374   17.6271   21.8065 H   0  0  0  0  0  0  0  0  0  0  0  0
   19.7152   16.9306   21.9927 C   0  0  0  0  0  0  0  0  0  0  0  0
   19.8886   16.6108   23.0261 H   0  0  0  0  0  0  0  0  0  0  0  0
   19.8067   16.0374   21.3625 H   0  0  0  0  0  0  0  0  0  0  0  0
   18.6873   17.3046   21.9077 H   0  0  0  0  0  0  0  0  0  0  0  0
   20.6988   18.1923   20.0800 N   0  3  0  0  0  0  0  0  0  0  0  0
   21.4040   18.8662   19.7684 H   0  0  0  0  0  0  0  0  0  0  0  0
   20.8782   17.3140   19.5852 H   0  0  0  0  0  0  0  0  0  0  0  0
   19.7862   18.5363   19.7698 H   0  0  0  0  0  0  0  0  0  0  0  0
  1  2  1  0  0  0  0
  1  3  1  0  0  0  0
  1  4  1  0  0  0  0
  1  5  1  0  0  0  0
  5  6  1  0  0  0  0
  5  7  1  0  0  0  0
  5  8  1  0  0  0  0
  8  9  1  0  0  0  0
  8 10  1  0  0  0  0
  8 11  1  0  0  0  0
 11 12  1  0  0  0  0
 11 13  1  0  0  0  0
 11 14  1  0  0  0  0
 14 15  1  0  0  0  0
 14 16  1  0  0  0  0
 14 17  1  0  0  0  0
 17 18  1  0  0  0  0
 17 19  1  0  0  0  0
 19 20  1  0  0  0  0
 19 21  1  0  0  0  0
 19 22  1  0  0  0  0
 17 23  1  0  0  0  0
 23 24  1  0  0  0  0
 23 25  1  0  0  0  0
 23 26  1  0  0  0  0
M  END
> <VConfSearch Rank>
717

> <Conf_Id>
136

> <Delta U+W>
4.272

> <U+W>
-26.026

> <U>
28.262

> <W>
-54.288

> <W(PB)>
-56.488

> <W(SA)>
2.200

> <Valence>
7.096

> <Coulomb>
19.990

> <VdW>
1.175

> <VdW6>
-9.404

> <VdW12>
10.580

> <Bond>
0.360

> <Angle>
2.785

> <Pdih>
3.951

> <Idih>
0.000

> <Tether>
0.000

$$$$
VeraChem MOL file


 26 25  0  0  0  0  0  0  0  0999 V2000     
   22.0189   19.8878   24.8346 C   0  0  0  0  0  0  0  0  0  0  0  0
   21.2622   19.1231   25.0490 H   0  0  0  0  0  0  0  0  0  0  0  0
   22.7729   19.8347   25.6306 H   0  0  0  0  0  0  0  0  0  0  0  0
   21.5438   20.8759   24.8878 H   0  0  0  0  0  0  0  0  0  0  0  0
   22.6740   19.6579   23.4551 C   0  0  0  0  0  0  0  0  0  0  0  0
   23.0905   18.6417   23.4146 H   0  0  0  0  0  0  0  0  0  0  0  0
   23.5289   20.3410   23.3531 H   0  0  0  0  0  0  0  0  0  0  0  0
   21.7227   19.8776   22.2511 C   0  0  0  0  0  0  0  0  0  0  0  0
   21.3805   20.9214   22.2253 H   0  0  0  0  0  0  0  0  0  0  0  0
   22.3125   19.7372   21.3347 H   0  0  0  0  0  0  0  0  0  0  0  0
   20.5106   18.9114   22.1988 C   0  0  0  0  0  0  0  0  0  0  0  0
   20.7662   17.9615   22.6885 H   0  0  0  0  0  0  0  0  0  0  0  0
   20.3128   18.6690   21.1462 H   0  0  0  0  0  0  0  0  0  0  0  0
   19.2218   19.5099   22.8203 C   0  0  0  0  0  0  0  0  0  0  0  0
   19.4284   19.8559   23.8393 H   0  0  0  0  0  0  0  0  0  0  0  0
   18.9166   20.3975   22.2504 H   0  0  0  0  0  0  0  0  0  0  0  0
   18.0543   18.5007   22.8696 C   0  0  1  0  0  0  0  0  0  0  0  0
   18.3894   17.6161   23.4200 H   0  0  0  0  0  0  0  0  0  0  0  0
   16.8548   19.1068   23.6157 C   0  0  0  0  0  0  0  0  0  0  0  0
   16.4780   20.0002   23.1022 H   0  0  0  0  0  0  0  0  0  0  0  0
   17.1348   19.3925   24.6374 H   0  0  0  0  0  0  0  0  0  0  0  0
   16.0347   18.3817   23.6864 H   0  0  0  0  0  0  0  0  0  0  0  0
   17.6412   18.0289   21.5021 N   0  3  0  0  0  0  0  0  0  0  0  0
   17.3151   18.8061   20.9217 H   0  0  0  0  0  0  0  0  0  0  0  0
   18.4191   17.5815   21.0100 H   0  0  0  0  0  0  0  0  0  0  0  0
   16.8801   17.3461   21.5558 H   0  0  0  0  0  0  0  0  0  0  0  0
  1  2  1  0  0  0  0
  1  3  1  0  0  0  0
  1  4  1  0  0  0  0
  1  5  1  0  0  0  0
  5  6  1  0  0  0  0
  5  7  1  0  0  0  0
  5  8  1  0  0  0  0
  8  9  1  0  0  0  0
  8 10  1  0  0  0  0
  8 11  1  0  0  0  0
 11 12  1  0  0  0  0
 11 13  1  0  0  0  0
 11 14  1  0  0  0  0
 14 15  1  0  0  0  0
 14 16  1  0  0  0  0
 14 17  1  0  0  0  0
 17 18  1  0  0  0  0
 17 19  1  0  0  0  0
 19 20  1  0  0  0  0
 19 21  1  0  0  0  0
 19 22  1  0  0  0  0
 17 23  1  0  0  0  0
 23 24  1  0  0  0  0
 23 25  1  0  0  0  0
 23 26  1  0  0  0  0
M  END
> <VConfSearch Rank>
718

> <Conf_Id>
124

> <Delta U+W>
3.001

> <U+W>
-27.298

> <U>
26.787

> <W>
-54.085

> <W(PB)>
-56.347

> <W(SA)>
2.262

> <Valence>
5.742

> <Coulomb>
20.023

> <VdW>
1.022

> <VdW6>
-8.392

> <VdW12>
9.414

> <Bond>
0.261

> <Angle>
1.576

> <Pdih>
3.904

> <Idih>
0.000

> <Tether>
0.000

$$$$
VeraChem MOL file


 26 25  0  0  0  0  0  0  0  0999 V2000     
   22.6743   20.4350   22.2198 C   0  0  0  0  0  0  0  0  0  0  0  0
   23.2111   20.8690   23.0734 H   0  0  0  0  0  0  0  0  0  0  0  0
   23.2759   20.6191   21.3203 H   0  0  0  0  0  0  0  0  0  0  0  0
   21.7302   20.9782   22.1038 H   0  0  0  0  0  0  0  0  0  0  0  0
   22.4534   18.9176   22.4209 C   0  0  0  0  0  0  0  0  0  0  0  0
   23.4403   18.4401   22.4979 H   0  0  0  0  0  0  0  0  0  0  0  0
   21.9751   18.4801   21.5335 H   0  0  0  0  0  0  0  0  0  0  0  0
   21.6399   18.5760   23.6959 C   0  0  0  0  0  0  0  0  0  0  0  0
   22.0353   17.6387   24.1114 H   0  0  0  0  0  0  0  0  0  0  0  0
   21.8093   19.3366   24.4705 H   0  0  0  0  0  0  0  0  0  0  0  0
   20.1195   18.3775   23.4652 C   0  0  0  0  0  0  0  0  0  0  0  0
   19.6725   18.0600   24.4162 H   0  0  0  0  0  0  0  0  0  0  0  0
   19.9718   17.5460   22.7632 H   0  0  0  0  0  0  0  0  0  0  0  0
   19.3860   19.6416   22.9441 C   0  0  0  0  0  0  0  0  0  0  0  0
   19.6592   20.5030   23.5674 H   0  0  0  0  0  0  0  0  0  0  0  0
   19.7342   19.8707   21.9294 H   0  0  0  0  0  0  0  0  0  0  0  0
   17.8434   19.5298   22.9091 C   0  0  1  0  0  0  0  0  0  0  0  0
   17.4576   20.4780   22.5219 H   0  0  0  0  0  0  0  0  0  0  0  0
   17.3669   18.4125   21.9645 C   0  0  0  0  0  0  0  0  0  0  0  0
   17.6417   17.4197   22.3403 H   0  0  0  0  0  0  0  0  0  0  0  0
   17.8026   18.5349   20.9651 H   0  0  0  0  0  0  0  0  0  0  0  0
   16.2756   18.4401   21.8571 H   0  0  0  0  0  0  0  0  0  0  0  0
   17.2466   19.3677   24.2803 N   0  3  0  0  0  0  0  0  0  0  0  0
   16.2234   19.3600   24.2444 H   0  0  0  0  0  0  0  0  0  0  0  0
   17.5446   18.4910   24.7148 H   0  0  0  0  0  0  0  0  0  0  0  0
   17.5247   20.1310   24.9036 H   0  0  0  0  0  0  0  0  0  0  0  0
  1  2  1  0  0  0  0
  1  3  1  0  0  0  0
  1  4  1  0  0  0  0
  1  5  1  0  0  0  0
  5  6  1  0  0  0  0
  5  7  1  0  0  0  0
  5  8  1  0  0  0  0
  8  9  1  0  0  0  0
  8 10  1  0  0  0  0
  8 11  1  0  0  0  0
 11 12  1  0  0  0  0
 11 13  1  0  0  0  0
 11 14  1  0  0  0  0
 14 15  1  0  0  0  0
 14 16  1  0  0  0  0
 14 17  1  0  0  0  0
 17 18  1  0  0  0  0
 17 19  1  0  0  0  0
 19 20  1  0  0  0  0
 19 21  1  0  0  0  0
 19 22  1  0  0  0  0
 17 23  1  0  0  0  0
 23 24  1  0  0  0  0
 23 25  1  0  0  0  0
 23 26  1  0  0  0  0
M  END
> <VConfSearch Rank>
719

> <Conf_Id>
105

> <Delta U+W>
3.442

> <U+W>
-26.857

> <U>
27.313

> <W>
-54.169

> <W(PB)>
-56.414

> <W(SA)>
2.245

> <Valence>
6.229

> <Coulomb>
19.943

> <VdW>
1.140

> <VdW6>
-9.001

> <VdW12>
10.140

> <Bond>
0.294

> <Angle>
1.969

> <Pdih>
3.967

> <Idih>
0.000

> <Tether>
0.000

$$$$
VeraChem MOL file


 26 25  0  0  0  0  0  0  0  0999 V2000     
   18.4360   21.8493   23.2595 C   0  0  0  0  0  0  0  0  0  0  0  0
   18.4245   22.2933   24.2634 H   0  0  0  0  0  0  0  0  0  0  0  0
   17.8117   22.4776   22.6111 H   0  0  0  0  0  0  0  0  0  0  0  0
   17.9620   20.8638   23.3211 H   0  0  0  0  0  0  0  0  0  0  0  0
   19.8786   21.7699   22.7077 C   0  0  0  0  0  0  0  0  0  0  0  0
   20.2720   22.7941   22.6428 H   0  0  0  0  0  0  0  0  0  0  0  0
   19.8735   21.3828   21.6792 H   0  0  0  0  0  0  0  0  0  0  0  0
   20.8342   20.9309   23.5949 C   0  0  0  0  0  0  0  0  0  0  0  0
   21.8319   21.3892   23.5496 H   0  0  0  0  0  0  0  0  0  0  0  0
   20.5283   20.9936   24.6483 H   0  0  0  0  0  0  0  0  0  0  0  0
   20.9840   19.4475   23.1690 C   0  0  0  0  0  0  0  0  0  0  0  0
   21.7370   18.9785   23.8177 H   0  0  0  0  0  0  0  0  0  0  0  0
   21.3884   19.4073   22.1488 H   0  0  0  0  0  0  0  0  0  0  0  0
   19.6729   18.6272   23.2476 C   0  0  0  0  0  0  0  0  0  0  0  0
   19.2052   18.7952   24.2268 H   0  0  0  0  0  0  0  0  0  0  0  0
   18.9651   18.9820   22.4881 H   0  0  0  0  0  0  0  0  0  0  0  0
   19.9016   17.1122   23.0575 C   0  0  1  0  0  0  0  0  0  0  0  0
   20.6220   16.7772   23.8101 H   0  0  0  0  0  0  0  0  0  0  0  0
   18.5882   16.3426   23.2707 C   0  0  0  0  0  0  0  0  0  0  0  0
   17.8294   16.6409   22.5364 H   0  0  0  0  0  0  0  0  0  0  0  0
   18.1851   16.5298   24.2738 H   0  0  0  0  0  0  0  0  0  0  0  0
   18.7512   15.2621   23.1742 H   0  0  0  0  0  0  0  0  0  0  0  0
   20.4946   16.7842   21.7144 N   0  3  0  0  0  0  0  0  0  0  0  0
   21.3915   17.2575   21.5763 H   0  0  0  0  0  0  0  0  0  0  0  0
   20.6605   15.7788   21.6140 H   0  0  0  0  0  0  0  0  0  0  0  0
   19.8742   17.0700   20.9524 H   0  0  0  0  0  0  0  0  0  0  0  0
  1  2  1  0  0  0  0
  1  3  1  0  0  0  0
  1  4  1  0  0  0  0
  1  5  1  0  0  0  0
  5  6  1  0  0  0  0
  5  7  1  0  0  0  0
  5  8  1  0  0  0  0
  8  9  1  0  0  0  0
  8 10  1  0  0  0  0
  8 11  1  0  0  0  0
 11 12  1  0  0  0  0
 11 13  1  0  0  0  0
 11 14  1  0  0  0  0
 14 15  1  0  0  0  0
 14 16  1  0  0  0  0
 14 17  1  0  0  0  0
 17 18  1  0  0  0  0
 17 19  1  0  0  0  0
 19 20  1  0  0  0  0
 19 21  1  0  0  0  0
 19 22  1  0  0  0  0
 17 23  1  0  0  0  0
 23 24  1  0  0  0  0
 23 25  1  0  0  0  0
 23 26  1  0  0  0  0
M  END
> <VConfSearch Rank>
720

> <Conf_Id>
107

> <Delta U+W>
2.995

> <U+W>
-27.304

> <U>
26.796

> <W>
-54.100

> <W(PB)>
-56.404

> <W(SA)>
2.304

> <Valence>
5.706

> <Coulomb>
20.107

> <VdW>
0.982

> <VdW6>
-8.396

> <VdW12>
9.378

> <Bond>
0.254

> <Angle>
1.644

> <Pdih>
3.808

> <Idih>
0.000

> <Tether>
0.000

$$$$
VeraChem MOL file


 26 25  0  0  0  0  0  0  0  0999 V2000     
   23.6238   17.3445   23.1018 C   0  0  0  0  0  0  0  0  0  0  0  0
   24.1419   18.1531   23.6339 H   0  0  0  0  0  0  0  0  0  0  0  0
   24.0625   16.3921   23.4268 H   0  0  0  0  0  0  0  0  0  0  0  0
   23.8236   17.4586   22.0284 H   0  0  0  0  0  0  0  0  0  0  0  0
   22.1079   17.3729   23.3901 C   0  0  0  0  0  0  0  0  0  0  0  0
   21.9385   17.2226   24.4656 H   0  0  0  0  0  0  0  0  0  0  0  0
   21.6228   16.5334   22.8724 H   0  0  0  0  0  0  0  0  0  0  0  0
   21.4651   18.7041   22.9418 C   0  0  0  0  0  0  0  0  0  0  0  0
   21.9560   19.5398   23.4596 H   0  0  0  0  0  0  0  0  0  0  0  0
   21.6386   18.8507   21.8666 H   0  0  0  0  0  0  0  0  0  0  0  0
   19.9470   18.7367   23.2295 C   0  0  0  0  0  0  0  0  0  0  0  0
   19.7752   18.5935   24.3055 H   0  0  0  0  0  0  0  0  0  0  0  0
   19.4654   17.8950   22.7142 H   0  0  0  0  0  0  0  0  0  0  0  0
   19.3056   20.0714   22.7778 C   0  0  0  0  0  0  0  0  0  0  0  0
   19.8367   20.9018   23.2619 H   0  0  0  0  0  0  0  0  0  0  0  0
   19.4408   20.2012   21.6958 H   0  0  0  0  0  0  0  0  0  0  0  0
   17.8051   20.1685   23.1292 C   0  0  1  0  0  0  0  0  0  0  0  0
   17.6945   20.0125   24.2067 H   0  0  0  0  0  0  0  0  0  0  0  0
   17.2654   21.5664   22.7864 C   0  0  0  0  0  0  0  0  0  0  0  0
   17.3518   21.7730   21.7123 H   0  0  0  0  0  0  0  0  0  0  0  0
   17.8197   22.3423   23.3292 H   0  0  0  0  0  0  0  0  0  0  0  0
   16.2088   21.6545   23.0676 H   0  0  0  0  0  0  0  0  0  0  0  0
   16.9843   19.1055   22.4511 N   0  3  0  0  0  0  0  0  0  0  0  0
   17.0396   19.1842   21.4323 H   0  0  0  0  0  0  0  0  0  0  0  0
   17.3031   18.1671   22.7060 H   0  0  0  0  0  0  0  0  0  0  0  0
   15.9961   19.1737   22.7104 H   0  0  0  0  0  0  0  0  0  0  0  0
  1  2  1  0  0  0  0
  1  3  1  0  0  0  0
  1  4  1  0  0  0  0
  1  5  1  0  0  0  0
  5  6  1  0  0  0  0
  5  7  1  0  0  0  0
  5  8  1  0  0  0  0
  8  9  1  0  0  0  0
  8 10  1  0  0  0  0
  8 11  1  0  0  0  0
 11 12  1  0  0  0  0
 11 13  1  0  0  0  0
 11 14  1  0  0  0  0
 14 15  1  0  0  0  0
 14 16  1  0  0  0  0
 14 17  1  0  0  0  0
 17 18  1  0  0  0  0
 17 19  1  0  0  0  0
 19 20  1  0  0  0  0
 19 21  1  0  0  0  0
 19 22  1  0  0  0  0
 17 23  1  0  0  0  0
 23 24  1  0  0  0  0
 23 25  1  0  0  0  0
 23 26  1  0  0  0  0
M  END
> <VConfSearch Rank>
721

> <Conf_Id>
122

> <Delta U+W>
0.000

> <U+W>
-30.299

> <U>
23.517

> <W>
-53.816

> <W(PB)>
-56.162

> <W(SA)>
2.346

> <Valence>
2.737

> <Coulomb>
19.862

> <VdW>
0.919

> <VdW6>
-6.793

> <VdW12>
7.712

> <Bond>
0.171

> <Angle>
0.873

> <Pdih>
1.693

> <Idih>
0.000

> <Tether>
0.000

$$$$
VeraChem MOL file


 26 25  0  0  0  0  0  0  0  0999 V2000     
   23.5040   21.1194   22.6665 C   0  0  0  0  0  0  0  0  0  0  0  0
   24.0199   21.9523   23.1616 H   0  0  0  0  0  0  0  0  0  0  0  0
   24.1455   20.2319   22.7441 H   0  0  0  0  0  0  0  0  0  0  0  0
   23.3978   21.3728   21.6036 H   0  0  0  0  0  0  0  0  0  0  0  0
   22.1272   20.8673   23.3170 C   0  0  0  0  0  0  0  0  0  0  0  0
   21.5215   21.7823   23.2541 H   0  0  0  0  0  0  0  0  0  0  0  0
   22.2634   20.6501   24.3858 H   0  0  0  0  0  0  0  0  0  0  0  0
   21.3792   19.6985   22.6383 C   0  0  0  0  0  0  0  0  0  0  0  0
   21.2471   19.9194   21.5700 H   0  0  0  0  0  0  0  0  0  0  0  0
   21.9906   18.7876   22.7012 H   0  0  0  0  0  0  0  0  0  0  0  0
   19.9999   19.4427   23.2873 C   0  0  0  0  0  0  0  0  0  0  0  0
   19.4013   20.3610   23.2264 H   0  0  0  0  0  0  0  0  0  0  0  0
   20.1332   19.2172   24.3545 H   0  0  0  0  0  0  0  0  0  0  0  0
   19.2507   18.2735   22.6018 C   0  0  0  0  0  0  0  0  0  0  0  0
   19.0578   18.5231   21.5500 H   0  0  0  0  0  0  0  0  0  0  0  0
   19.9070   17.3931   22.5972 H   0  0  0  0  0  0  0  0  0  0  0  0
   17.9243   17.8903   23.2972 C   0  0  1  0  0  0  0  0  0  0  0  0
   18.1358   17.6872   24.3516 H   0  0  0  0  0  0  0  0  0  0  0  0
   16.8802   19.0187   23.2185 C   0  0  0  0  0  0  0  0  0  0  0  0
   16.6810   19.3033   22.1778 H   0  0  0  0  0  0  0  0  0  0  0  0
   17.2146   19.9104   23.7610 H   0  0  0  0  0  0  0  0  0  0  0  0
   15.9330   18.7008   23.6712 H   0  0  0  0  0  0  0  0  0  0  0  0
   17.3600   16.6191   22.7257 N   0  3  0  0  0  0  0  0  0  0  0  0
   17.1301   16.7239   21.7339 H   0  0  0  0  0  0  0  0  0  0  0  0
   18.0220   15.8420   22.8075 H   0  0  0  0  0  0  0  0  0  0  0  0
   16.5022   16.3396   23.2100 H   0  0  0  0  0  0  0  0  0  0  0  0
  1  2  1  0  0  0  0
  1  3  1  0  0  0  0
  1  4  1  0  0  0  0
  1  5  1  0  0  0  0
  5  6  1  0  0  0  0
  5  7  1  0  0  0  0
  5  8  1  0  0  0  0
  8  9  1  0  0  0  0
  8 10  1  0  0  0  0
  8 11  1  0  0  0  0
 11 12  1  0  0  0  0
 11 13  1  0  0  0  0
 11 14  1  0  0  0  0
 14 15  1  0  0  0  0
 14 16  1  0  0  0  0
 14 17  1  0  0  0  0
 17 18  1  0  0  0  0
 17 19  1  0  0  0  0
 19 20  1  0  0  0  0
 19 21  1  0  0  0  0
 19 22  1  0  0  0  0
 17 23  1  0  0  0  0
 23 24  1  0  0  0  0
 23 25  1  0  0  0  0
 23 26  1  0  0  0  0
M  END
> <VConfSearch Rank>
722

> <Conf_Id>
54

> <Delta U+W>
0.453

> <U+W>
-29.845

> <U>
23.817

> <W>
-53.663

> <W(PB)>
-56.021

> <W(SA)>
2.358

> <Valence>
3.277

> <Coulomb>
19.492

> <VdW>
1.049

> <VdW6>
-6.949

> <VdW12>
7.998

> <Bond>
0.183

> <Angle>
1.152

> <Pdih>
1.942

> <Idih>
0.000

> <Tether>
0.000

$$$$
VeraChem MOL file


 26 25  0  0  0  0  0  0  0  0999 V2000     
   22.6273   19.1838   20.6007 C   0  0  0  0  0  0  0  0  0  0  0  0
   22.4320   18.1408   20.3193 H   0  0  0  0  0  0  0  0  0  0  0  0
   21.9371   19.8263   20.0406 H   0  0  0  0  0  0  0  0  0  0  0  0
   23.6454   19.4334   20.2751 H   0  0  0  0  0  0  0  0  0  0  0  0
   22.4846   19.3840   22.1269 C   0  0  0  0  0  0  0  0  0  0  0  0
   22.6505   20.4405   22.3801 H   0  0  0  0  0  0  0  0  0  0  0  0
   23.2822   18.8193   22.6298 H   0  0  0  0  0  0  0  0  0  0  0  0
   21.1195   18.9171   22.6883 C   0  0  0  0  0  0  0  0  0  0  0  0
   20.9471   17.8694   22.4056 H   0  0  0  0  0  0  0  0  0  0  0  0
   21.1864   18.9480   23.7823 H   0  0  0  0  0  0  0  0  0  0  0  0
   19.9296   19.7944   22.2238 C   0  0  0  0  0  0  0  0  0  0  0  0
   19.9389   19.8686   21.1291 H   0  0  0  0  0  0  0  0  0  0  0  0
   20.0628   20.8184   22.5993 H   0  0  0  0  0  0  0  0  0  0  0  0
   18.5304   19.2698   22.6418 C   0  0  0  0  0  0  0  0  0  0  0  0
   17.7875   19.9224   22.1640 H   0  0  0  0  0  0  0  0  0  0  0  0
   18.3608   18.2689   22.2234 H   0  0  0  0  0  0  0  0  0  0  0  0
   18.2680   19.2559   24.1667 C   0  0  1  0  0  0  0  0  0  0  0  0
   18.7297   20.1461   24.6049 H   0  0  0  0  0  0  0  0  0  0  0  0
   16.7576   19.3082   24.4513 C   0  0  0  0  0  0  0  0  0  0  0  0
   16.5654   19.3138   25.5313 H   0  0  0  0  0  0  0  0  0  0  0  0
   16.2418   18.4428   24.0164 H   0  0  0  0  0  0  0  0  0  0  0  0
   16.3119   20.2186   24.0316 H   0  0  0  0  0  0  0  0  0  0  0  0
   18.8700   18.0591   24.8517 N   0  3  0  0  0  0  0  0  0  0  0  0
   19.8775   18.0005   24.6886 H   0  0  0  0  0  0  0  0  0  0  0  0
   18.7225   18.0947   25.8644 H   0  0  0  0  0  0  0  0  0  0  0  0
   18.4524   17.1884   24.5130 H   0  0  0  0  0  0  0  0  0  0  0  0
  1  2  1  0  0  0  0
  1  3  1  0  0  0  0
  1  4  1  0  0  0  0
  1  5  1  0  0  0  0
  5  6  1  0  0  0  0
  5  7  1  0  0  0  0
  5  8  1  0  0  0  0
  8  9  1  0  0  0  0
  8 10  1  0  0  0  0
  8 11  1  0  0  0  0
 11 12  1  0  0  0  0
 11 13  1  0  0  0  0
 11 14  1  0  0  0  0
 14 15  1  0  0  0  0
 14 16  1  0  0  0  0
 14 17  1  0  0  0  0
 17 18  1  0  0  0  0
 17 19  1  0  0  0  0
 19 20  1  0  0  0  0
 19 21  1  0  0  0  0
 19 22  1  0  0  0  0
 17 23  1  0  0  0  0
 23 24  1  0  0  0  0
 23 25  1  0  0  0  0
 23 26  1  0  0  0  0
M  END
> <VConfSearch Rank>
723

> <Conf_Id>
110

> <Delta U+W>
3.764

> <U+W>
-26.535

> <U>
27.400

> <W>
-53.935

> <W(PB)>
-56.238

> <W(SA)>
2.303

> <Valence>
5.205

> <Coulomb>
21.096

> <VdW>
1.098

> <VdW6>
-8.389

> <VdW12>
9.488

> <Bond>
0.270

> <Angle>
1.912

> <Pdih>
3.023

> <Idih>
0.000

> <Tether>
0.000

$$$$
VeraChem MOL file


 26 25  0  0  0  0  0  0  0  0999 V2000     
   17.3217   17.7994   25.2870 C   0  0  0  0  0  0  0  0  0  0  0  0
   17.0885   17.3475   26.2598 H   0  0  0  0  0  0  0  0  0  0  0  0
   17.1886   18.8838   25.3871 H   0  0  0  0  0  0  0  0  0  0  0  0
   16.5882   17.4278   24.5598 H   0  0  0  0  0  0  0  0  0  0  0  0
   18.7622   17.4417   24.8560 C   0  0  0  0  0  0  0  0  0  0  0  0
   18.8805   16.3495   24.8884 H   0  0  0  0  0  0  0  0  0  0  0  0
   19.4775   17.8499   25.5836 H   0  0  0  0  0  0  0  0  0  0  0  0
   19.1213   17.9382   23.4348 C   0  0  0  0  0  0  0  0  0  0  0  0
   20.1101   17.5438   23.1714 H   0  0  0  0  0  0  0  0  0  0  0  0
   18.4194   17.5045   22.7092 H   0  0  0  0  0  0  0  0  0  0  0  0
   19.1128   19.4831   23.3024 C   0  0  0  0  0  0  0  0  0  0  0  0
   19.7034   19.9415   24.1075 H   0  0  0  0  0  0  0  0  0  0  0  0
   18.0832   19.8386   23.4407 H   0  0  0  0  0  0  0  0  0  0  0  0
   19.6149   19.9837   21.9219 C   0  0  0  0  0  0  0  0  0  0  0  0
   19.4364   19.2213   21.1520 H   0  0  0  0  0  0  0  0  0  0  0  0
   19.0003   20.8472   21.6350 H   0  0  0  0  0  0  0  0  0  0  0  0
   21.0948   20.4366   21.8945 C   0  0  1  0  0  0  0  0  0  0  0  0
   21.2222   21.2259   22.6417 H   0  0  0  0  0  0  0  0  0  0  0  0
   22.0744   19.2987   22.2282 C   0  0  0  0  0  0  0  0  0  0  0  0
   21.9317   18.4418   21.5583 H   0  0  0  0  0  0  0  0  0  0  0  0
   21.9453   18.9589   23.2624 H   0  0  0  0  0  0  0  0  0  0  0  0
   23.1121   19.6399   22.1282 H   0  0  0  0  0  0  0  0  0  0  0  0
   21.4458   21.0516   20.5680 N   0  3  0  0  0  0  0  0  0  0  0  0
   20.8369   21.8445   20.3465 H   0  0  0  0  0  0  0  0  0  0  0  0
   22.4097   21.3968   20.5590 H   0  0  0  0  0  0  0  0  0  0  0  0
   21.3574   20.3738   19.8062 H   0  0  0  0  0  0  0  0  0  0  0  0
  1  2  1  0  0  0  0
  1  3  1  0  0  0  0
  1  4  1  0  0  0  0
  1  5  1  0  0  0  0
  5  6  1  0  0  0  0
  5  7  1  0  0  0  0
  5  8  1  0  0  0  0
  8  9  1  0  0  0  0
  8 10  1  0  0  0  0
  8 11  1  0  0  0  0
 11 12  1  0  0  0  0
 11 13  1  0  0  0  0
 11 14  1  0  0  0  0
 14 15  1  0  0  0  0
 14 16  1  0  0  0  0
 14 17  1  0  0  0  0
 17 18  1  0  0  0  0
 17 19  1  0  0  0  0
 19 20  1  0  0  0  0
 19 21  1  0  0  0  0
 19 22  1  0  0  0  0
 17 23  1  0  0  0  0
 23 24  1  0  0  0  0
 23 25  1  0  0  0  0
 23 26  1  0  0  0  0
M  END
> <VConfSearch Rank>
724

> <Conf_Id>
34

> <Delta U+W>
3.568

> <U+W>
-26.731

> <U>
27.221

> <W>
-53.952

> <W(PB)>
-56.213

> <W(SA)>
2.261

> <Valence>
6.368

> <Coulomb>
19.698

> <VdW>
1.155

> <VdW6>
-8.532

> <VdW12>
9.687

> <Bond>
0.272

> <Angle>
1.847

> <Pdih>
4.248

> <Idih>
0.000

> <Tether>
0.000

$$$$
VeraChem MOL file


 26 25  0  0  0  0  0  0  0  0999 V2000     
   17.4784   18.8464   19.6088 C   0  0  0  0  0  0  0  0  0  0  0  0
   16.5645   18.4706   20.0870 H   0  0  0  0  0  0  0  0  0  0  0  0
   17.3512   19.9212   19.4252 H   0  0  0  0  0  0  0  0  0  0  0  0
   17.5790   18.3480   18.6358 H   0  0  0  0  0  0  0  0  0  0  0  0
   18.7166   18.5767   20.4898 C   0  0  0  0  0  0  0  0  0  0  0  0
   19.6177   18.9325   19.9707 H   0  0  0  0  0  0  0  0  0  0  0  0
   18.8370   17.4930   20.6273 H   0  0  0  0  0  0  0  0  0  0  0  0
   18.6005   19.2677   21.8666 C   0  0  0  0  0  0  0  0  0  0  0  0
   18.4778   20.3502   21.7233 H   0  0  0  0  0  0  0  0  0  0  0  0
   17.6970   18.9107   22.3801 H   0  0  0  0  0  0  0  0  0  0  0  0
   19.8385   18.9999   22.7521 C   0  0  0  0  0  0  0  0  0  0  0  0
   20.7372   19.3572   22.2322 H   0  0  0  0  0  0  0  0  0  0  0  0
   19.9548   17.9163   22.8851 H   0  0  0  0  0  0  0  0  0  0  0  0
   19.7141   19.6939   24.1337 C   0  0  0  0  0  0  0  0  0  0  0  0
   19.5490   20.7689   23.9835 H   0  0  0  0  0  0  0  0  0  0  0  0
   18.8188   19.3201   24.6481 H   0  0  0  0  0  0  0  0  0  0  0  0
   20.9349   19.5130   25.0666 C   0  0  1  0  0  0  0  0  0  0  0  0
   20.7282   20.0726   25.9841 H   0  0  0  0  0  0  0  0  0  0  0  0
   21.1504   18.0408   25.4590 C   0  0  0  0  0  0  0  0  0  0  0  0
   21.4582   17.4325   24.6002 H   0  0  0  0  0  0  0  0  0  0  0  0
   20.2314   17.6095   25.8749 H   0  0  0  0  0  0  0  0  0  0  0  0
   21.9319   17.9586   26.2244 H   0  0  0  0  0  0  0  0  0  0  0  0
   22.1911   20.1067   24.4907 N   0  3  0  0  0  0  0  0  0  0  0  0
   22.9739   20.0347   25.1468 H   0  0  0  0  0  0  0  0  0  0  0  0
   22.4676   19.6286   23.6298 H   0  0  0  0  0  0  0  0  0  0  0  0
   22.0697   21.0987   24.2676 H   0  0  0  0  0  0  0  0  0  0  0  0
  1  2  1  0  0  0  0
  1  3  1  0  0  0  0
  1  4  1  0  0  0  0
  1  5  1  0  0  0  0
  5  6  1  0  0  0  0
  5  7  1  0  0  0  0
  5  8  1  0  0  0  0
  8  9  1  0  0  0  0
  8 10  1  0  0  0  0
  8 11  1  0  0  0  0
 11 12  1  0  0  0  0
 11 13  1  0  0  0  0
 11 14  1  0  0  0  0
 14 15  1  0  0  0  0
 14 16  1  0  0  0  0
 14 17  1  0  0  0  0
 17 18  1  0  0  0  0
 17 19  1  0  0  0  0
 19 20  1  0  0  0  0
 19 21  1  0  0  0  0
 19 22  1  0  0  0  0
 17 23  1  0  0  0  0
 23 24  1  0  0  0  0
 23 25  1  0  0  0  0
 23 26  1  0  0  0  0
M  END
> <VConfSearch Rank>
725

> <Conf_Id>
132

> <Delta U+W>
0.363

> <U+W>
-29.936

> <U>
24.060

> <W>
-53.996

> <W(PB)>
-56.327

> <W(SA)>
2.332

> <Valence>
3.249

> <Coulomb>
19.781

> <VdW>
1.030

> <VdW6>
-7.421

> <VdW12>
8.451

> <Bond>
0.207

> <Angle>
1.205

> <Pdih>
1.837

> <Idih>
0.000

> <Tether>
0.000

$$$$
VeraChem MOL file


 26 25  0  0  0  0  0  0  0  0999 V2000     
   17.7977   16.3560   24.8410 C   0  0  0  0  0  0  0  0  0  0  0  0
   18.2419   15.4704   25.3138 H   0  0  0  0  0  0  0  0  0  0  0  0
   17.1638   16.8534   25.5867 H   0  0  0  0  0  0  0  0  0  0  0  0
   17.1548   16.0129   24.0199 H   0  0  0  0  0  0  0  0  0  0  0  0
   18.8977   17.3071   24.3236 C   0  0  0  0  0  0  0  0  0  0  0  0
   19.5336   16.7617   23.6140 H   0  0  0  0  0  0  0  0  0  0  0  0
   19.5410   17.6094   25.1617 H   0  0  0  0  0  0  0  0  0  0  0  0
   18.2946   18.5616   23.6483 C   0  0  0  0  0  0  0  0  0  0  0  0
   17.6959   18.2622   22.7770 H   0  0  0  0  0  0  0  0  0  0  0  0
   17.5981   19.0423   24.3493 H   0  0  0  0  0  0  0  0  0  0  0  0
   19.3536   19.6063   23.2175 C   0  0  0  0  0  0  0  0  0  0  0  0
   19.9427   19.9054   24.0945 H   0  0  0  0  0  0  0  0  0  0  0  0
   18.8218   20.5050   22.8797 H   0  0  0  0  0  0  0  0  0  0  0  0
   20.2928   19.1022   22.0876 C   0  0  0  0  0  0  0  0  0  0  0  0
   20.8482   18.2228   22.4354 H   0  0  0  0  0  0  0  0  0  0  0  0
   19.6881   18.7619   21.2366 H   0  0  0  0  0  0  0  0  0  0  0  0
   21.3206   20.1429   21.5830 C   0  0  1  0  0  0  0  0  0  0  0  0
   21.9470   19.6440   20.8370 H   0  0  0  0  0  0  0  0  0  0  0  0
   20.6444   21.3405   20.8926 C   0  0  0  0  0  0  0  0  0  0  0  0
   20.0775   21.9533   21.6033 H   0  0  0  0  0  0  0  0  0  0  0  0
   19.9585   21.0014   20.1064 H   0  0  0  0  0  0  0  0  0  0  0  0
   21.3965   21.9853   20.4216 H   0  0  0  0  0  0  0  0  0  0  0  0
   22.2530   20.6027   22.6698 N   0  3  0  0  0  0  0  0  0  0  0  0
   22.7425   19.8147   23.1031 H   0  0  0  0  0  0  0  0  0  0  0  0
   22.9650   21.2423   22.3062 H   0  0  0  0  0  0  0  0  0  0  0  0
   21.7468   21.0957   23.4094 H   0  0  0  0  0  0  0  0  0  0  0  0
  1  2  1  0  0  0  0
  1  3  1  0  0  0  0
  1  4  1  0  0  0  0
  1  5  1  0  0  0  0
  5  6  1  0  0  0  0
  5  7  1  0  0  0  0
  5  8  1  0  0  0  0
  8  9  1  0  0  0  0
  8 10  1  0  0  0  0
  8 11  1  0  0  0  0
 11 12  1  0  0  0  0
 11 13  1  0  0  0  0
 11 14  1  0  0  0  0
 14 15  1  0  0  0  0
 14 16  1  0  0  0  0
 14 17  1  0  0  0  0
 17 18  1  0  0  0  0
 17 19  1  0  0  0  0
 19 20  1  0  0  0  0
 19 21  1  0  0  0  0
 19 22  1  0  0  0  0
 17 23  1  0  0  0  0
 23 24  1  0  0  0  0
 23 25  1  0  0  0  0
 23 26  1  0  0  0  0
M  END
> <VConfSearch Rank>
726

> <Conf_Id>
46

> <Delta U+W>
1.114

> <U+W>
-29.185

> <U>
24.990

> <W>
-54.175

> <W(PB)>
-56.455

> <W(SA)>
2.279

> <Valence>
3.862

> <Coulomb>
19.956

> <VdW>
1.172

> <VdW6>
-8.054

> <VdW12>
9.226

> <Bond>
0.258

> <Angle>
1.499

> <Pdih>
2.106

> <Idih>
0.000

> <Tether>
0.000

$$$$
VeraChem MOL file


 26 25  0  0  0  0  0  0  0  0999 V2000     
   22.3406   20.4420   20.6127 C   0  0  0  0  0  0  0  0  0  0  0  0
   22.6190   19.3811   20.6319 H   0  0  0  0  0  0  0  0  0  0  0  0
   21.6465   20.6012   19.7773 H   0  0  0  0  0  0  0  0  0  0  0  0
   23.2521   21.0175   20.4058 H   0  0  0  0  0  0  0  0  0  0  0  0
   21.7113   20.8896   21.9516 C   0  0  0  0  0  0  0  0  0  0  0  0
   21.5699   21.9793   21.9277 H   0  0  0  0  0  0  0  0  0  0  0  0
   22.4112   20.6889   22.7747 H   0  0  0  0  0  0  0  0  0  0  0  0
   20.3476   20.2198   22.2476 C   0  0  0  0  0  0  0  0  0  0  0  0
   19.9240   20.6931   23.1429 H   0  0  0  0  0  0  0  0  0  0  0  0
   19.6497   20.4320   21.4260 H   0  0  0  0  0  0  0  0  0  0  0  0
   20.4477   18.6885   22.4656 C   0  0  0  0  0  0  0  0  0  0  0  0
   21.1666   18.4727   23.2670 H   0  0  0  0  0  0  0  0  0  0  0  0
   20.8508   18.2158   21.5606 H   0  0  0  0  0  0  0  0  0  0  0  0
   19.0823   18.0258   22.7833 C   0  0  0  0  0  0  0  0  0  0  0  0
   18.4089   18.1784   21.9294 H   0  0  0  0  0  0  0  0  0  0  0  0
   19.2244   16.9405   22.8708 H   0  0  0  0  0  0  0  0  0  0  0  0
   18.3987   18.5548   24.0644 C   0  0  1  0  0  0  0  0  0  0  0  0
   18.2403   19.6313   23.9521 H   0  0  0  0  0  0  0  0  0  0  0  0
   17.0270   17.8875   24.2526 C   0  0  0  0  0  0  0  0  0  0  0  0
   16.5188   18.2878   25.1386 H   0  0  0  0  0  0  0  0  0  0  0  0
   17.1269   16.8020   24.3772 H   0  0  0  0  0  0  0  0  0  0  0  0
   16.3808   18.0740   23.3858 H   0  0  0  0  0  0  0  0  0  0  0  0
   19.2515   18.3680   25.2892 N   0  3  0  0  0  0  0  0  0  0  0  0
   20.1533   18.8418   25.1896 H   0  0  0  0  0  0  0  0  0  0  0  0
   18.7959   18.7460   26.1246 H   0  0  0  0  0  0  0  0  0  0  0  0
   19.4407   17.3777   25.4645 H   0  0  0  0  0  0  0  0  0  0  0  0
  1  2  1  0  0  0  0
  1  3  1  0  0  0  0
  1  4  1  0  0  0  0
  1  5  1  0  0  0  0
  5  6  1  0  0  0  0
  5  7  1  0  0  0  0
  5  8  1  0  0  0  0
  8  9  1  0  0  0  0
  8 10  1  0  0  0  0
  8 11  1  0  0  0  0
 11 12  1  0  0  0  0
 11 13  1  0  0  0  0
 11 14  1  0  0  0  0
 14 15  1  0  0  0  0
 14 16  1  0  0  0  0
 14 17  1  0  0  0  0
 17 18  1  0  0  0  0
 17 19  1  0  0  0  0
 19 20  1  0  0  0  0
 19 21  1  0  0  0  0
 19 22  1  0  0  0  0
 17 23  1  0  0  0  0
 23 24  1  0  0  0  0
 23 25  1  0  0  0  0
 23 26  1  0  0  0  0
M  END
> <VConfSearch Rank>
727

> <Conf_Id>
113

> <Delta U+W>
1.137

> <U+W>
-29.162

> <U>
24.833

> <W>
-53.995

> <W(PB)>
-56.288

> <W(SA)>
2.294

> <Valence>
3.589

> <Coulomb>
20.270

> <VdW>
0.974

> <VdW6>
-8.255

> <VdW12>
9.229

> <Bond>
0.244

> <Angle>
1.377

> <Pdih>
1.967

> <Idih>
0.000

> <Tether>
0.000

$$$$
VeraChem MOL file


 26 25  0  0  0  0  0  0  0  0999 V2000     
   19.6351   15.5049   24.4324 C   0  0  0  0  0  0  0  0  0  0  0  0
   20.4009   14.7317   24.2884 H   0  0  0  0  0  0  0  0  0  0  0  0
   19.6088   15.7586   25.5003 H   0  0  0  0  0  0  0  0  0  0  0  0
   18.6639   15.0718   24.1598 H   0  0  0  0  0  0  0  0  0  0  0  0
   19.9489   16.7492   23.5747 C   0  0  0  0  0  0  0  0  0  0  0  0
   19.9975   16.4586   22.5160 H   0  0  0  0  0  0  0  0  0  0  0  0
   20.9428   17.1277   23.8475 H   0  0  0  0  0  0  0  0  0  0  0  0
   18.8844   17.8556   23.7647 C   0  0  0  0  0  0  0  0  0  0  0  0
   17.8904   17.4320   23.5646 H   0  0  0  0  0  0  0  0  0  0  0  0
   18.8736   18.1831   24.8135 H   0  0  0  0  0  0  0  0  0  0  0  0
   19.0906   19.0802   22.8396 C   0  0  0  0  0  0  0  0  0  0  0  0
   18.2277   19.7480   22.9603 H   0  0  0  0  0  0  0  0  0  0  0  0
   19.0800   18.7451   21.7940 H   0  0  0  0  0  0  0  0  0  0  0  0
   20.3987   19.8631   23.1374 C   0  0  0  0  0  0  0  0  0  0  0  0
   20.4445   20.0963   24.2092 H   0  0  0  0  0  0  0  0  0  0  0  0
   21.2668   19.2258   22.9279 H   0  0  0  0  0  0  0  0  0  0  0  0
   20.5625   21.1800   22.3421 C   0  0  1  0  0  0  0  0  0  0  0  0
   21.5108   21.6303   22.6513 H   0  0  0  0  0  0  0  0  0  0  0  0
   20.6372   20.9329   20.8252 C   0  0  0  0  0  0  0  0  0  0  0  0
   19.6838   20.5662   20.4268 H   0  0  0  0  0  0  0  0  0  0  0  0
   21.4153   20.1968   20.5879 H   0  0  0  0  0  0  0  0  0  0  0  0
   20.8861   21.8616   20.2971 H   0  0  0  0  0  0  0  0  0  0  0  0
   19.4965   22.1885   22.6723 N   0  3  0  0  0  0  0  0  0  0  0  0
   19.4686   22.3908   23.6757 H   0  0  0  0  0  0  0  0  0  0  0  0
   19.6572   23.0753   22.1863 H   0  0  0  0  0  0  0  0  0  0  0  0
   18.5695   21.8532   22.3995 H   0  0  0  0  0  0  0  0  0  0  0  0
  1  2  1  0  0  0  0
  1  3  1  0  0  0  0
  1  4  1  0  0  0  0
  1  5  1  0  0  0  0
  5  6  1  0  0  0  0
  5  7  1  0  0  0  0
  5  8  1  0  0  0  0
  8  9  1  0  0  0  0
  8 10  1  0  0  0  0
  8 11  1  0  0  0  0
 11 12  1  0  0  0  0
 11 13  1  0  0  0  0
 11 14  1  0  0  0  0
 14 15  1  0  0  0  0
 14 16  1  0  0  0  0
 14 17  1  0  0  0  0
 17 18  1  0  0  0  0
 17 19  1  0  0  0  0
 19 20  1  0  0  0  0
 19 21  1  0  0  0  0
 19 22  1  0  0  0  0
 17 23  1  0  0  0  0
 23 24  1  0  0  0  0
 23 25  1  0  0  0  0
 23 26  1  0  0  0  0
M  END
> <VConfSearch Rank>
728

> <Conf_Id>
45

> <Delta U+W>
1.035

> <U+W>
-29.264

> <U>
24.725

> <W>
-53.989

> <W(PB)>
-56.298

> <W(SA)>
2.309

> <Valence>
3.780

> <Coulomb>
19.804

> <VdW>
1.141

> <VdW6>
-8.104

> <VdW12>
9.246

> <Bond>
0.254

> <Angle>
1.437

> <Pdih>
2.089

> <Idih>
0.000

> <Tether>
0.000

$$$$
VeraChem MOL file


 26 25  0  0  0  0  0  0  0  0999 V2000     
   23.1795   21.1254   22.2507 C   0  0  0  0  0  0  0  0  0  0  0  0
   23.2857   21.8957   21.4758 H   0  0  0  0  0  0  0  0  0  0  0  0
   23.6214   21.5162   23.1766 H   0  0  0  0  0  0  0  0  0  0  0  0
   23.7618   20.2492   21.9371 H   0  0  0  0  0  0  0  0  0  0  0  0
   21.6940   20.7595   22.4553 C   0  0  0  0  0  0  0  0  0  0  0  0
   21.2789   20.4136   21.4996 H   0  0  0  0  0  0  0  0  0  0  0  0
   21.1332   21.6608   22.7397 H   0  0  0  0  0  0  0  0  0  0  0  0
   21.5198   19.6710   23.5410 C   0  0  0  0  0  0  0  0  0  0  0  0
   22.0338   18.7511   23.2296 H   0  0  0  0  0  0  0  0  0  0  0  0
   22.0180   20.0049   24.4617 H   0  0  0  0  0  0  0  0  0  0  0  0
   20.0409   19.3531   23.8730 C   0  0  0  0  0  0  0  0  0  0  0  0
   19.5289   20.2736   24.1860 H   0  0  0  0  0  0  0  0  0  0  0  0
   20.0257   18.6808   24.7408 H   0  0  0  0  0  0  0  0  0  0  0  0
   19.2691   18.6994   22.6977 C   0  0  0  0  0  0  0  0  0  0  0  0
   19.2658   19.3838   21.8405 H   0  0  0  0  0  0  0  0  0  0  0  0
   19.7895   17.7891   22.3718 H   0  0  0  0  0  0  0  0  0  0  0  0
   17.8048   18.3605   23.0533 C   0  0  1  0  0  0  0  0  0  0  0  0
   17.3182   19.2740   23.4088 H   0  0  0  0  0  0  0  0  0  0  0  0
   17.0527   17.8675   21.8066 C   0  0  0  0  0  0  0  0  0  0  0  0
   17.5026   16.9492   21.4088 H   0  0  0  0  0  0  0  0  0  0  0  0
   17.0695   18.6269   21.0150 H   0  0  0  0  0  0  0  0  0  0  0  0
   16.0023   17.6584   22.0441 H   0  0  0  0  0  0  0  0  0  0  0  0
   17.6981   17.3517   24.1645 N   0  3  0  0  0  0  0  0  0  0  0  0
   18.1533   17.6852   25.0183 H   0  0  0  0  0  0  0  0  0  0  0  0
   16.7209   17.1532   24.3969 H   0  0  0  0  0  0  0  0  0  0  0  0
   18.1379   16.4644   23.9068 H   0  0  0  0  0  0  0  0  0  0  0  0
  1  2  1  0  0  0  0
  1  3  1  0  0  0  0
  1  4  1  0  0  0  0
  1  5  1  0  0  0  0
  5  6  1  0  0  0  0
  5  7  1  0  0  0  0
  5  8  1  0  0  0  0
  8  9  1  0  0  0  0
  8 10  1  0  0  0  0
  8 11  1  0  0  0  0
 11 12  1  0  0  0  0
 11 13  1  0  0  0  0
 11 14  1  0  0  0  0
 14 15  1  0  0  0  0
 14 16  1  0  0  0  0
 14 17  1  0  0  0  0
 17 18  1  0  0  0  0
 17 19  1  0  0  0  0
 19 20  1  0  0  0  0
 19 21  1  0  0  0  0
 19 22  1  0  0  0  0
 17 23  1  0  0  0  0
 23 24  1  0  0  0  0
 23 25  1  0  0  0  0
 23 26  1  0  0  0  0
M  END
> <VConfSearch Rank>
729

> <Conf_Id>
121

> <Delta U+W>
0.736

> <U+W>
-29.562

> <U>
24.282

> <W>
-53.844

> <W(PB)>
-56.205

> <W(SA)>
2.361

> <Valence>
3.311

> <Coulomb>
19.887

> <VdW>
1.083

> <VdW6>
-7.444

> <VdW12>
8.527

> <Bond>
0.219

> <Angle>
1.167

> <Pdih>
1.926

> <Idih>
0.000

> <Tether>
0.000

$$$$
VeraChem MOL file


 26 25  0  0  0  0  0  0  0  0999 V2000     
   18.1240   16.1330   24.1668 C   0  0  0  0  0  0  0  0  0  0  0  0
   18.0265   15.3091   24.8856 H   0  0  0  0  0  0  0  0  0  0  0  0
   17.1127   16.4510   23.8820 H   0  0  0  0  0  0  0  0  0  0  0  0
   18.6235   15.7341   23.2754 H   0  0  0  0  0  0  0  0  0  0  0  0
   18.9198   17.3024   24.7900 C   0  0  0  0  0  0  0  0  0  0  0  0
   19.9378   16.9684   25.0346 H   0  0  0  0  0  0  0  0  0  0  0  0
   18.4500   17.5794   25.7442 H   0  0  0  0  0  0  0  0  0  0  0  0
   18.9830   18.5575   23.8864 C   0  0  0  0  0  0  0  0  0  0  0  0
   17.9630   18.8919   23.6518 H   0  0  0  0  0  0  0  0  0  0  0  0
   19.4499   19.3672   24.4624 H   0  0  0  0  0  0  0  0  0  0  0  0
   19.7746   18.3321   22.5732 C   0  0  0  0  0  0  0  0  0  0  0  0
   19.2982   17.5329   21.9908 H   0  0  0  0  0  0  0  0  0  0  0  0
   20.7866   17.9747   22.8047 H   0  0  0  0  0  0  0  0  0  0  0  0
   19.8471   19.5965   21.6780 C   0  0  0  0  0  0  0  0  0  0  0  0
   20.3959   19.3509   20.7591 H   0  0  0  0  0  0  0  0  0  0  0  0
   18.8279   19.8563   21.3629 H   0  0  0  0  0  0  0  0  0  0  0  0
   20.4926   20.8375   22.3392 C   0  0  1  0  0  0  0  0  0  0  0  0
   19.9295   21.0788   23.2455 H   0  0  0  0  0  0  0  0  0  0  0  0
   21.9602   20.5878   22.7300 C   0  0  0  0  0  0  0  0  0  0  0  0
   22.5565   20.2854   21.8601 H   0  0  0  0  0  0  0  0  0  0  0  0
   22.0410   19.8037   23.4918 H   0  0  0  0  0  0  0  0  0  0  0  0
   22.4083   21.4964   23.1507 H   0  0  0  0  0  0  0  0  0  0  0  0
   20.3883   22.0428   21.4465 N   0  3  0  0  0  0  0  0  0  0  0  0
   19.4148   22.2529   21.2082 H   0  0  0  0  0  0  0  0  0  0  0  0
   20.7781   22.8762   21.8957 H   0  0  0  0  0  0  0  0  0  0  0  0
   20.8963   21.9037   20.5689 H   0  0  0  0  0  0  0  0  0  0  0  0
  1  2  1  0  0  0  0
  1  3  1  0  0  0  0
  1  4  1  0  0  0  0
  1  5  1  0  0  0  0
  5  6  1  0  0  0  0
  5  7  1  0  0  0  0
  5  8  1  0  0  0  0
  8  9  1  0  0  0  0
  8 10  1  0  0  0  0
  8 11  1  0  0  0  0
 11 12  1  0  0  0  0
 11 13  1  0  0  0  0
 11 14  1  0  0  0  0
 14 15  1  0  0  0  0
 14 16  1  0  0  0  0
 14 17  1  0  0  0  0
 17 18  1  0  0  0  0
 17 19  1  0  0  0  0
 19 20  1  0  0  0  0
 19 21  1  0  0  0  0
 19 22  1  0  0  0  0
 17 23  1  0  0  0  0
 23 24  1  0  0  0  0
 23 25  1  0  0  0  0
 23 26  1  0  0  0  0
M  END
> <VConfSearch Rank>
730

> <Conf_Id>
5

> <Delta U+W>
1.233

> <U+W>
-29.065

> <U>
25.023

> <W>
-54.088

> <W(PB)>
-56.383

> <W(SA)>
2.296

> <Valence>
4.083

> <Coulomb>
19.893

> <VdW>
1.047

> <VdW6>
-8.479

> <VdW12>
9.527

> <Bond>
0.256

> <Angle>
1.716

> <Pdih>
2.112

> <Idih>
0.000

> <Tether>
0.000

$$$$
VeraChem MOL file


 26 25  0  0  0  0  0  0  0  0999 V2000     
   17.0627   18.8387   20.5407 C   0  0  0  0  0  0  0  0  0  0  0  0
   16.2793   18.2768   20.0159 H   0  0  0  0  0  0  0  0  0  0  0  0
   16.5660   19.4982   21.2628 H   0  0  0  0  0  0  0  0  0  0  0  0
   17.5792   19.4642   19.8012 H   0  0  0  0  0  0  0  0  0  0  0  0
   18.0477   17.8712   21.2357 C   0  0  0  0  0  0  0  0  0  0  0  0
   18.4175   17.1516   20.4918 H   0  0  0  0  0  0  0  0  0  0  0  0
   17.5146   17.2815   21.9945 H   0  0  0  0  0  0  0  0  0  0  0  0
   19.2614   18.5826   21.8814 C   0  0  0  0  0  0  0  0  0  0  0  0
   19.9637   17.8097   22.2195 H   0  0  0  0  0  0  0  0  0  0  0  0
   19.7872   19.1744   21.1196 H   0  0  0  0  0  0  0  0  0  0  0  0
   18.8803   19.4880   23.0793 C   0  0  0  0  0  0  0  0  0  0  0  0
   18.3811   18.8840   23.8496 H   0  0  0  0  0  0  0  0  0  0  0  0
   18.1484   20.2384   22.7543 H   0  0  0  0  0  0  0  0  0  0  0  0
   20.0809   20.2364   23.7124 C   0  0  0  0  0  0  0  0  0  0  0  0
   20.5356   20.9101   22.9738 H   0  0  0  0  0  0  0  0  0  0  0  0
   19.6825   20.8891   24.5004 H   0  0  0  0  0  0  0  0  0  0  0  0
   21.1516   19.2987   24.3216 C   0  0  1  0  0  0  0  0  0  0  0  0
   20.7007   18.3115   24.4617 H   0  0  0  0  0  0  0  0  0  0  0  0
   22.3733   19.1566   23.3954 C   0  0  0  0  0  0  0  0  0  0  0  0
   22.8885   20.1174   23.2714 H   0  0  0  0  0  0  0  0  0  0  0  0
   22.0845   18.7991   22.4008 H   0  0  0  0  0  0  0  0  0  0  0  0
   23.0912   18.4384   23.8103 H   0  0  0  0  0  0  0  0  0  0  0  0
   21.5893   19.7562   25.6862 N   0  3  0  0  0  0  0  0  0  0  0  0
   20.7995   19.8129   26.3356 H   0  0  0  0  0  0  0  0  0  0  0  0
   22.2733   19.1129   26.0948 H   0  0  0  0  0  0  0  0  0  0  0  0
   22.0249   20.6816   25.6491 H   0  0  0  0  0  0  0  0  0  0  0  0
  1  2  1  0  0  0  0
  1  3  1  0  0  0  0
  1  4  1  0  0  0  0
  1  5  1  0  0  0  0
  5  6  1  0  0  0  0
  5  7  1  0  0  0  0
  5  8  1  0  0  0  0
  8  9  1  0  0  0  0
  8 10  1  0  0  0  0
  8 11  1  0  0  0  0
 11 12  1  0  0  0  0
 11 13  1  0  0  0  0
 11 14  1  0  0  0  0
 14 15  1  0  0  0  0
 14 16  1  0  0  0  0
 14 17  1  0  0  0  0
 17 18  1  0  0  0  0
 17 19  1  0  0  0  0
 19 20  1  0  0  0  0
 19 21  1  0  0  0  0
 19 22  1  0  0  0  0
 17 23  1  0  0  0  0
 23 24  1  0  0  0  0
 23 25  1  0  0  0  0
 23 26  1  0  0  0  0
M  END
> <VConfSearch Rank>
731

> <Conf_Id>
100

> <Delta U+W>
3.818

> <U+W>
-26.481

> <U>
27.496

> <W>
-53.977

> <W(PB)>
-56.267

> <W(SA)>
2.290

> <Valence>
6.472

> <Coulomb>
19.839

> <VdW>
1.185

> <VdW6>
-8.405

> <VdW12>
9.590

> <Bond>
0.248

> <Angle>
1.619

> <Pdih>
4.604

> <Idih>
0.000

> <Tether>
0.000

$$$$
VeraChem MOL file


 26 25  0  0  0  0  0  0  0  0999 V2000     
   21.7839   17.2410   20.3488 C   0  0  0  0  0  0  0  0  0  0  0  0
   22.6954   17.3509   19.7470 H   0  0  0  0  0  0  0  0  0  0  0  0
   22.0054   16.5498   21.1725 H   0  0  0  0  0  0  0  0  0  0  0  0
   21.0147   16.7816   19.7144 H   0  0  0  0  0  0  0  0  0  0  0  0
   21.3160   18.6108   20.8843 C   0  0  0  0  0  0  0  0  0  0  0  0
   21.1361   19.2903   20.0393 H   0  0  0  0  0  0  0  0  0  0  0  0
   22.1182   19.0596   21.4868 H   0  0  0  0  0  0  0  0  0  0  0  0
   20.0331   18.4846   21.7353 C   0  0  0  0  0  0  0  0  0  0  0  0
   19.2365   18.0347   21.1267 H   0  0  0  0  0  0  0  0  0  0  0  0
   20.2195   17.7941   22.5662 H   0  0  0  0  0  0  0  0  0  0  0  0
   19.5593   19.8596   22.2672 C   0  0  0  0  0  0  0  0  0  0  0  0
   19.3627   20.5083   21.4024 H   0  0  0  0  0  0  0  0  0  0  0  0
   20.3656   20.3466   22.8308 H   0  0  0  0  0  0  0  0  0  0  0  0
   18.2629   19.7815   23.1214 C   0  0  0  0  0  0  0  0  0  0  0  0
   17.6636   20.6792   22.9202 H   0  0  0  0  0  0  0  0  0  0  0  0
   17.6434   18.9400   22.7844 H   0  0  0  0  0  0  0  0  0  0  0  0
   18.4618   19.6916   24.6550 C   0  0  1  0  0  0  0  0  0  0  0  0
   17.4656   19.6331   25.1044 H   0  0  0  0  0  0  0  0  0  0  0  0
   19.2364   18.4358   25.0863 C   0  0  0  0  0  0  0  0  0  0  0  0
   20.2865   18.4848   24.7748 H   0  0  0  0  0  0  0  0  0  0  0  0
   18.7859   17.5323   24.6571 H   0  0  0  0  0  0  0  0  0  0  0  0
   19.2171   18.3304   26.1779 H   0  0  0  0  0  0  0  0  0  0  0  0
   19.0966   20.9324   25.2213 N   0  3  0  0  0  0  0  0  0  0  0  0
   18.5575   21.7707   24.9869 H   0  0  0  0  0  0  0  0  0  0  0  0
   19.1612   20.8866   26.2421 H   0  0  0  0  0  0  0  0  0  0  0  0
   20.0441   21.0647   24.8597 H   0  0  0  0  0  0  0  0  0  0  0  0
  1  2  1  0  0  0  0
  1  3  1  0  0  0  0
  1  4  1  0  0  0  0
  1  5  1  0  0  0  0
  5  6  1  0  0  0  0
  5  7  1  0  0  0  0
  5  8  1  0  0  0  0
  8  9  1  0  0  0  0
  8 10  1  0  0  0  0
  8 11  1  0  0  0  0
 11 12  1  0  0  0  0
 11 13  1  0  0  0  0
 11 14  1  0  0  0  0
 14 15  1  0  0  0  0
 14 16  1  0  0  0  0
 14 17  1  0  0  0  0
 17 18  1  0  0  0  0
 17 19  1  0  0  0  0
 19 20  1  0  0  0  0
 19 21  1  0  0  0  0
 19 22  1  0  0  0  0
 17 23  1  0  0  0  0
 23 24  1  0  0  0  0
 23 25  1  0  0  0  0
 23 26  1  0  0  0  0
M  END
> <VConfSearch Rank>
732

> <Conf_Id>
142

> <Delta U+W>
2.978

> <U+W>
-27.320

> <U>
26.848

> <W>
-54.168

> <W(PB)>
-56.427

> <W(SA)>
2.259

> <Valence>
5.823

> <Coulomb>
20.057

> <VdW>
0.968

> <VdW6>
-8.367

> <VdW12>
9.335

> <Bond>
0.267

> <Angle>
1.799

> <Pdih>
3.758

> <Idih>
0.000

> <Tether>
0.000

$$$$
VeraChem MOL file


 26 25  0  0  0  0  0  0  0  0999 V2000     
   19.4290   22.5486   23.3974 C   0  0  0  0  0  0  0  0  0  0  0  0
   18.3344   22.5155   23.3214 H   0  0  0  0  0  0  0  0  0  0  0  0
   19.7008   23.4763   23.9174 H   0  0  0  0  0  0  0  0  0  0  0  0
   19.8428   22.6078   22.3834 H   0  0  0  0  0  0  0  0  0  0  0  0
   19.9706   21.3211   24.1651 C   0  0  0  0  0  0  0  0  0  0  0  0
   19.6312   21.3830   25.2086 H   0  0  0  0  0  0  0  0  0  0  0  0
   21.0685   21.3580   24.1969 H   0  0  0  0  0  0  0  0  0  0  0  0
   19.5075   19.9671   23.5746 C   0  0  0  0  0  0  0  0  0  0  0  0
   19.8116   19.1808   24.2752 H   0  0  0  0  0  0  0  0  0  0  0  0
   18.4102   19.9453   23.5254 H   0  0  0  0  0  0  0  0  0  0  0  0
   20.1052   19.6677   22.1766 C   0  0  0  0  0  0  0  0  0  0  0  0
   21.2004   19.6269   22.2444 H   0  0  0  0  0  0  0  0  0  0  0  0
   19.8812   20.5042   21.5030 H   0  0  0  0  0  0  0  0  0  0  0  0
   19.5637   18.3757   21.5013 C   0  0  0  0  0  0  0  0  0  0  0  0
   18.4845   18.4813   21.3301 H   0  0  0  0  0  0  0  0  0  0  0  0
   20.0110   18.3119   20.5006 H   0  0  0  0  0  0  0  0  0  0  0  0
   19.8301   17.0258   22.2156 C   0  0  1  0  0  0  0  0  0  0  0  0
   19.5950   16.2371   21.4943 H   0  0  0  0  0  0  0  0  0  0  0  0
   21.3052   16.8527   22.6177 C   0  0  0  0  0  0  0  0  0  0  0  0
   21.5939   17.5526   23.4108 H   0  0  0  0  0  0  0  0  0  0  0  0
   21.9644   17.0172   21.7563 H   0  0  0  0  0  0  0  0  0  0  0  0
   21.4862   15.8354   22.9857 H   0  0  0  0  0  0  0  0  0  0  0  0
   18.9108   16.7801   23.3805 N   0  3  0  0  0  0  0  0  0  0  0  0
   17.9278   16.8238   23.0973 H   0  0  0  0  0  0  0  0  0  0  0  0
   19.0684   15.8556   23.7918 H   0  0  0  0  0  0  0  0  0  0  0  0
   19.0499   17.4732   24.1183 H   0  0  0  0  0  0  0  0  0  0  0  0
  1  2  1  0  0  0  0
  1  3  1  0  0  0  0
  1  4  1  0  0  0  0
  1  5  1  0  0  0  0
  5  6  1  0  0  0  0
  5  7  1  0  0  0  0
  5  8  1  0  0  0  0
  8  9  1  0  0  0  0
  8 10  1  0  0  0  0
  8 11  1  0  0  0  0
 11 12  1  0  0  0  0
 11 13  1  0  0  0  0
 11 14  1  0  0  0  0
 14 15  1  0  0  0  0
 14 16  1  0  0  0  0
 14 17  1  0  0  0  0
 17 18  1  0  0  0  0
 17 19  1  0  0  0  0
 19 20  1  0  0  0  0
 19 21  1  0  0  0  0
 19 22  1  0  0  0  0
 17 23  1  0  0  0  0
 23 24  1  0  0  0  0
 23 25  1  0  0  0  0
 23 26  1  0  0  0  0
M  END
> <VConfSearch Rank>
733

> <Conf_Id>
119

> <Delta U+W>
3.538

> <U+W>
-26.761

> <U>
27.482

> <W>
-54.243

> <W(PB)>
-56.494

> <W(SA)>
2.251

> <Valence>
5.284

> <Coulomb>
21.247

> <VdW>
0.951

> <VdW6>
-9.416

> <VdW12>
10.367

> <Bond>
0.323

> <Angle>
2.522

> <Pdih>
2.439

> <Idih>
0.000

> <Tether>
0.000

$$$$
VeraChem MOL file


 26 25  0  0  0  0  0  0  0  0999 V2000     
   17.6488   17.0007   21.1490 C   0  0  0  0  0  0  0  0  0  0  0  0
   17.2591   16.3327   21.9281 H   0  0  0  0  0  0  0  0  0  0  0  0
   17.1267   17.9624   21.2271 H   0  0  0  0  0  0  0  0  0  0  0  0
   17.3928   16.5650   20.1746 H   0  0  0  0  0  0  0  0  0  0  0  0
   19.1792   17.1730   21.2789 C   0  0  0  0  0  0  0  0  0  0  0  0
   19.5391   17.8692   20.5086 H   0  0  0  0  0  0  0  0  0  0  0  0
   19.6628   16.2083   21.0711 H   0  0  0  0  0  0  0  0  0  0  0  0
   19.6282   17.6624   22.6770 C   0  0  0  0  0  0  0  0  0  0  0  0
   19.2883   16.9480   23.4394 H   0  0  0  0  0  0  0  0  0  0  0  0
   20.7239   17.6437   22.7114 H   0  0  0  0  0  0  0  0  0  0  0  0
   19.1099   19.0807   23.0284 C   0  0  0  0  0  0  0  0  0  0  0  0
   18.0152   19.0410   23.1028 H   0  0  0  0  0  0  0  0  0  0  0  0
   19.3321   19.7785   22.2110 H   0  0  0  0  0  0  0  0  0  0  0  0
   19.6613   19.6221   24.3771 C   0  0  0  0  0  0  0  0  0  0  0  0
   18.8648   20.1945   24.8706 H   0  0  0  0  0  0  0  0  0  0  0  0
   19.8778   18.7860   25.0551 H   0  0  0  0  0  0  0  0  0  0  0  0
   20.9034   20.5429   24.2826 C   0  0  1  0  0  0  0  0  0  0  0  0
   21.1704   20.8283   25.3048 H   0  0  0  0  0  0  0  0  0  0  0  0
   22.1238   19.8400   23.6662 C   0  0  0  0  0  0  0  0  0  0  0  0
   21.9672   19.6210   22.6032 H   0  0  0  0  0  0  0  0  0  0  0  0
   22.3375   18.8996   24.1890 H   0  0  0  0  0  0  0  0  0  0  0  0
   23.0140   20.4754   23.7487 H   0  0  0  0  0  0  0  0  0  0  0  0
   20.6057   21.8289   23.5607 N   0  3  0  0  0  0  0  0  0  0  0  0
   19.8287   22.3333   23.9970 H   0  0  0  0  0  0  0  0  0  0  0  0
   21.4158   22.4550   23.5629 H   0  0  0  0  0  0  0  0  0  0  0  0
   20.3524   21.6583   22.5846 H   0  0  0  0  0  0  0  0  0  0  0  0
  1  2  1  0  0  0  0
  1  3  1  0  0  0  0
  1  4  1  0  0  0  0
  1  5  1  0  0  0  0
  5  6  1  0  0  0  0
  5  7  1  0  0  0  0
  5  8  1  0  0  0  0
  8  9  1  0  0  0  0
  8 10  1  0  0  0  0
  8 11  1  0  0  0  0
 11 12  1  0  0  0  0
 11 13  1  0  0  0  0
 11 14  1  0  0  0  0
 14 15  1  0  0  0  0
 14 16  1  0  0  0  0
 14 17  1  0  0  0  0
 17 18  1  0  0  0  0
 17 19  1  0  0  0  0
 19 20  1  0  0  0  0
 19 21  1  0  0  0  0
 19 22  1  0  0  0  0
 17 23  1  0  0  0  0
 23 24  1  0  0  0  0
 23 25  1  0  0  0  0
 23 26  1  0  0  0  0
M  END
> <VConfSearch Rank>
734

> <Conf_Id>
127

> <Delta U+W>
3.544

> <U+W>
-26.754

> <U>
27.509

> <W>
-54.263

> <W(PB)>
-56.496

> <W(SA)>
2.232

> <Valence>
6.375

> <Coulomb>
20.014

> <VdW>
1.120

> <VdW6>
-8.976

> <VdW12>
10.096

> <Bond>
0.304

> <Angle>
1.986

> <Pdih>
4.086

> <Idih>
0.000

> <Tether>
0.000

$$$$
VeraChem MOL file


 26 25  0  0  0  0  0  0  0  0999 V2000     
   20.9232   21.2020   20.7428 C   0  0  0  0  0  0  0  0  0  0  0  0
   21.5452   22.1059   20.7126 H   0  0  0  0  0  0  0  0  0  0  0  0
   20.5615   21.0129   19.7237 H   0  0  0  0  0  0  0  0  0  0  0  0
   20.0541   21.4180   21.3738 H   0  0  0  0  0  0  0  0  0  0  0  0
   21.7415   19.9998   21.2691 C   0  0  0  0  0  0  0  0  0  0  0  0
   22.1622   20.2273   22.2585 H   0  0  0  0  0  0  0  0  0  0  0  0
   22.6024   19.8583   20.6007 H   0  0  0  0  0  0  0  0  0  0  0  0
   20.9316   18.6785   21.3176 C   0  0  0  0  0  0  0  0  0  0  0  0
   20.1505   18.6825   20.5449 H   0  0  0  0  0  0  0  0  0  0  0  0
   21.6071   17.8542   21.0497 H   0  0  0  0  0  0  0  0  0  0  0  0
   20.3129   18.3430   22.6994 C   0  0  0  0  0  0  0  0  0  0  0  0
   21.1200   18.2382   23.4366 H   0  0  0  0  0  0  0  0  0  0  0  0
   19.8380   17.3569   22.6210 H   0  0  0  0  0  0  0  0  0  0  0  0
   19.2760   19.3836   23.2001 C   0  0  0  0  0  0  0  0  0  0  0  0
   19.7810   20.3421   23.3695 H   0  0  0  0  0  0  0  0  0  0  0  0
   18.5287   19.5620   22.4158 H   0  0  0  0  0  0  0  0  0  0  0  0
   18.5453   18.9986   24.5084 C   0  0  1  0  0  0  0  0  0  0  0  0
   17.9098   19.8456   24.7853 H   0  0  0  0  0  0  0  0  0  0  0  0
   17.6295   17.7755   24.3249 C   0  0  0  0  0  0  0  0  0  0  0  0
   16.9451   17.9237   23.4804 H   0  0  0  0  0  0  0  0  0  0  0  0
   17.0194   17.6163   25.2224 H   0  0  0  0  0  0  0  0  0  0  0  0
   18.2039   16.8592   24.1454 H   0  0  0  0  0  0  0  0  0  0  0  0
   19.4934   18.7954   25.6582 N   0  3  0  0  0  0  0  0  0  0  0  0
   20.0735   19.6239   25.8175 H   0  0  0  0  0  0  0  0  0  0  0  0
   18.9901   18.6023   26.5286 H   0  0  0  0  0  0  0  0  0  0  0  0
   20.1221   18.0072   25.4857 H   0  0  0  0  0  0  0  0  0  0  0  0
  1  2  1  0  0  0  0
  1  3  1  0  0  0  0
  1  4  1  0  0  0  0
  1  5  1  0  0  0  0
  5  6  1  0  0  0  0
  5  7  1  0  0  0  0
  5  8  1  0  0  0  0
  8  9  1  0  0  0  0
  8 10  1  0  0  0  0
  8 11  1  0  0  0  0
 11 12  1  0  0  0  0
 11 13  1  0  0  0  0
 11 14  1  0  0  0  0
 14 15  1  0  0  0  0
 14 16  1  0  0  0  0
 14 17  1  0  0  0  0
 17 18  1  0  0  0  0
 17 19  1  0  0  0  0
 19 20  1  0  0  0  0
 19 21  1  0  0  0  0
 19 22  1  0  0  0  0
 17 23  1  0  0  0  0
 23 24  1  0  0  0  0
 23 25  1  0  0  0  0
 23 26  1  0  0  0  0
M  END
> <VConfSearch Rank>
735

> <Conf_Id>
131

> <Delta U+W>
3.589

> <U+W>
-26.710

> <U>
27.573

> <W>
-54.283

> <W(PB)>
-56.537

> <W(SA)>
2.254

> <Valence>
6.363

> <Coulomb>
20.026

> <VdW>
1.184

> <VdW6>
-8.939

> <VdW12>
10.123

> <Bond>
0.298

> <Angle>
2.018

> <Pdih>
4.047

> <Idih>
0.000

> <Tether>
0.000

$$$$
VeraChem MOL file


 26 25  0  0  0  0  0  0  0  0999 V2000     
   22.2244   19.8474   21.8168 C   0  0  0  0  0  0  0  0  0  0  0  0
   22.0274   20.8333   22.2572 H   0  0  0  0  0  0  0  0  0  0  0  0
   22.0775   19.0823   22.5889 H   0  0  0  0  0  0  0  0  0  0  0  0
   23.2815   19.8160   21.5226 H   0  0  0  0  0  0  0  0  0  0  0  0
   21.3168   19.5912   20.5941 C   0  0  0  0  0  0  0  0  0  0  0  0
   21.4863   18.5710   20.2223 H   0  0  0  0  0  0  0  0  0  0  0  0
   21.6221   20.2652   19.7815 H   0  0  0  0  0  0  0  0  0  0  0  0
   19.8049   19.8014   20.8641 C   0  0  0  0  0  0  0  0  0  0  0  0
   19.6114   20.8502   21.1282 H   0  0  0  0  0  0  0  0  0  0  0  0
   19.2743   19.6330   19.9167 H   0  0  0  0  0  0  0  0  0  0  0  0
   19.1980   18.8539   21.9320 C   0  0  0  0  0  0  0  0  0  0  0  0
   19.7448   17.9023   21.9298 H   0  0  0  0  0  0  0  0  0  0  0  0
   18.1670   18.6142   21.6371 H   0  0  0  0  0  0  0  0  0  0  0  0
   19.1596   19.4731   23.3543 C   0  0  0  0  0  0  0  0  0  0  0  0
   20.1714   19.7099   23.7016 H   0  0  0  0  0  0  0  0  0  0  0  0
   18.6225   20.4292   23.3003 H   0  0  0  0  0  0  0  0  0  0  0  0
   18.4558   18.5786   24.4001 C   0  0  1  0  0  0  0  0  0  0  0  0
   17.4685   18.3087   24.0128 H   0  0  0  0  0  0  0  0  0  0  0  0
   19.2423   17.2847   24.6777 C   0  0  0  0  0  0  0  0  0  0  0  0
   20.2643   17.5051   25.0104 H   0  0  0  0  0  0  0  0  0  0  0  0
   19.3006   16.6527   23.7843 H   0  0  0  0  0  0  0  0  0  0  0  0
   18.7501   16.6940   25.4601 H   0  0  0  0  0  0  0  0  0  0  0  0
   18.2178   19.3268   25.6825 N   0  3  0  0  0  0  0  0  0  0  0  0
   19.0984   19.6167   26.1161 H   0  0  0  0  0  0  0  0  0  0  0  0
   17.6580   20.1704   25.5289 H   0  0  0  0  0  0  0  0  0  0  0  0
   17.7171   18.7501   26.3645 H   0  0  0  0  0  0  0  0  0  0  0  0
  1  2  1  0  0  0  0
  1  3  1  0  0  0  0
  1  4  1  0  0  0  0
  1  5  1  0  0  0  0
  5  6  1  0  0  0  0
  5  7  1  0  0  0  0
  5  8  1  0  0  0  0
  8  9  1  0  0  0  0
  8 10  1  0  0  0  0
  8 11  1  0  0  0  0
 11 12  1  0  0  0  0
 11 13  1  0  0  0  0
 11 14  1  0  0  0  0
 14 15  1  0  0  0  0
 14 16  1  0  0  0  0
 14 17  1  0  0  0  0
 17 18  1  0  0  0  0
 17 19  1  0  0  0  0
 19 20  1  0  0  0  0
 19 21  1  0  0  0  0
 19 22  1  0  0  0  0
 17 23  1  0  0  0  0
 23 24  1  0  0  0  0
 23 25  1  0  0  0  0
 23 26  1  0  0  0  0
M  END
> <VConfSearch Rank>
736

> <Conf_Id>
80

> <Delta U+W>
3.351

> <U+W>
-26.948

> <U>
27.261

> <W>
-54.209

> <W(PB)>
-56.471

> <W(SA)>
2.263

> <Valence>
6.230

> <Coulomb>
19.945

> <VdW>
1.087

> <VdW6>
-8.618

> <VdW12>
9.704

> <Bond>
0.277

> <Angle>
1.928

> <Pdih>
4.025

> <Idih>
0.000

> <Tether>
0.000

$$$$
VeraChem MOL file


 26 25  0  0  0  0  0  0  0  0999 V2000     
   16.6127   19.7428   23.0945 C   0  0  0  0  0  0  0  0  0  0  0  0
   15.9335   20.1752   23.8406 H   0  0  0  0  0  0  0  0  0  0  0  0
   16.0899   19.7335   22.1293 H   0  0  0  0  0  0  0  0  0  0  0  0
   16.8098   18.7049   23.3906 H   0  0  0  0  0  0  0  0  0  0  0  0
   17.9188   20.5645   23.0113 C   0  0  0  0  0  0  0  0  0  0  0  0
   18.4356   20.5363   23.9793 H   0  0  0  0  0  0  0  0  0  0  0  0
   17.6607   21.6196   22.8442 H   0  0  0  0  0  0  0  0  0  0  0  0
   18.8703   20.1076   21.8749 C   0  0  0  0  0  0  0  0  0  0  0  0
   18.3760   20.2998   20.9127 H   0  0  0  0  0  0  0  0  0  0  0  0
   19.7559   20.7531   21.8813 H   0  0  0  0  0  0  0  0  0  0  0  0
   19.2949   18.6121   21.9107 C   0  0  0  0  0  0  0  0  0  0  0  0
   19.8995   18.3850   21.0219 H   0  0  0  0  0  0  0  0  0  0  0  0
   18.3935   17.9942   21.8050 H   0  0  0  0  0  0  0  0  0  0  0  0
   20.0612   18.1551   23.1838 C   0  0  0  0  0  0  0  0  0  0  0  0
   19.7256   18.7098   24.0671 H   0  0  0  0  0  0  0  0  0  0  0  0
   19.7851   17.1097   23.3742 H   0  0  0  0  0  0  0  0  0  0  0  0
   21.6047   18.2078   23.0789 C   0  0  1  0  0  0  0  0  0  0  0  0
   21.9099   17.5910   22.2280 H   0  0  0  0  0  0  0  0  0  0  0  0
   22.1437   19.6305   22.8566 C   0  0  0  0  0  0  0  0  0  0  0  0
   21.8729   19.9999   21.8613 H   0  0  0  0  0  0  0  0  0  0  0  0
   23.2390   19.6437   22.9149 H   0  0  0  0  0  0  0  0  0  0  0  0
   21.7534   20.3271   23.6089 H   0  0  0  0  0  0  0  0  0  0  0  0
   22.2455   17.5951   24.2935 N   0  3  0  0  0  0  0  0  0  0  0  0
   21.9383   16.6287   24.4356 H   0  0  0  0  0  0  0  0  0  0  0  0
   23.2660   17.5805   24.2107 H   0  0  0  0  0  0  0  0  0  0  0  0
   22.0158   18.1190   25.1422 H   0  0  0  0  0  0  0  0  0  0  0  0
  1  2  1  0  0  0  0
  1  3  1  0  0  0  0
  1  4  1  0  0  0  0
  1  5  1  0  0  0  0
  5  6  1  0  0  0  0
  5  7  1  0  0  0  0
  5  8  1  0  0  0  0
  8  9  1  0  0  0  0
  8 10  1  0  0  0  0
  8 11  1  0  0  0  0
 11 12  1  0  0  0  0
 11 13  1  0  0  0  0
 11 14  1  0  0  0  0
 14 15  1  0  0  0  0
 14 16  1  0  0  0  0
 14 17  1  0  0  0  0
 17 18  1  0  0  0  0
 17 19  1  0  0  0  0
 19 20  1  0  0  0  0
 19 21  1  0  0  0  0
 19 22  1  0  0  0  0
 17 23  1  0  0  0  0
 23 24  1  0  0  0  0
 23 25  1  0  0  0  0
 23 26  1  0  0  0  0
M  END
> <VConfSearch Rank>
737

> <Conf_Id>
136

> <Delta U+W>
4.272

> <U+W>
-26.026

> <U>
28.262

> <W>
-54.288

> <W(PB)>
-56.488

> <W(SA)>
2.200

> <Valence>
7.096

> <Coulomb>
19.990

> <VdW>
1.175

> <VdW6>
-9.404

> <VdW12>
10.580

> <Bond>
0.360

> <Angle>
2.785

> <Pdih>
3.951

> <Idih>
0.000

> <Tether>
0.000

$$$$
VeraChem MOL file


 26 25  0  0  0  0  0  0  0  0999 V2000     
   22.5119   19.9086   22.0177 C   0  0  0  0  0  0  0  0  0  0  0  0
   21.9287   20.5232   22.7144 H   0  0  0  0  0  0  0  0  0  0  0  0
   23.5108   20.3574   21.9423 H   0  0  0  0  0  0  0  0  0  0  0  0
   22.0441   19.9626   21.0262 H   0  0  0  0  0  0  0  0  0  0  0  0
   22.6129   18.4475   22.5074 C   0  0  0  0  0  0  0  0  0  0  0  0
   23.0325   18.4320   23.5230 H   0  0  0  0  0  0  0  0  0  0  0  0
   23.3331   17.9124   21.8729 H   0  0  0  0  0  0  0  0  0  0  0  0
   21.2703   17.6728   22.4885 C   0  0  0  0  0  0  0  0  0  0  0  0
   20.8932   17.5951   21.4594 H   0  0  0  0  0  0  0  0  0  0  0  0
   21.4799   16.6416   22.8052 H   0  0  0  0  0  0  0  0  0  0  0  0
   20.1753   18.2520   23.4217 C   0  0  0  0  0  0  0  0  0  0  0  0
   20.6414   18.7677   24.2727 H   0  0  0  0  0  0  0  0  0  0  0  0
   19.6095   17.4119   23.8461 H   0  0  0  0  0  0  0  0  0  0  0  0
   19.1858   19.1981   22.6928 C   0  0  0  0  0  0  0  0  0  0  0  0
   19.7421   19.9861   22.1728 H   0  0  0  0  0  0  0  0  0  0  0  0
   18.6467   18.6391   21.9165 H   0  0  0  0  0  0  0  0  0  0  0  0
   18.1722   19.8605   23.6509 C   0  0  1  0  0  0  0  0  0  0  0  0
   18.7315   20.3899   24.4283 H   0  0  0  0  0  0  0  0  0  0  0  0
   17.3117   20.8849   22.8939 C   0  0  0  0  0  0  0  0  0  0  0  0
   16.7271   20.4031   22.1001 H   0  0  0  0  0  0  0  0  0  0  0  0
   17.9399   21.6581   22.4343 H   0  0  0  0  0  0  0  0  0  0  0  0
   16.6140   21.3857   23.5762 H   0  0  0  0  0  0  0  0  0  0  0  0
   17.3002   18.8555   24.3531 N   0  3  0  0  0  0  0  0  0  0  0  0
   16.7432   18.3142   23.6868 H   0  0  0  0  0  0  0  0  0  0  0  0
   17.8578   18.1932   24.8989 H   0  0  0  0  0  0  0  0  0  0  0  0
   16.6487   19.3113   24.9982 H   0  0  0  0  0  0  0  0  0  0  0  0
  1  2  1  0  0  0  0
  1  3  1  0  0  0  0
  1  4  1  0  0  0  0
  1  5  1  0  0  0  0
  5  6  1  0  0  0  0
  5  7  1  0  0  0  0
  5  8  1  0  0  0  0
  8  9  1  0  0  0  0
  8 10  1  0  0  0  0
  8 11  1  0  0  0  0
 11 12  1  0  0  0  0
 11 13  1  0  0  0  0
 11 14  1  0  0  0  0
 14 15  1  0  0  0  0
 14 16  1  0  0  0  0
 14 17  1  0  0  0  0
 17 18  1  0  0  0  0
 17 19  1  0  0  0  0
 19 20  1  0  0  0  0
 19 21  1  0  0  0  0
 19 22  1  0  0  0  0
 17 23  1  0  0  0  0
 23 24  1  0  0  0  0
 23 25  1  0  0  0  0
 23 26  1  0  0  0  0
M  END
> <VConfSearch Rank>
738

> <Conf_Id>
124

> <Delta U+W>
3.001

> <U+W>
-27.298

> <U>
26.787

> <W>
-54.085

> <W(PB)>
-56.347

> <W(SA)>
2.262

> <Valence>
5.742

> <Coulomb>
20.023

> <VdW>
1.022

> <VdW6>
-8.392

> <VdW12>
9.414

> <Bond>
0.261

> <Angle>
1.576

> <Pdih>
3.904

> <Idih>
0.000

> <Tether>
0.000

$$$$
VeraChem MOL file


 26 25  0  0  0  0  0  0  0  0999 V2000     
   19.7592   16.6180   24.8930 C   0  0  0  0  0  0  0  0  0  0  0  0
   19.0839   16.7241   25.7520 H   0  0  0  0  0  0  0  0  0  0  0  0
   20.2642   15.6477   24.9850 H   0  0  0  0  0  0  0  0  0  0  0  0
   20.5246   17.3981   24.9675 H   0  0  0  0  0  0  0  0  0  0  0  0
   18.9752   16.6950   23.5622 C   0  0  0  0  0  0  0  0  0  0  0  0
   18.2521   15.8674   23.5480 H   0  0  0  0  0  0  0  0  0  0  0  0
   19.6487   16.5218   22.7113 H   0  0  0  0  0  0  0  0  0  0  0  0
   18.2033   18.0270   23.3768 C   0  0  0  0  0  0  0  0  0  0  0  0
   17.2636   17.8060   22.8518 H   0  0  0  0  0  0  0  0  0  0  0  0
   17.9069   18.4341   24.3533 H   0  0  0  0  0  0  0  0  0  0  0  0
   18.9535   19.1058   22.5535 C   0  0  0  0  0  0  0  0  0  0  0  0
   18.2772   19.9603   22.4215 H   0  0  0  0  0  0  0  0  0  0  0  0
   19.1512   18.7119   21.5477 H   0  0  0  0  0  0  0  0  0  0  0  0
   20.2794   19.5889   23.1987 C   0  0  0  0  0  0  0  0  0  0  0  0
   20.1002   19.8405   24.2522 H   0  0  0  0  0  0  0  0  0  0  0  0
   21.0050   18.7662   23.1959 H   0  0  0  0  0  0  0  0  0  0  0  0
   20.9325   20.8084   22.5062 C   0  0  1  0  0  0  0  0  0  0  0  0
   21.8517   21.0391   23.0537 H   0  0  0  0  0  0  0  0  0  0  0  0
   21.3220   20.5046   21.0490 C   0  0  0  0  0  0  0  0  0  0  0  0
   20.4389   20.3515   20.4172 H   0  0  0  0  0  0  0  0  0  0  0  0
   21.9462   19.6042   20.9919 H   0  0  0  0  0  0  0  0  0  0  0  0
   21.8979   21.3359   20.6243 H   0  0  0  0  0  0  0  0  0  0  0  0
   20.0784   22.0437   22.5899 N   0  3  0  0  0  0  0  0  0  0  0  0
   20.5532   22.8550   22.1839 H   0  0  0  0  0  0  0  0  0  0  0  0
   19.1964   21.9213   22.0867 H   0  0  0  0  0  0  0  0  0  0  0  0
   19.8500   22.2774   23.5603 H   0  0  0  0  0  0  0  0  0  0  0  0
  1  2  1  0  0  0  0
  1  3  1  0  0  0  0
  1  4  1  0  0  0  0
  1  5  1  0  0  0  0
  5  6  1  0  0  0  0
  5  7  1  0  0  0  0
  5  8  1  0  0  0  0
  8  9  1  0  0  0  0
  8 10  1  0  0  0  0
  8 11  1  0  0  0  0
 11 12  1  0  0  0  0
 11 13  1  0  0  0  0
 11 14  1  0  0  0  0
 14 15  1  0  0  0  0
 14 16  1  0  0  0  0
 14 17  1  0  0  0  0
 17 18  1  0  0  0  0
 17 19  1  0  0  0  0
 19 20  1  0  0  0  0
 19 21  1  0  0  0  0
 19 22  1  0  0  0  0
 17 23  1  0  0  0  0
 23 24  1  0  0  0  0
 23 25  1  0  0  0  0
 23 26  1  0  0  0  0
M  END
> <VConfSearch Rank>
739

> <Conf_Id>
105

> <Delta U+W>
3.442

> <U+W>
-26.857

> <U>
27.313

> <W>
-54.169

> <W(PB)>
-56.414

> <W(SA)>
2.245

> <Valence>
6.229

> <Coulomb>
19.943

> <VdW>
1.140

> <VdW6>
-9.001

> <VdW12>
10.140

> <Bond>
0.294

> <Angle>
1.969

> <Pdih>
3.967

> <Idih>
0.000

> <Tether>
0.000

$$$$
VeraChem MOL file


 26 25  0  0  0  0  0  0  0  0999 V2000     
   19.5093   18.9585   19.9171 C   0  0  0  0  0  0  0  0  0  0  0  0
   20.3799   18.5871   19.3610 H   0  0  0  0  0  0  0  0  0  0  0  0
   18.7819   19.3321   19.1848 H   0  0  0  0  0  0  0  0  0  0  0  0
   19.8350   19.8102   20.5240 H   0  0  0  0  0  0  0  0  0  0  0  0
   18.8828   17.8351   20.7759 C   0  0  0  0  0  0  0  0  0  0  0  0
   18.5511   17.0368   20.0972 H   0  0  0  0  0  0  0  0  0  0  0  0
   17.9764   18.1994   21.2791 H   0  0  0  0  0  0  0  0  0  0  0  0
   19.8656   17.2262   21.8091 C   0  0  0  0  0  0  0  0  0  0  0  0
   19.6387   16.1554   21.9054 H   0  0  0  0  0  0  0  0  0  0  0  0
   20.8956   17.2765   21.4298 H   0  0  0  0  0  0  0  0  0  0  0  0
   19.7871   17.8477   23.2275 C   0  0  0  0  0  0  0  0  0  0  0  0
   20.4678   17.2893   23.8851 H   0  0  0  0  0  0  0  0  0  0  0  0
   18.7765   17.6953   23.6294 H   0  0  0  0  0  0  0  0  0  0  0  0
   20.1546   19.3509   23.2849 C   0  0  0  0  0  0  0  0  0  0  0  0
   21.1004   19.5076   22.7494 H   0  0  0  0  0  0  0  0  0  0  0  0
   19.3897   19.9418   22.7659 H   0  0  0  0  0  0  0  0  0  0  0  0
   20.3061   19.8761   24.7288 C   0  0  1  0  0  0  0  0  0  0  0  0
   21.0588   19.2664   25.2381 H   0  0  0  0  0  0  0  0  0  0  0  0
   20.7924   21.3342   24.7189 C   0  0  0  0  0  0  0  0  0  0  0  0
   20.0690   21.9908   24.2195 H   0  0  0  0  0  0  0  0  0  0  0  0
   21.7520   21.4215   24.1941 H   0  0  0  0  0  0  0  0  0  0  0  0
   20.9383   21.7018   25.7420 H   0  0  0  0  0  0  0  0  0  0  0  0
   19.0352   19.7480   25.5236 N   0  3  0  0  0  0  0  0  0  0  0  0
   18.7225   18.7747   25.5739 H   0  0  0  0  0  0  0  0  0  0  0  0
   19.1596   20.0795   26.4843 H   0  0  0  0  0  0  0  0  0  0  0  0
   18.2772   20.2945   25.1065 H   0  0  0  0  0  0  0  0  0  0  0  0
  1  2  1  0  0  0  0
  1  3  1  0  0  0  0
  1  4  1  0  0  0  0
  1  5  1  0  0  0  0
  5  6  1  0  0  0  0
  5  7  1  0  0  0  0
  5  8  1  0  0  0  0
  8  9  1  0  0  0  0
  8 10  1  0  0  0  0
  8 11  1  0  0  0  0
 11 12  1  0  0  0  0
 11 13  1  0  0  0  0
 11 14  1  0  0  0  0
 14 15  1  0  0  0  0
 14 16  1  0  0  0  0
 14 17  1  0  0  0  0
 17 18  1  0  0  0  0
 17 19  1  0  0  0  0
 19 20  1  0  0  0  0
 19 21  1  0  0  0  0
 19 22  1  0  0  0  0
 17 23  1  0  0  0  0
 23 24  1  0  0  0  0
 23 25  1  0  0  0  0
 23 26  1  0  0  0  0
M  END
> <VConfSearch Rank>
740

> <Conf_Id>
107

> <Delta U+W>
2.995

> <U+W>
-27.304

> <U>
26.796

> <W>
-54.100

> <W(PB)>
-56.404

> <W(SA)>
2.304

> <Valence>
5.706

> <Coulomb>
20.107

> <VdW>
0.982

> <VdW6>
-8.396

> <VdW12>
9.378

> <Bond>
0.254

> <Angle>
1.644

> <Pdih>
3.808

> <Idih>
0.000

> <Tether>
0.000

$$$$
VeraChem MOL file


 26 25  0  0  0  0  0  0  0  0999 V2000     
   23.3761   19.8738   20.8466 C   0  0  0  0  0  0  0  0  0  0  0  0
   23.7397   20.7036   21.4667 H   0  0  0  0  0  0  0  0  0  0  0  0
   24.2487   19.3076   20.4961 H   0  0  0  0  0  0  0  0  0  0  0  0
   22.8745   20.2985   19.9672 H   0  0  0  0  0  0  0  0  0  0  0  0
   22.4197   18.9625   21.6446 C   0  0  0  0  0  0  0  0  0  0  0  0
   22.9586   18.5264   22.4974 H   0  0  0  0  0  0  0  0  0  0  0  0
   22.1002   18.1244   21.0094 H   0  0  0  0  0  0  0  0  0  0  0  0
   21.1815   19.7356   22.1501 C   0  0  0  0  0  0  0  0  0  0  0  0
   21.5067   20.5741   22.7816 H   0  0  0  0  0  0  0  0  0  0  0  0
   20.6472   20.1711   21.2943 H   0  0  0  0  0  0  0  0  0  0  0  0
   20.2216   18.8265   22.9505 C   0  0  0  0  0  0  0  0  0  0  0  0
   20.7563   18.3946   23.8079 H   0  0  0  0  0  0  0  0  0  0  0  0
   19.9069   17.9882   22.3148 H   0  0  0  0  0  0  0  0  0  0  0  0
   18.9813   19.6039   23.4544 C   0  0  0  0  0  0  0  0  0  0  0  0
   19.3189   20.4683   24.0417 H   0  0  0  0  0  0  0  0  0  0  0  0
   18.4216   20.0054   22.5991 H   0  0  0  0  0  0  0  0  0  0  0  0
   18.0449   18.7430   24.3299 C   0  0  1  0  0  0  0  0  0  0  0  0
   18.6302   18.3359   25.1602 H   0  0  0  0  0  0  0  0  0  0  0  0
   16.9155   19.6068   24.9139 C   0  0  0  0  0  0  0  0  0  0  0  0
   16.2948   20.0393   24.1192 H   0  0  0  0  0  0  0  0  0  0  0  0
   17.3243   20.4294   25.5140 H   0  0  0  0  0  0  0  0  0  0  0  0
   16.2675   19.0093   25.5668 H   0  0  0  0  0  0  0  0  0  0  0  0
   17.4769   17.5671   23.5829 N   0  3  0  0  0  0  0  0  0  0  0  0
   16.9143   17.8692   22.7832 H   0  0  0  0  0  0  0  0  0  0  0  0
   18.2173   16.9570   23.2265 H   0  0  0  0  0  0  0  0  0  0  0  0
   16.8743   16.9977   24.1838 H   0  0  0  0  0  0  0  0  0  0  0  0
  1  2  1  0  0  0  0
  1  3  1  0  0  0  0
  1  4  1  0  0  0  0
  1  5  1  0  0  0  0
  5  6  1  0  0  0  0
  5  7  1  0  0  0  0
  5  8  1  0  0  0  0
  8  9  1  0  0  0  0
  8 10  1  0  0  0  0
  8 11  1  0  0  0  0
 11 12  1  0  0  0  0
 11 13  1  0  0  0  0
 11 14  1  0  0  0  0
 14 15  1  0  0  0  0
 14 16  1  0  0  0  0
 14 17  1  0  0  0  0
 17 18  1  0  0  0  0
 17 19  1  0  0  0  0
 19 20  1  0  0  0  0
 19 21  1  0  0  0  0
 19 22  1  0  0  0  0
 17 23  1  0  0  0  0
 23 24  1  0  0  0  0
 23 25  1  0  0  0  0
 23 26  1  0  0  0  0
M  END
> <VConfSearch Rank>
741

> <Conf_Id>
122

> <Delta U+W>
0.000

> <U+W>
-30.299

> <U>
23.517

> <W>
-53.816

> <W(PB)>
-56.162

> <W(SA)>
2.346

> <Valence>
2.737

> <Coulomb>
19.862

> <VdW>
0.919

> <VdW6>
-6.793

> <VdW12>
7.712

> <Bond>
0.171

> <Angle>
0.873

> <Pdih>
1.693

> <Idih>
0.000

> <Tether>
0.000

$$$$
VeraChem MOL file


 26 25  0  0  0  0  0  0  0  0999 V2000     
   18.8333   16.6161   26.1556 C   0  0  0  0  0  0  0  0  0  0  0  0
   18.2276   15.7168   26.3278 H   0  0  0  0  0  0  0  0  0  0  0  0
   19.8589   16.3991   26.4816 H   0  0  0  0  0  0  0  0  0  0  0  0
   18.4347   17.4176   26.7912 H   0  0  0  0  0  0  0  0  0  0  0  0
   18.7982   17.0198   24.6663 C   0  0  0  0  0  0  0  0  0  0  0  0
   17.7573   17.1970   24.3612 H   0  0  0  0  0  0  0  0  0  0  0  0
   19.1705   16.1865   24.0539 H   0  0  0  0  0  0  0  0  0  0  0  0
   19.6437   18.2841   24.3963 C   0  0  0  0  0  0  0  0  0  0  0  0
   19.2690   19.1136   25.0119 H   0  0  0  0  0  0  0  0  0  0  0  0
   20.6822   18.1023   24.7061 H   0  0  0  0  0  0  0  0  0  0  0  0
   19.6114   18.6914   22.9056 C   0  0  0  0  0  0  0  0  0  0  0  0
   18.5694   18.8620   22.6049 H   0  0  0  0  0  0  0  0  0  0  0  0
   19.9908   17.8631   22.2911 H   0  0  0  0  0  0  0  0  0  0  0  0
   20.4563   19.9616   22.6390 C   0  0  0  0  0  0  0  0  0  0  0  0
   20.0403   20.8080   23.2015 H   0  0  0  0  0  0  0  0  0  0  0  0
   21.4689   19.7959   23.0299 H   0  0  0  0  0  0  0  0  0  0  0  0
   20.5653   20.3348   21.1427 C   0  0  1  0  0  0  0  0  0  0  0  0
   20.9418   19.4633   20.5983 H   0  0  0  0  0  0  0  0  0  0  0  0
   19.2048   20.7334   20.5430 C   0  0  0  0  0  0  0  0  0  0  0  0
   18.7550   21.5662   21.0979 H   0  0  0  0  0  0  0  0  0  0  0  0
   18.5017   19.8926   20.5546 H   0  0  0  0  0  0  0  0  0  0  0  0
   19.3198   21.0444   19.4974 H   0  0  0  0  0  0  0  0  0  0  0  0
   21.5694   21.4337   20.9298 N   0  3  0  0  0  0  0  0  0  0  0  0
   21.2899   22.2943   21.4081 H   0  0  0  0  0  0  0  0  0  0  0  0
   22.4949   21.1728   21.2820 H   0  0  0  0  0  0  0  0  0  0  0  0
   21.6744   21.6571   19.9361 H   0  0  0  0  0  0  0  0  0  0  0  0
  1  2  1  0  0  0  0
  1  3  1  0  0  0  0
  1  4  1  0  0  0  0
  1  5  1  0  0  0  0
  5  6  1  0  0  0  0
  5  7  1  0  0  0  0
  5  8  1  0  0  0  0
  8  9  1  0  0  0  0
  8 10  1  0  0  0  0
  8 11  1  0  0  0  0
 11 12  1  0  0  0  0
 11 13  1  0  0  0  0
 11 14  1  0  0  0  0
 14 15  1  0  0  0  0
 14 16  1  0  0  0  0
 14 17  1  0  0  0  0
 17 18  1  0  0  0  0
 17 19  1  0  0  0  0
 19 20  1  0  0  0  0
 19 21  1  0  0  0  0
 19 22  1  0  0  0  0
 17 23  1  0  0  0  0
 23 24  1  0  0  0  0
 23 25  1  0  0  0  0
 23 26  1  0  0  0  0
M  END
> <VConfSearch Rank>
742

> <Conf_Id>
54

> <Delta U+W>
0.453

> <U+W>
-29.845

> <U>
23.817

> <W>
-53.663

> <W(PB)>
-56.021

> <W(SA)>
2.358

> <Valence>
3.277

> <Coulomb>
19.492

> <VdW>
1.049

> <VdW6>
-6.949

> <VdW12>
7.998

> <Bond>
0.183

> <Angle>
1.152

> <Pdih>
1.942

> <Idih>
0.000

> <Tether>
0.000

$$$$
VeraChem MOL file


 26 25  0  0  0  0  0  0  0  0999 V2000     
   18.0636   18.0345   19.9492 C   0  0  0  0  0  0  0  0  0  0  0  0
   17.2366   17.6487   20.5593 H   0  0  0  0  0  0  0  0  0  0  0  0
   17.9267   19.1159   19.8285 H   0  0  0  0  0  0  0  0  0  0  0  0
   17.9848   17.5805   18.9529 H   0  0  0  0  0  0  0  0  0  0  0  0
   19.4303   17.6984   20.5887 C   0  0  0  0  0  0  0  0  0  0  0  0
   20.2402   18.1236   19.9795 H   0  0  0  0  0  0  0  0  0  0  0  0
   19.5689   16.6084   20.5653 H   0  0  0  0  0  0  0  0  0  0  0  0
   19.5650   18.1821   22.0532 C   0  0  0  0  0  0  0  0  0  0  0  0
   18.7353   17.7777   22.6494 H   0  0  0  0  0  0  0  0  0  0  0  0
   20.4899   17.7533   22.4569 H   0  0  0  0  0  0  0  0  0  0  0  0
   19.6140   19.7248   22.1906 C   0  0  0  0  0  0  0  0  0  0  0  0
   18.7512   20.1629   21.6733 H   0  0  0  0  0  0  0  0  0  0  0  0
   20.5050   20.1089   21.6752 H   0  0  0  0  0  0  0  0  0  0  0  0
   19.5961   20.2503   23.6505 C   0  0  0  0  0  0  0  0  0  0  0  0
   19.5303   21.3452   23.5963 H   0  0  0  0  0  0  0  0  0  0  0  0
   18.6807   19.9216   24.1601 H   0  0  0  0  0  0  0  0  0  0  0  0
   20.8357   19.8711   24.4954 C   0  0  1  0  0  0  0  0  0  0  0  0
   21.7199   19.9184   23.8522 H   0  0  0  0  0  0  0  0  0  0  0  0
   21.0254   20.8713   25.6479 C   0  0  0  0  0  0  0  0  0  0  0  0
   21.9118   20.6165   26.2420 H   0  0  0  0  0  0  0  0  0  0  0  0
   20.1552   20.8762   26.3164 H   0  0  0  0  0  0  0  0  0  0  0  0
   21.1669   21.8890   25.2632 H   0  0  0  0  0  0  0  0  0  0  0  0
   20.7607   18.4732   25.0469 N   0  3  0  0  0  0  0  0  0  0  0  0
   20.6429   17.7819   24.3030 H   0  0  0  0  0  0  0  0  0  0  0  0
   21.6104   18.2292   25.5637 H   0  0  0  0  0  0  0  0  0  0  0  0
   19.9718   18.3697   25.6906 H   0  0  0  0  0  0  0  0  0  0  0  0
  1  2  1  0  0  0  0
  1  3  1  0  0  0  0
  1  4  1  0  0  0  0
  1  5  1  0  0  0  0
  5  6  1  0  0  0  0
  5  7  1  0  0  0  0
  5  8  1  0  0  0  0
  8  9  1  0  0  0  0
  8 10  1  0  0  0  0
  8 11  1  0  0  0  0
 11 12  1  0  0  0  0
 11 13  1  0  0  0  0
 11 14  1  0  0  0  0
 14 15  1  0  0  0  0
 14 16  1  0  0  0  0
 14 17  1  0  0  0  0
 17 18  1  0  0  0  0
 17 19  1  0  0  0  0
 19 20  1  0  0  0  0
 19 21  1  0  0  0  0
 19 22  1  0  0  0  0
 17 23  1  0  0  0  0
 23 24  1  0  0  0  0
 23 25  1  0  0  0  0
 23 26  1  0  0  0  0
M  END
> <VConfSearch Rank>
743

> <Conf_Id>
110

> <Delta U+W>
3.764

> <U+W>
-26.535

> <U>
27.400

> <W>
-53.935

> <W(PB)>
-56.238

> <W(SA)>
2.303

> <Valence>
5.205

> <Coulomb>
21.096

> <VdW>
1.098

> <VdW6>
-8.389

> <VdW12>
9.488

> <Bond>
0.270

> <Angle>
1.912

> <Pdih>
3.023

> <Idih>
0.000

> <Tether>
0.000

$$$$
VeraChem MOL file


 26 25  0  0  0  0  0  0  0  0999 V2000     
   20.7469   16.1932   20.9719 C   0  0  0  0  0  0  0  0  0  0  0  0
   20.7597   15.6703   20.0069 H   0  0  0  0  0  0  0  0  0  0  0  0
   21.6977   16.7322   21.0673 H   0  0  0  0  0  0  0  0  0  0  0  0
   20.6998   15.4347   21.7641 H   0  0  0  0  0  0  0  0  0  0  0  0
   19.5392   17.1544   21.0502 C   0  0  0  0  0  0  0  0  0  0  0  0
   18.6226   16.5901   20.8283 H   0  0  0  0  0  0  0  0  0  0  0  0
   19.6255   17.9204   20.2669 H   0  0  0  0  0  0  0  0  0  0  0  0
   19.3815   17.8346   22.4315 C   0  0  0  0  0  0  0  0  0  0  0  0
   18.4436   18.4027   22.4309 H   0  0  0  0  0  0  0  0  0  0  0  0
   19.2680   17.0639   23.2062 H   0  0  0  0  0  0  0  0  0  0  0  0
   20.5664   18.7652   22.7977 C   0  0  0  0  0  0  0  0  0  0  0  0
   20.7820   19.4568   21.9717 H   0  0  0  0  0  0  0  0  0  0  0  0
   21.4672   18.1496   22.9215 H   0  0  0  0  0  0  0  0  0  0  0  0
   20.3401   19.5590   24.1119 C   0  0  0  0  0  0  0  0  0  0  0  0
   19.6589   19.0106   24.7760 H   0  0  0  0  0  0  0  0  0  0  0  0
   21.2998   19.6078   24.6432 H   0  0  0  0  0  0  0  0  0  0  0  0
   19.8428   21.0116   23.9156 C   0  0  1  0  0  0  0  0  0  0  0  0
   20.5689   21.5371   23.2878 H   0  0  0  0  0  0  0  0  0  0  0  0
   18.4705   21.0854   23.2250 C   0  0  0  0  0  0  0  0  0  0  0  0
   17.7187   20.5019   23.7707 H   0  0  0  0  0  0  0  0  0  0  0  0
   18.5265   20.7087   22.1971 H   0  0  0  0  0  0  0  0  0  0  0  0
   18.1209   22.1236   23.1691 H   0  0  0  0  0  0  0  0  0  0  0  0
   19.8055   21.7501   25.2249 N   0  3  0  0  0  0  0  0  0  0  0  0
   20.7223   21.7567   25.6809 H   0  0  0  0  0  0  0  0  0  0  0  0
   19.5231   22.7259   25.0961 H   0  0  0  0  0  0  0  0  0  0  0  0
   19.1412   21.3237   25.8763 H   0  0  0  0  0  0  0  0  0  0  0  0
  1  2  1  0  0  0  0
  1  3  1  0  0  0  0
  1  4  1  0  0  0  0
  1  5  1  0  0  0  0
  5  6  1  0  0  0  0
  5  7  1  0  0  0  0
  5  8  1  0  0  0  0
  8  9  1  0  0  0  0
  8 10  1  0  0  0  0
  8 11  1  0  0  0  0
 11 12  1  0  0  0  0
 11 13  1  0  0  0  0
 11 14  1  0  0  0  0
 14 15  1  0  0  0  0
 14 16  1  0  0  0  0
 14 17  1  0  0  0  0
 17 18  1  0  0  0  0
 17 19  1  0  0  0  0
 19 20  1  0  0  0  0
 19 21  1  0  0  0  0
 19 22  1  0  0  0  0
 17 23  1  0  0  0  0
 23 24  1  0  0  0  0
 23 25  1  0  0  0  0
 23 26  1  0  0  0  0
M  END
> <VConfSearch Rank>
744

> <Conf_Id>
34

> <Delta U+W>
3.568

> <U+W>
-26.731

> <U>
27.221

> <W>
-53.952

> <W(PB)>
-56.213

> <W(SA)>
2.261

> <Valence>
6.368

> <Coulomb>
19.698

> <VdW>
1.155

> <VdW6>
-8.532

> <VdW12>
9.687

> <Bond>
0.272

> <Angle>
1.847

> <Pdih>
4.248

> <Idih>
0.000

> <Tether>
0.000

$$$$
VeraChem MOL file


 26 25  0  0  0  0  0  0  0  0999 V2000     
   21.4552   15.7905   21.1854 C   0  0  0  0  0  0  0  0  0  0  0  0
   20.9056   15.0252   21.7488 H   0  0  0  0  0  0  0  0  0  0  0  0
   20.9867   15.8902   20.1976 H   0  0  0  0  0  0  0  0  0  0  0  0
   22.4807   15.4281   21.0369 H   0  0  0  0  0  0  0  0  0  0  0  0
   21.4571   17.1385   21.9372 C   0  0  0  0  0  0  0  0  0  0  0  0
   22.0421   17.8732   21.3664 H   0  0  0  0  0  0  0  0  0  0  0  0
   21.9616   17.0149   22.9057 H   0  0  0  0  0  0  0  0  0  0  0  0
   20.0243   17.6714   22.1595 C   0  0  0  0  0  0  0  0  0  0  0  0
   19.5237   17.7906   21.1886 H   0  0  0  0  0  0  0  0  0  0  0  0
   19.4430   16.9323   22.7280 H   0  0  0  0  0  0  0  0  0  0  0  0
   20.0217   19.0212   22.9123 C   0  0  0  0  0  0  0  0  0  0  0  0
   20.6055   19.7539   22.3398 H   0  0  0  0  0  0  0  0  0  0  0  0
   20.5279   18.8923   23.8781 H   0  0  0  0  0  0  0  0  0  0  0  0
   18.5802   19.5489   23.1348 C   0  0  0  0  0  0  0  0  0  0  0  0
   18.0708   19.6255   22.1652 H   0  0  0  0  0  0  0  0  0  0  0  0
   18.0104   18.8132   23.7177 H   0  0  0  0  0  0  0  0  0  0  0  0
   18.4904   20.9213   23.8433 C   0  0  1  0  0  0  0  0  0  0  0  0
   17.4301   21.1848   23.9076 H   0  0  0  0  0  0  0  0  0  0  0  0
   19.0440   20.8693   25.2781 C   0  0  0  0  0  0  0  0  0  0  0  0
   20.1279   20.7046   25.2893 H   0  0  0  0  0  0  0  0  0  0  0  0
   18.5674   20.0643   25.8511 H   0  0  0  0  0  0  0  0  0  0  0  0
   18.8436   21.8127   25.8006 H   0  0  0  0  0  0  0  0  0  0  0  0
   19.1453   22.0203   23.0524 N   0  3  0  0  0  0  0  0  0  0  0  0
   19.0219   22.9309   23.5040 H   0  0  0  0  0  0  0  0  0  0  0  0
   20.1509   21.8600   22.9552 H   0  0  0  0  0  0  0  0  0  0  0  0
   18.7514   22.0908   22.1098 H   0  0  0  0  0  0  0  0  0  0  0  0
  1  2  1  0  0  0  0
  1  3  1  0  0  0  0
  1  4  1  0  0  0  0
  1  5  1  0  0  0  0
  5  6  1  0  0  0  0
  5  7  1  0  0  0  0
  5  8  1  0  0  0  0
  8  9  1  0  0  0  0
  8 10  1  0  0  0  0
  8 11  1  0  0  0  0
 11 12  1  0  0  0  0
 11 13  1  0  0  0  0
 11 14  1  0  0  0  0
 14 15  1  0  0  0  0
 14 16  1  0  0  0  0
 14 17  1  0  0  0  0
 17 18  1  0  0  0  0
 17 19  1  0  0  0  0
 19 20  1  0  0  0  0
 19 21  1  0  0  0  0
 19 22  1  0  0  0  0
 17 23  1  0  0  0  0
 23 24  1  0  0  0  0
 23 25  1  0  0  0  0
 23 26  1  0  0  0  0
M  END
> <VConfSearch Rank>
745

> <Conf_Id>
132

> <Delta U+W>
0.363

> <U+W>
-29.936

> <U>
24.060

> <W>
-53.996

> <W(PB)>
-56.327

> <W(SA)>
2.332

> <Valence>
3.249

> <Coulomb>
19.781

> <VdW>
1.030

> <VdW6>
-7.421

> <VdW12>
8.451

> <Bond>
0.207

> <Angle>
1.205

> <Pdih>
1.837

> <Idih>
0.000

> <Tether>
0.000

$$$$
VeraChem MOL file


 26 25  0  0  0  0  0  0  0  0999 V2000     
   17.1810   16.2464   22.6579 C   0  0  0  0  0  0  0  0  0  0  0  0
   16.9789   15.5076   23.4442 H   0  0  0  0  0  0  0  0  0  0  0  0
   16.2236   16.6972   22.3655 H   0  0  0  0  0  0  0  0  0  0  0  0
   17.5867   15.7117   21.7891 H   0  0  0  0  0  0  0  0  0  0  0  0
   18.1701   17.3198   23.1597 C   0  0  0  0  0  0  0  0  0  0  0  0
   19.0968   16.8262   23.4807 H   0  0  0  0  0  0  0  0  0  0  0  0
   17.7496   17.8165   24.0452 H   0  0  0  0  0  0  0  0  0  0  0  0
   18.4738   18.3706   22.0656 C   0  0  0  0  0  0  0  0  0  0  0  0
   18.9450   17.8813   21.2020 H   0  0  0  0  0  0  0  0  0  0  0  0
   17.5252   18.7892   21.7019 H   0  0  0  0  0  0  0  0  0  0  0  0
   19.3678   19.5371   22.5541 C   0  0  0  0  0  0  0  0  0  0  0  0
   18.8870   20.0249   23.4123 H   0  0  0  0  0  0  0  0  0  0  0  0
   19.4093   20.2871   21.7539 H   0  0  0  0  0  0  0  0  0  0  0  0
   20.8092   19.0946   22.9275 C   0  0  0  0  0  0  0  0  0  0  0  0
   20.7704   18.3687   23.7487 H   0  0  0  0  0  0  0  0  0  0  0  0
   21.2595   18.5663   22.0768 H   0  0  0  0  0  0  0  0  0  0  0  0
   21.7525   20.2440   23.3551 C   0  0  1  0  0  0  0  0  0  0  0  0
   22.7066   19.7905   23.6413 H   0  0  0  0  0  0  0  0  0  0  0  0
   22.0338   21.2246   22.2030 C   0  0  0  0  0  0  0  0  0  0  0  0
   21.1400   21.7966   21.9277 H   0  0  0  0  0  0  0  0  0  0  0  0
   22.3882   20.6897   21.3131 H   0  0  0  0  0  0  0  0  0  0  0  0
   22.8127   21.9410   22.4917 H   0  0  0  0  0  0  0  0  0  0  0  0
   21.2551   20.9719   24.5737 N   0  3  0  0  0  0  0  0  0  0  0  0
   21.1099   20.3325   25.3601 H   0  0  0  0  0  0  0  0  0  0  0  0
   21.9206   21.6872   24.8800 H   0  0  0  0  0  0  0  0  0  0  0  0
   20.3648   21.4404   24.3887 H   0  0  0  0  0  0  0  0  0  0  0  0
  1  2  1  0  0  0  0
  1  3  1  0  0  0  0
  1  4  1  0  0  0  0
  1  5  1  0  0  0  0
  5  6  1  0  0  0  0
  5  7  1  0  0  0  0
  5  8  1  0  0  0  0
  8  9  1  0  0  0  0
  8 10  1  0  0  0  0
  8 11  1  0  0  0  0
 11 12  1  0  0  0  0
 11 13  1  0  0  0  0
 11 14  1  0  0  0  0
 14 15  1  0  0  0  0
 14 16  1  0  0  0  0
 14 17  1  0  0  0  0
 17 18  1  0  0  0  0
 17 19  1  0  0  0  0
 19 20  1  0  0  0  0
 19 21  1  0  0  0  0
 19 22  1  0  0  0  0
 17 23  1  0  0  0  0
 23 24  1  0  0  0  0
 23 25  1  0  0  0  0
 23 26  1  0  0  0  0
M  END
> <VConfSearch Rank>
746

> <Conf_Id>
46

> <Delta U+W>
1.114

> <U+W>
-29.185

> <U>
24.990

> <W>
-54.175

> <W(PB)>
-56.455

> <W(SA)>
2.279

> <Valence>
3.862

> <Coulomb>
19.956

> <VdW>
1.172

> <VdW6>
-8.054

> <VdW12>
9.226

> <Bond>
0.258

> <Angle>
1.499

> <Pdih>
2.106

> <Idih>
0.000

> <Tether>
0.000

$$$$
VeraChem MOL file


 26 25  0  0  0  0  0  0  0  0999 V2000     
   20.3361   22.6094   24.0243 C   0  0  0  0  0  0  0  0  0  0  0  0
   19.3028   22.4421   24.3523 H   0  0  0  0  0  0  0  0  0  0  0  0
   21.0052   22.3845   24.8650 H   0  0  0  0  0  0  0  0  0  0  0  0
   20.4383   23.6770   23.7906 H   0  0  0  0  0  0  0  0  0  0  0  0
   20.6874   21.7498   22.7888 C   0  0  0  0  0  0  0  0  0  0  0  0
   21.6808   22.0462   22.4241 H   0  0  0  0  0  0  0  0  0  0  0  0
   19.9834   21.9685   21.9737 H   0  0  0  0  0  0  0  0  0  0  0  0
   20.6993   20.2291   23.0774 C   0  0  0  0  0  0  0  0  0  0  0  0
   21.0825   19.7170   22.1852 H   0  0  0  0  0  0  0  0  0  0  0  0
   21.4117   20.0157   23.8863 H   0  0  0  0  0  0  0  0  0  0  0  0
   19.3051   19.6609   23.4460 C   0  0  0  0  0  0  0  0  0  0  0  0
   18.5847   19.8981   22.6521 H   0  0  0  0  0  0  0  0  0  0  0  0
   18.9346   20.1592   24.3511 H   0  0  0  0  0  0  0  0  0  0  0  0
   19.3186   18.1335   23.7127 C   0  0  0  0  0  0  0  0  0  0  0  0
   19.9768   17.9306   24.5681 H   0  0  0  0  0  0  0  0  0  0  0  0
   18.3129   17.8159   24.0185 H   0  0  0  0  0  0  0  0  0  0  0  0
   19.7786   17.2793   22.5098 C   0  0  1  0  0  0  0  0  0  0  0  0
   20.7907   17.5888   22.2332 H   0  0  0  0  0  0  0  0  0  0  0  0
   19.8228   15.7923   22.8960 C   0  0  0  0  0  0  0  0  0  0  0  0
   20.1868   15.1844   22.0586 H   0  0  0  0  0  0  0  0  0  0  0  0
   18.8280   15.4252   23.1778 H   0  0  0  0  0  0  0  0  0  0  0  0
   20.4998   15.6300   23.7440 H   0  0  0  0  0  0  0  0  0  0  0  0
   18.9154   17.4861   21.2954 N   0  3  0  0  0  0  0  0  0  0  0  0
   18.9101   18.4679   21.0064 H   0  0  0  0  0  0  0  0  0  0  0  0
   19.2480   16.9331   20.5004 H   0  0  0  0  0  0  0  0  0  0  0  0
   17.9461   17.2120   21.4757 H   0  0  0  0  0  0  0  0  0  0  0  0
  1  2  1  0  0  0  0
  1  3  1  0  0  0  0
  1  4  1  0  0  0  0
  1  5  1  0  0  0  0
  5  6  1  0  0  0  0
  5  7  1  0  0  0  0
  5  8  1  0  0  0  0
  8  9  1  0  0  0  0
  8 10  1  0  0  0  0
  8 11  1  0  0  0  0
 11 12  1  0  0  0  0
 11 13  1  0  0  0  0
 11 14  1  0  0  0  0
 14 15  1  0  0  0  0
 14 16  1  0  0  0  0
 14 17  1  0  0  0  0
 17 18  1  0  0  0  0
 17 19  1  0  0  0  0
 19 20  1  0  0  0  0
 19 21  1  0  0  0  0
 19 22  1  0  0  0  0
 17 23  1  0  0  0  0
 23 24  1  0  0  0  0
 23 25  1  0  0  0  0
 23 26  1  0  0  0  0
M  END
> <VConfSearch Rank>
747

> <Conf_Id>
113

> <Delta U+W>
1.137

> <U+W>
-29.162

> <U>
24.833

> <W>
-53.995

> <W(PB)>
-56.288

> <W(SA)>
2.294

> <Valence>
3.589

> <Coulomb>
20.270

> <VdW>
0.974

> <VdW6>
-8.255

> <VdW12>
9.229

> <Bond>
0.244

> <Angle>
1.377

> <Pdih>
1.967

> <Idih>
0.000

> <Tether>
0.000

$$$$
VeraChem MOL file


 26 25  0  0  0  0  0  0  0  0999 V2000     
   21.9923   16.7653   25.1955 C   0  0  0  0  0  0  0  0  0  0  0  0
   21.8054   16.5729   26.2600 H   0  0  0  0  0  0  0  0  0  0  0  0
   21.8432   15.8234   24.6515 H   0  0  0  0  0  0  0  0  0  0  0  0
   23.0440   17.0605   25.0863 H   0  0  0  0  0  0  0  0  0  0  0  0
   21.0485   17.8662   24.6668 C   0  0  0  0  0  0  0  0  0  0  0  0
   21.1999   18.7859   25.2489 H   0  0  0  0  0  0  0  0  0  0  0  0
   20.0091   17.5524   24.8308 H   0  0  0  0  0  0  0  0  0  0  0  0
   21.2905   18.1518   23.1657 C   0  0  0  0  0  0  0  0  0  0  0  0
   22.3537   18.3844   23.0141 H   0  0  0  0  0  0  0  0  0  0  0  0
   21.0872   17.2455   22.5787 H   0  0  0  0  0  0  0  0  0  0  0  0
   20.4479   19.3283   22.6145 C   0  0  0  0  0  0  0  0  0  0  0  0
   20.7752   19.5298   21.5861 H   0  0  0  0  0  0  0  0  0  0  0  0
   20.6731   20.2329   23.1948 H   0  0  0  0  0  0  0  0  0  0  0  0
   18.9198   19.0504   22.6281 C   0  0  0  0  0  0  0  0  0  0  0  0
   18.7229   18.0879   22.1381 H   0  0  0  0  0  0  0  0  0  0  0  0
   18.5732   18.9407   23.6632 H   0  0  0  0  0  0  0  0  0  0  0  0
   18.0565   20.1352   21.9414 C   0  0  1  0  0  0  0  0  0  0  0  0
   17.0129   19.8134   22.0134 H   0  0  0  0  0  0  0  0  0  0  0  0
   18.1731   21.4978   22.6467 C   0  0  0  0  0  0  0  0  0  0  0  0
   19.1756   21.9277   22.5347 H   0  0  0  0  0  0  0  0  0  0  0  0
   17.9574   21.4020   23.7181 H   0  0  0  0  0  0  0  0  0  0  0  0
   17.4539   22.2107   22.2252 H   0  0  0  0  0  0  0  0  0  0  0  0
   18.3519   20.2615   20.4720 N   0  3  0  0  0  0  0  0  0  0  0  0
   18.2350   19.3673   19.9871 H   0  0  0  0  0  0  0  0  0  0  0  0
   17.7279   20.9370   20.0217 H   0  0  0  0  0  0  0  0  0  0  0  0
   19.3117   20.5763   20.3110 H   0  0  0  0  0  0  0  0  0  0  0  0
  1  2  1  0  0  0  0
  1  3  1  0  0  0  0
  1  4  1  0  0  0  0
  1  5  1  0  0  0  0
  5  6  1  0  0  0  0
  5  7  1  0  0  0  0
  5  8  1  0  0  0  0
  8  9  1  0  0  0  0
  8 10  1  0  0  0  0
  8 11  1  0  0  0  0
 11 12  1  0  0  0  0
 11 13  1  0  0  0  0
 11 14  1  0  0  0  0
 14 15  1  0  0  0  0
 14 16  1  0  0  0  0
 14 17  1  0  0  0  0
 17 18  1  0  0  0  0
 17 19  1  0  0  0  0
 19 20  1  0  0  0  0
 19 21  1  0  0  0  0
 19 22  1  0  0  0  0
 17 23  1  0  0  0  0
 23 24  1  0  0  0  0
 23 25  1  0  0  0  0
 23 26  1  0  0  0  0
M  END
> <VConfSearch Rank>
748

> <Conf_Id>
45

> <Delta U+W>
1.035

> <U+W>
-29.264

> <U>
24.725

> <W>
-53.989

> <W(PB)>
-56.298

> <W(SA)>
2.309

> <Valence>
3.780

> <Coulomb>
19.804

> <VdW>
1.141

> <VdW6>
-8.104

> <VdW12>
9.246

> <Bond>
0.254

> <Angle>
1.437

> <Pdih>
2.089

> <Idih>
0.000

> <Tether>
0.000

$$$$
VeraChem MOL file


 26 25  0  0  0  0  0  0  0  0999 V2000     
   20.8043   21.5386   19.9383 C   0  0  0  0  0  0  0  0  0  0  0  0
   20.4225   22.5608   19.8190 H   0  0  0  0  0  0  0  0  0  0  0  0
   21.8906   21.5645   19.7818 H   0  0  0  0  0  0  0  0  0  0  0  0
   20.3598   20.9184   19.1490 H   0  0  0  0  0  0  0  0  0  0  0  0
   20.4576   20.9873   21.3377 C   0  0  0  0  0  0  0  0  0  0  0  0
   19.3682   21.0166   21.4708 H   0  0  0  0  0  0  0  0  0  0  0  0
   20.8909   21.6439   22.1050 H   0  0  0  0  0  0  0  0  0  0  0  0
   20.9824   19.5442   21.5275 C   0  0  0  0  0  0  0  0  0  0  0  0
   20.5057   18.8771   20.7961 H   0  0  0  0  0  0  0  0  0  0  0  0
   22.0583   19.5255   21.3053 H   0  0  0  0  0  0  0  0  0  0  0  0
   20.7687   18.9863   22.9564 C   0  0  0  0  0  0  0  0  0  0  0  0
   21.2475   19.6536   23.6865 H   0  0  0  0  0  0  0  0  0  0  0  0
   21.2933   18.0245   23.0263 H   0  0  0  0  0  0  0  0  0  0  0  0
   19.2760   18.7903   23.3278 C   0  0  0  0  0  0  0  0  0  0  0  0
   18.7603   19.7573   23.2801 H   0  0  0  0  0  0  0  0  0  0  0  0
   18.7915   18.1384   22.5888 H   0  0  0  0  0  0  0  0  0  0  0  0
   19.0796   18.2052   24.7435 C   0  0  1  0  0  0  0  0  0  0  0  0
   19.6005   18.8513   25.4568 H   0  0  0  0  0  0  0  0  0  0  0  0
   17.5871   18.1861   25.1113 C   0  0  0  0  0  0  0  0  0  0  0  0
   17.0168   17.5492   24.4235 H   0  0  0  0  0  0  0  0  0  0  0  0
   17.1626   19.1970   25.0722 H   0  0  0  0  0  0  0  0  0  0  0  0
   17.4429   17.8044   26.1296 H   0  0  0  0  0  0  0  0  0  0  0  0
   19.6742   16.8308   24.8889 N   0  3  0  0  0  0  0  0  0  0  0  0
   20.6788   16.8345   24.6938 H   0  0  0  0  0  0  0  0  0  0  0  0
   19.5487   16.4674   25.8380 H   0  0  0  0  0  0  0  0  0  0  0  0
   19.2375   16.1650   24.2460 H   0  0  0  0  0  0  0  0  0  0  0  0
  1  2  1  0  0  0  0
  1  3  1  0  0  0  0
  1  4  1  0  0  0  0
  1  5  1  0  0  0  0
  5  6  1  0  0  0  0
  5  7  1  0  0  0  0
  5  8  1  0  0  0  0
  8  9  1  0  0  0  0
  8 10  1  0  0  0  0
  8 11  1  0  0  0  0
 11 12  1  0  0  0  0
 11 13  1  0  0  0  0
 11 14  1  0  0  0  0
 14 15  1  0  0  0  0
 14 16  1  0  0  0  0
 14 17  1  0  0  0  0
 17 18  1  0  0  0  0
 17 19  1  0  0  0  0
 19 20  1  0  0  0  0
 19 21  1  0  0  0  0
 19 22  1  0  0  0  0
 17 23  1  0  0  0  0
 23 24  1  0  0  0  0
 23 25  1  0  0  0  0
 23 26  1  0  0  0  0
M  END
> <VConfSearch Rank>
749

> <Conf_Id>
121

> <Delta U+W>
0.736

> <U+W>
-29.562

> <U>
24.282

> <W>
-53.844

> <W(PB)>
-56.205

> <W(SA)>
2.361

> <Valence>
3.311

> <Coulomb>
19.887

> <VdW>
1.083

> <VdW6>
-7.444

> <VdW12>
8.527

> <Bond>
0.219

> <Angle>
1.167

> <Pdih>
1.926

> <Idih>
0.000

> <Tether>
0.000

$$$$
VeraChem MOL file


 26 25  0  0  0  0  0  0  0  0999 V2000     
   19.6122   16.3045   20.6523 C   0  0  0  0  0  0  0  0  0  0  0  0
   19.6407   15.2249   20.4559 H   0  0  0  0  0  0  0  0  0  0  0  0
   18.8469   16.7440   19.9995 H   0  0  0  0  0  0  0  0  0  0  0  0
   20.5875   16.7166   20.3656 H   0  0  0  0  0  0  0  0  0  0  0  0
   19.2953   16.5746   22.1408 C   0  0  0  0  0  0  0  0  0  0  0  0
   20.0921   16.1553   22.7708 H   0  0  0  0  0  0  0  0  0  0  0  0
   18.3760   16.0353   22.4090 H   0  0  0  0  0  0  0  0  0  0  0  0
   19.1028   18.0750   22.4690 C   0  0  0  0  0  0  0  0  0  0  0  0
   18.2997   18.4870   21.8425 H   0  0  0  0  0  0  0  0  0  0  0  0
   18.7566   18.1534   23.5079 H   0  0  0  0  0  0  0  0  0  0  0  0
   20.3919   18.9159   22.2872 C   0  0  0  0  0  0  0  0  0  0  0  0
   20.7287   18.8492   21.2446 H   0  0  0  0  0  0  0  0  0  0  0  0
   21.2025   18.4914   22.8939 H   0  0  0  0  0  0  0  0  0  0  0  0
   20.1974   20.4157   22.6309 C   0  0  0  0  0  0  0  0  0  0  0  0
   21.1413   20.9472   22.4511 H   0  0  0  0  0  0  0  0  0  0  0  0
   19.4704   20.8407   21.9263 H   0  0  0  0  0  0  0  0  0  0  0  0
   19.7174   20.7057   24.0729 C   0  0  1  0  0  0  0  0  0  0  0  0
   18.7712   20.1812   24.2346 H   0  0  0  0  0  0  0  0  0  0  0  0
   20.7284   20.2223   25.1279 C   0  0  0  0  0  0  0  0  0  0  0  0
   21.7137   20.6789   24.9718 H   0  0  0  0  0  0  0  0  0  0  0  0
   20.8454   19.1327   25.0966 H   0  0  0  0  0  0  0  0  0  0  0  0
   20.3883   20.4833   26.1375 H   0  0  0  0  0  0  0  0  0  0  0  0
   19.4248   22.1682   24.2625 N   0  3  0  0  0  0  0  0  0  0  0  0
   18.7215   22.5018   23.5972 H   0  0  0  0  0  0  0  0  0  0  0  0
   19.0685   22.3598   25.2032 H   0  0  0  0  0  0  0  0  0  0  0  0
   20.2650   22.7380   24.1329 H   0  0  0  0  0  0  0  0  0  0  0  0
  1  2  1  0  0  0  0
  1  3  1  0  0  0  0
  1  4  1  0  0  0  0
  1  5  1  0  0  0  0
  5  6  1  0  0  0  0
  5  7  1  0  0  0  0
  5  8  1  0  0  0  0
  8  9  1  0  0  0  0
  8 10  1  0  0  0  0
  8 11  1  0  0  0  0
 11 12  1  0  0  0  0
 11 13  1  0  0  0  0
 11 14  1  0  0  0  0
 14 15  1  0  0  0  0
 14 16  1  0  0  0  0
 14 17  1  0  0  0  0
 17 18  1  0  0  0  0
 17 19  1  0  0  0  0
 19 20  1  0  0  0  0
 19 21  1  0  0  0  0
 19 22  1  0  0  0  0
 17 23  1  0  0  0  0
 23 24  1  0  0  0  0
 23 25  1  0  0  0  0
 23 26  1  0  0  0  0
M  END
> <VConfSearch Rank>
750

> <Conf_Id>
5

> <Delta U+W>
1.233

> <U+W>
-29.065

> <U>
25.023

> <W>
-54.088

> <W(PB)>
-56.383

> <W(SA)>
2.296

> <Valence>
4.083

> <Coulomb>
19.893

> <VdW>
1.047

> <VdW6>
-8.479

> <VdW12>
9.527

> <Bond>
0.256

> <Angle>
1.716

> <Pdih>
2.112

> <Idih>
0.000

> <Tether>
0.000

$$$$
VeraChem MOL file


 26 25  0  0  0  0  0  0  0  0999 V2000     
   19.8337   22.8253   23.1748 C   0  0  0  0  0  0  0  0  0  0  0  0
   19.5176   23.8278   22.8583 H   0  0  0  0  0  0  0  0  0  0  0  0
   19.3381   22.6110   24.1295 H   0  0  0  0  0  0  0  0  0  0  0  0
   20.9173   22.8546   23.3479 H   0  0  0  0  0  0  0  0  0  0  0  0
   19.4708   21.7791   22.0963 C   0  0  0  0  0  0  0  0  0  0  0  0
   19.8843   22.1092   21.1331 H   0  0  0  0  0  0  0  0  0  0  0  0
   18.3801   21.7440   21.9662 H   0  0  0  0  0  0  0  0  0  0  0  0
   20.0082   20.3607   22.4051 C   0  0  0  0  0  0  0  0  0  0  0  0
   19.8236   19.7318   21.5246 H   0  0  0  0  0  0  0  0  0  0  0  0
   21.0978   20.4028   22.5392 H   0  0  0  0  0  0  0  0  0  0  0  0
   19.3508   19.7088   23.6472 C   0  0  0  0  0  0  0  0  0  0  0  0
   18.2648   19.6433   23.4939 H   0  0  0  0  0  0  0  0  0  0  0  0
   19.4998   20.3536   24.5226 H   0  0  0  0  0  0  0  0  0  0  0  0
   19.9060   18.3030   23.9909 C   0  0  0  0  0  0  0  0  0  0  0  0
   20.9755   18.3699   24.2312 H   0  0  0  0  0  0  0  0  0  0  0  0
   19.4161   17.9738   24.9168 H   0  0  0  0  0  0  0  0  0  0  0  0
   19.6644   17.2474   22.8845 C   0  0  1  0  0  0  0  0  0  0  0  0
   18.8799   17.6228   22.2202 H   0  0  0  0  0  0  0  0  0  0  0  0
   20.9362   16.9960   22.0540 C   0  0  0  0  0  0  0  0  0  0  0  0
   21.7337   16.5668   22.6734 H   0  0  0  0  0  0  0  0  0  0  0  0
   21.3168   17.9229   21.6107 H   0  0  0  0  0  0  0  0  0  0  0  0
   20.7304   16.2967   21.2343 H   0  0  0  0  0  0  0  0  0  0  0  0
   19.1509   15.9502   23.4470 N   0  3  0  0  0  0  0  0  0  0  0  0
   18.2776   16.0838   23.9650 H   0  0  0  0  0  0  0  0  0  0  0  0
   18.9634   15.2692   22.7057 H   0  0  0  0  0  0  0  0  0  0  0  0
   19.8273   15.5259   24.0874 H   0  0  0  0  0  0  0  0  0  0  0  0
  1  2  1  0  0  0  0
  1  3  1  0  0  0  0
  1  4  1  0  0  0  0
  1  5  1  0  0  0  0
  5  6  1  0  0  0  0
  5  7  1  0  0  0  0
  5  8  1  0  0  0  0
  8  9  1  0  0  0  0
  8 10  1  0  0  0  0
  8 11  1  0  0  0  0
 11 12  1  0  0  0  0
 11 13  1  0  0  0  0
 11 14  1  0  0  0  0
 14 15  1  0  0  0  0
 14 16  1  0  0  0  0
 14 17  1  0  0  0  0
 17 18  1  0  0  0  0
 17 19  1  0  0  0  0
 19 20  1  0  0  0  0
 19 21  1  0  0  0  0
 19 22  1  0  0  0  0
 17 23  1  0  0  0  0
 23 24  1  0  0  0  0
 23 25  1  0  0  0  0
 23 26  1  0  0  0  0
M  END
> <VConfSearch Rank>
751

> <Conf_Id>
100

> <Delta U+W>
3.818

> <U+W>
-26.481

> <U>
27.496

> <W>
-53.977

> <W(PB)>
-56.267

> <W(SA)>
2.290

> <Valence>
6.472

> <Coulomb>
19.839

> <VdW>
1.185

> <VdW6>
-8.405

> <VdW12>
9.590

> <Bond>
0.248

> <Angle>
1.619

> <Pdih>
4.604

> <Idih>
0.000

> <Tether>
0.000

$$$$
VeraChem MOL file


 26 25  0  0  0  0  0  0  0  0999 V2000     
   16.8186   17.3346   21.4985 C   0  0  0  0  0  0  0  0  0  0  0  0
   16.5650   16.4720   20.8687 H   0  0  0  0  0  0  0  0  0  0  0  0
   16.6178   17.0604   22.5423 H   0  0  0  0  0  0  0  0  0  0  0  0
   16.1471   18.1594   21.2263 H   0  0  0  0  0  0  0  0  0  0  0  0
   18.2965   17.7353   21.3043 C   0  0  0  0  0  0  0  0  0  0  0  0
   18.4743   17.9700   20.2455 H   0  0  0  0  0  0  0  0  0  0  0  0
   18.9411   16.8804   21.5522 H   0  0  0  0  0  0  0  0  0  0  0  0
   18.6800   18.9487   22.1799 C   0  0  0  0  0  0  0  0  0  0  0  0
   18.0310   19.7985   21.9269 H   0  0  0  0  0  0  0  0  0  0  0  0
   18.4852   18.7088   23.2317 H   0  0  0  0  0  0  0  0  0  0  0  0
   20.1609   19.3554   21.9804 C   0  0  0  0  0  0  0  0  0  0  0  0
   20.3032   19.6089   20.9207 H   0  0  0  0  0  0  0  0  0  0  0  0
   20.8191   18.4989   22.1753 H   0  0  0  0  0  0  0  0  0  0  0  0
   20.5884   20.5812   22.8354 C   0  0  0  0  0  0  0  0  0  0  0  0
   21.2982   21.1792   22.2488 H   0  0  0  0  0  0  0  0  0  0  0  0
   19.7259   21.2397   23.0022 H   0  0  0  0  0  0  0  0  0  0  0  0
   21.2624   20.2630   24.1933 C   0  0  1  0  0  0  0  0  0  0  0  0
   21.4894   21.2213   24.6708 H   0  0  0  0  0  0  0  0  0  0  0  0
   20.3475   19.4781   25.1472 C   0  0  0  0  0  0  0  0  0  0  0  0
   20.1780   18.4553   24.7905 H   0  0  0  0  0  0  0  0  0  0  0  0
   19.3763   19.9765   25.2553 H   0  0  0  0  0  0  0  0  0  0  0  0
   20.8002   19.4127   26.1442 H   0  0  0  0  0  0  0  0  0  0  0  0
   22.5840   19.5644   24.0241 N   0  3  0  0  0  0  0  0  0  0  0  0
   23.2226   20.1060   23.4348 H   0  0  0  0  0  0  0  0  0  0  0  0
   23.0485   19.4199   24.9250 H   0  0  0  0  0  0  0  0  0  0  0  0
   22.4673   18.6464   23.5885 H   0  0  0  0  0  0  0  0  0  0  0  0
  1  2  1  0  0  0  0
  1  3  1  0  0  0  0
  1  4  1  0  0  0  0
  1  5  1  0  0  0  0
  5  6  1  0  0  0  0
  5  7  1  0  0  0  0
  5  8  1  0  0  0  0
  8  9  1  0  0  0  0
  8 10  1  0  0  0  0
  8 11  1  0  0  0  0
 11 12  1  0  0  0  0
 11 13  1  0  0  0  0
 11 14  1  0  0  0  0
 14 15  1  0  0  0  0
 14 16  1  0  0  0  0
 14 17  1  0  0  0  0
 17 18  1  0  0  0  0
 17 19  1  0  0  0  0
 19 20  1  0  0  0  0
 19 21  1  0  0  0  0
 19 22  1  0  0  0  0
 17 23  1  0  0  0  0
 23 24  1  0  0  0  0
 23 25  1  0  0  0  0
 23 26  1  0  0  0  0
M  END
> <VConfSearch Rank>
752

> <Conf_Id>
142

> <Delta U+W>
2.978

> <U+W>
-27.320

> <U>
26.848

> <W>
-54.168

> <W(PB)>
-56.427

> <W(SA)>
2.259

> <Valence>
5.823

> <Coulomb>
20.057

> <VdW>
0.968

> <VdW6>
-8.367

> <VdW12>
9.335

> <Bond>
0.267

> <Angle>
1.799

> <Pdih>
3.758

> <Idih>
0.000

> <Tether>
0.000

$$$$
VeraChem MOL file


 26 25  0  0  0  0  0  0  0  0999 V2000     
   19.0956   22.2049   21.4809 C   0  0  0  0  0  0  0  0  0  0  0  0
   19.1565   22.7559   22.4284 H   0  0  0  0  0  0  0  0  0  0  0  0
   19.2201   22.9279   20.6644 H   0  0  0  0  0  0  0  0  0  0  0  0
   18.0876   21.7816   21.3932 H   0  0  0  0  0  0  0  0  0  0  0  0
   20.1842   21.1102   21.4032 C   0  0  0  0  0  0  0  0  0  0  0  0
   21.1685   21.5974   21.3628 H   0  0  0  0  0  0  0  0  0  0  0  0
   20.0805   20.5497   20.4636 H   0  0  0  0  0  0  0  0  0  0  0  0
   20.1661   20.1320   22.6029 C   0  0  0  0  0  0  0  0  0  0  0  0
   21.0621   19.5047   22.5301 H   0  0  0  0  0  0  0  0  0  0  0  0
   20.2482   20.7001   23.5397 H   0  0  0  0  0  0  0  0  0  0  0  0
   18.9084   19.2275   22.6419 C   0  0  0  0  0  0  0  0  0  0  0  0
   18.8660   18.6149   21.7315 H   0  0  0  0  0  0  0  0  0  0  0  0
   18.0110   19.8582   22.6164 H   0  0  0  0  0  0  0  0  0  0  0  0
   18.7983   18.3213   23.9008 C   0  0  0  0  0  0  0  0  0  0  0  0
   18.7200   18.9523   24.7958 H   0  0  0  0  0  0  0  0  0  0  0  0
   17.8425   17.7842   23.8404 H   0  0  0  0  0  0  0  0  0  0  0  0
   19.9108   17.2652   24.1255 C   0  0  1  0  0  0  0  0  0  0  0  0
   19.5459   16.5851   24.9015 H   0  0  0  0  0  0  0  0  0  0  0  0
   20.1841   16.4204   22.8689 C   0  0  0  0  0  0  0  0  0  0  0  0
   20.6411   17.0174   22.0708 H   0  0  0  0  0  0  0  0  0  0  0  0
   19.2537   15.9850   22.4837 H   0  0  0  0  0  0  0  0  0  0  0  0
   20.8665   15.5940   23.1025 H   0  0  0  0  0  0  0  0  0  0  0  0
   21.1803   17.8505   24.6807 N   0  3  0  0  0  0  0  0  0  0  0  0
   21.0093   18.3523   25.5568 H   0  0  0  0  0  0  0  0  0  0  0  0
   21.8724   17.1219   24.8771 H   0  0  0  0  0  0  0  0  0  0  0  0
   21.6046   18.5101   24.0258 H   0  0  0  0  0  0  0  0  0  0  0  0
  1  2  1  0  0  0  0
  1  3  1  0  0  0  0
  1  4  1  0  0  0  0
  1  5  1  0  0  0  0
  5  6  1  0  0  0  0
  5  7  1  0  0  0  0
  5  8  1  0  0  0  0
  8  9  1  0  0  0  0
  8 10  1  0  0  0  0
  8 11  1  0  0  0  0
 11 12  1  0  0  0  0
 11 13  1  0  0  0  0
 11 14  1  0  0  0  0
 14 15  1  0  0  0  0
 14 16  1  0  0  0  0
 14 17  1  0  0  0  0
 17 18  1  0  0  0  0
 17 19  1  0  0  0  0
 19 20  1  0  0  0  0
 19 21  1  0  0  0  0
 19 22  1  0  0  0  0
 17 23  1  0  0  0  0
 23 24  1  0  0  0  0
 23 25  1  0  0  0  0
 23 26  1  0  0  0  0
M  END
> <VConfSearch Rank>
753

> <Conf_Id>
119

> <Delta U+W>
3.538

> <U+W>
-26.761

> <U>
27.482

> <W>
-54.243

> <W(PB)>
-56.494

> <W(SA)>
2.251

> <Valence>
5.284

> <Coulomb>
21.247

> <VdW>
0.951

> <VdW6>
-9.416

> <VdW12>
10.367

> <Bond>
0.323

> <Angle>
2.522

> <Pdih>
2.439

> <Idih>
0.000

> <Tether>
0.000

$$$$
VeraChem MOL file


 26 25  0  0  0  0  0  0  0  0999 V2000     
   22.3286   20.7163   24.8297 C   0  0  0  0  0  0  0  0  0  0  0  0
   21.7483   21.2115   25.6190 H   0  0  0  0  0  0  0  0  0  0  0  0
   22.4242   19.6542   25.0872 H   0  0  0  0  0  0  0  0  0  0  0  0
   23.3376   21.1484   24.8335 H   0  0  0  0  0  0  0  0  0  0  0  0
   21.6637   20.9079   23.4477 C   0  0  0  0  0  0  0  0  0  0  0  0
   22.2457   20.3775   22.6811 H   0  0  0  0  0  0  0  0  0  0  0  0
   21.7030   21.9732   23.1807 H   0  0  0  0  0  0  0  0  0  0  0  0
   20.1893   20.4390   23.4023 C   0  0  0  0  0  0  0  0  0  0  0  0
   19.6079   20.9923   24.1526 H   0  0  0  0  0  0  0  0  0  0  0  0
   19.7704   20.7180   22.4283 H   0  0  0  0  0  0  0  0  0  0  0  0
   20.0205   18.9156   23.6364 C   0  0  0  0  0  0  0  0  0  0  0  0
   20.3382   18.6853   24.6619 H   0  0  0  0  0  0  0  0  0  0  0  0
   20.6952   18.3541   22.9776 H   0  0  0  0  0  0  0  0  0  0  0  0
   18.5553   18.4245   23.4683 C   0  0  0  0  0  0  0  0  0  0  0  0
   18.3657   17.6426   24.2154 H   0  0  0  0  0  0  0  0  0  0  0  0
   17.8584   19.2358   23.7169 H   0  0  0  0  0  0  0  0  0  0  0  0
   18.1900   17.8390   22.0815 C   0  0  1  0  0  0  0  0  0  0  0  0
   17.1347   17.5515   22.1220 H   0  0  0  0  0  0  0  0  0  0  0  0
   18.3469   18.8583   20.9415 C   0  0  0  0  0  0  0  0  0  0  0  0
   19.4001   19.1112   20.7704 H   0  0  0  0  0  0  0  0  0  0  0  0
   17.7978   19.7813   21.1651 H   0  0  0  0  0  0  0  0  0  0  0  0
   17.9449   18.4513   20.0056 H   0  0  0  0  0  0  0  0  0  0  0  0
   18.9493   16.5762   21.7783 N   0  3  0  0  0  0  0  0  0  0  0  0
   18.8074   15.8689   22.5049 H   0  0  0  0  0  0  0  0  0  0  0  0
   18.6509   16.1648   20.8894 H   0  0  0  0  0  0  0  0  0  0  0  0
   19.9546   16.7525   21.7125 H   0  0  0  0  0  0  0  0  0  0  0  0
  1  2  1  0  0  0  0
  1  3  1  0  0  0  0
  1  4  1  0  0  0  0
  1  5  1  0  0  0  0
  5  6  1  0  0  0  0
  5  7  1  0  0  0  0
  5  8  1  0  0  0  0
  8  9  1  0  0  0  0
  8 10  1  0  0  0  0
  8 11  1  0  0  0  0
 11 12  1  0  0  0  0
 11 13  1  0  0  0  0
 11 14  1  0  0  0  0
 14 15  1  0  0  0  0
 14 16  1  0  0  0  0
 14 17  1  0  0  0  0
 17 18  1  0  0  0  0
 17 19  1  0  0  0  0
 19 20  1  0  0  0  0
 19 21  1  0  0  0  0
 19 22  1  0  0  0  0
 17 23  1  0  0  0  0
 23 24  1  0  0  0  0
 23 25  1  0  0  0  0
 23 26  1  0  0  0  0
M  END
> <VConfSearch Rank>
754

> <Conf_Id>
127

> <Delta U+W>
3.544

> <U+W>
-26.754

> <U>
27.509

> <W>
-54.263

> <W(PB)>
-56.496

> <W(SA)>
2.232

> <Valence>
6.375

> <Coulomb>
20.014

> <VdW>
1.120

> <VdW6>
-8.976

> <VdW12>
10.096

> <Bond>
0.304

> <Angle>
1.986

> <Pdih>
4.086

> <Idih>
0.000

> <Tether>
0.000

$$$$
VeraChem MOL file


 26 25  0  0  0  0  0  0  0  0999 V2000     
   20.7176   21.1483   25.3367 C   0  0  0  0  0  0  0  0  0  0  0  0
   20.4051   22.1285   25.7193 H   0  0  0  0  0  0  0  0  0  0  0  0
   21.5883   20.8251   25.9218 H   0  0  0  0  0  0  0  0  0  0  0  0
   21.0413   21.2848   24.2990 H   0  0  0  0  0  0  0  0  0  0  0  0
   19.5624   20.1272   25.4576 C   0  0  0  0  0  0  0  0  0  0  0  0
   18.6705   20.4946   24.9311 H   0  0  0  0  0  0  0  0  0  0  0  0
   19.2803   20.0598   26.5177 H   0  0  0  0  0  0  0  0  0  0  0  0
   19.9397   18.7094   24.9560 C   0  0  0  0  0  0  0  0  0  0  0  0
   21.0169   18.5348   25.0838 H   0  0  0  0  0  0  0  0  0  0  0  0
   19.4429   17.9746   25.6046 H   0  0  0  0  0  0  0  0  0  0  0  0
   19.5192   18.4008   23.4956 C   0  0  0  0  0  0  0  0  0  0  0  0
   18.4267   18.4770   23.4145 H   0  0  0  0  0  0  0  0  0  0  0  0
   19.7705   17.3524   23.2913 H   0  0  0  0  0  0  0  0  0  0  0  0
   20.1897   19.3146   22.4355 C   0  0  0  0  0  0  0  0  0  0  0  0
   19.8551   20.3478   22.5874 H   0  0  0  0  0  0  0  0  0  0  0  0
   21.2769   19.3160   22.5886 H   0  0  0  0  0  0  0  0  0  0  0  0
   19.8926   18.9347   20.9653 C   0  0  1  0  0  0  0  0  0  0  0  0
   20.3567   19.6986   20.3337 H   0  0  0  0  0  0  0  0  0  0  0  0
   20.5099   17.5790   20.5788 C   0  0  0  0  0  0  0  0  0  0  0  0
   21.5801   17.5550   20.8189 H   0  0  0  0  0  0  0  0  0  0  0  0
   20.4079   17.4058   19.5005 H   0  0  0  0  0  0  0  0  0  0  0  0
   20.0220   16.7459   21.0980 H   0  0  0  0  0  0  0  0  0  0  0  0
   18.4227   18.9686   20.6486 N   0  3  0  0  0  0  0  0  0  0  0  0
   18.0143   19.8838   20.8580 H   0  0  0  0  0  0  0  0  0  0  0  0
   18.2487   18.7753   19.6582 H   0  0  0  0  0  0  0  0  0  0  0  0
   17.9099   18.2702   21.1922 H   0  0  0  0  0  0  0  0  0  0  0  0
  1  2  1  0  0  0  0
  1  3  1  0  0  0  0
  1  4  1  0  0  0  0
  1  5  1  0  0  0  0
  5  6  1  0  0  0  0
  5  7  1  0  0  0  0
  5  8  1  0  0  0  0
  8  9  1  0  0  0  0
  8 10  1  0  0  0  0
  8 11  1  0  0  0  0
 11 12  1  0  0  0  0
 11 13  1  0  0  0  0
 11 14  1  0  0  0  0
 14 15  1  0  0  0  0
 14 16  1  0  0  0  0
 14 17  1  0  0  0  0
 17 18  1  0  0  0  0
 17 19  1  0  0  0  0
 19 20  1  0  0  0  0
 19 21  1  0  0  0  0
 19 22  1  0  0  0  0
 17 23  1  0  0  0  0
 23 24  1  0  0  0  0
 23 25  1  0  0  0  0
 23 26  1  0  0  0  0
M  END
> <VConfSearch Rank>
755

> <Conf_Id>
131

> <Delta U+W>
3.589

> <U+W>
-26.710

> <U>
27.573

> <W>
-54.283

> <W(PB)>
-56.537

> <W(SA)>
2.254

> <Valence>
6.363

> <Coulomb>
20.026

> <VdW>
1.184

> <VdW6>
-8.939

> <VdW12>
10.123

> <Bond>
0.298

> <Angle>
2.018

> <Pdih>
4.047

> <Idih>
0.000

> <Tether>
0.000

$$$$
VeraChem MOL file


 26 25  0  0  0  0  0  0  0  0999 V2000     
   17.9113   17.0414   23.5892 C   0  0  0  0  0  0  0  0  0  0  0  0
   17.3008   17.8445   24.0218 H   0  0  0  0  0  0  0  0  0  0  0  0
   18.2406   17.3503   22.5896 H   0  0  0  0  0  0  0  0  0  0  0  0
   17.2681   16.1608   23.4638 H   0  0  0  0  0  0  0  0  0  0  0  0
   19.1147   16.7050   24.4965 C   0  0  0  0  0  0  0  0  0  0  0  0
   19.7439   15.9518   24.0022 H   0  0  0  0  0  0  0  0  0  0  0  0
   18.7413   16.2329   25.4160 H   0  0  0  0  0  0  0  0  0  0  0  0
   19.9811   17.9287   24.8901 C   0  0  0  0  0  0  0  0  0  0  0  0
   19.3861   18.6367   25.4832 H   0  0  0  0  0  0  0  0  0  0  0  0
   20.7711   17.5700   25.5643 H   0  0  0  0  0  0  0  0  0  0  0  0
   20.6573   18.6560   23.6984 C   0  0  0  0  0  0  0  0  0  0  0  0
   20.8545   17.9354   22.8944 H   0  0  0  0  0  0  0  0  0  0  0  0
   21.6396   19.0222   24.0278 H   0  0  0  0  0  0  0  0  0  0  0  0
   19.8431   19.8687   23.1747 C   0  0  0  0  0  0  0  0  0  0  0  0
   18.8595   19.5485   22.8135 H   0  0  0  0  0  0  0  0  0  0  0  0
   19.6543   20.5474   24.0168 H   0  0  0  0  0  0  0  0  0  0  0  0
   20.5631   20.6636   22.0617 C   0  0  1  0  0  0  0  0  0  0  0  0
   21.5626   20.9287   22.4202 H   0  0  0  0  0  0  0  0  0  0  0  0
   20.7099   19.8432   20.7673 C   0  0  0  0  0  0  0  0  0  0  0  0
   19.7339   19.5004   20.4019 H   0  0  0  0  0  0  0  0  0  0  0  0
   21.3471   18.9649   20.9208 H   0  0  0  0  0  0  0  0  0  0  0  0
   21.1754   20.4467   19.9784 H   0  0  0  0  0  0  0  0  0  0  0  0
   19.8572   21.9605   21.7772 N   0  3  0  0  0  0  0  0  0  0  0  0
   18.9070   21.8019   21.4316 H   0  0  0  0  0  0  0  0  0  0  0  0
   19.7864   22.5435   22.6160 H   0  0  0  0  0  0  0  0  0  0  0  0
   20.3526   22.5080   21.0677 H   0  0  0  0  0  0  0  0  0  0  0  0
  1  2  1  0  0  0  0
  1  3  1  0  0  0  0
  1  4  1  0  0  0  0
  1  5  1  0  0  0  0
  5  6  1  0  0  0  0
  5  7  1  0  0  0  0
  5  8  1  0  0  0  0
  8  9  1  0  0  0  0
  8 10  1  0  0  0  0
  8 11  1  0  0  0  0
 11 12  1  0  0  0  0
 11 13  1  0  0  0  0
 11 14  1  0  0  0  0
 14 15  1  0  0  0  0
 14 16  1  0  0  0  0
 14 17  1  0  0  0  0
 17 18  1  0  0  0  0
 17 19  1  0  0  0  0
 19 20  1  0  0  0  0
 19 21  1  0  0  0  0
 19 22  1  0  0  0  0
 17 23  1  0  0  0  0
 23 24  1  0  0  0  0
 23 25  1  0  0  0  0
 23 26  1  0  0  0  0
M  END
> <VConfSearch Rank>
756

> <Conf_Id>
80

> <Delta U+W>
3.351

> <U+W>
-26.948

> <U>
27.261

> <W>
-54.209

> <W(PB)>
-56.471

> <W(SA)>
2.263

> <Valence>
6.230

> <Coulomb>
19.945

> <VdW>
1.087

> <VdW6>
-8.618

> <VdW12>
9.704

> <Bond>
0.277

> <Angle>
1.928

> <Pdih>
4.025

> <Idih>
0.000

> <Tether>
0.000

$$$$
VeraChem MOL file


 26 25  0  0  0  0  0  0  0  0999 V2000     
   19.9016   15.9062   23.7386 C   0  0  0  0  0  0  0  0  0  0  0  0
   19.5410   15.2994   24.5792 H   0  0  0  0  0  0  0  0  0  0  0  0
   20.1461   15.2254   22.9130 H   0  0  0  0  0  0  0  0  0  0  0  0
   20.8253   16.4019   24.0625 H   0  0  0  0  0  0  0  0  0  0  0  0
   18.8283   16.9333   23.3131 C   0  0  0  0  0  0  0  0  0  0  0  0
   18.6212   17.6180   24.1456 H   0  0  0  0  0  0  0  0  0  0  0  0
   17.8856   16.4002   23.1266 H   0  0  0  0  0  0  0  0  0  0  0  0
   19.2010   17.7298   22.0355 C   0  0  0  0  0  0  0  0  0  0  0  0
   19.2438   17.0279   21.1913 H   0  0  0  0  0  0  0  0  0  0  0  0
   18.3800   18.4169   21.8013 H   0  0  0  0  0  0  0  0  0  0  0  0
   20.5493   18.5026   22.0913 C   0  0  0  0  0  0  0  0  0  0  0  0
   20.7456   18.9613   21.1125 H   0  0  0  0  0  0  0  0  0  0  0  0
   21.3594   17.7746   22.2300 H   0  0  0  0  0  0  0  0  0  0  0  0
   20.6638   19.5871   23.1992 C   0  0  0  0  0  0  0  0  0  0  0  0
   20.0918   19.3038   24.0897 H   0  0  0  0  0  0  0  0  0  0  0  0
   21.7125   19.6143   23.5231 H   0  0  0  0  0  0  0  0  0  0  0  0
   20.2846   21.0219   22.7591 C   0  0  1  0  0  0  0  0  0  0  0  0
   20.9194   21.2976   21.9114 H   0  0  0  0  0  0  0  0  0  0  0  0
   18.8168   21.1472   22.3187 C   0  0  0  0  0  0  0  0  0  0  0  0
   18.6429   20.6086   21.3806 H   0  0  0  0  0  0  0  0  0  0  0  0
   18.5546   22.1968   22.1374 H   0  0  0  0  0  0  0  0  0  0  0  0
   18.1359   20.7523   23.0829 H   0  0  0  0  0  0  0  0  0  0  0  0
   20.5848   22.0136   23.8490 N   0  3  0  0  0  0  0  0  0  0  0  0
   21.5699   21.9827   24.1266 H   0  0  0  0  0  0  0  0  0  0  0  0
   20.3836   22.9716   23.5486 H   0  0  0  0  0  0  0  0  0  0  0  0
   20.0235   21.8318   24.6852 H   0  0  0  0  0  0  0  0  0  0  0  0
  1  2  1  0  0  0  0
  1  3  1  0  0  0  0
  1  4  1  0  0  0  0
  1  5  1  0  0  0  0
  5  6  1  0  0  0  0
  5  7  1  0  0  0  0
  5  8  1  0  0  0  0
  8  9  1  0  0  0  0
  8 10  1  0  0  0  0
  8 11  1  0  0  0  0
 11 12  1  0  0  0  0
 11 13  1  0  0  0  0
 11 14  1  0  0  0  0
 14 15  1  0  0  0  0
 14 16  1  0  0  0  0
 14 17  1  0  0  0  0
 17 18  1  0  0  0  0
 17 19  1  0  0  0  0
 19 20  1  0  0  0  0
 19 21  1  0  0  0  0
 19 22  1  0  0  0  0
 17 23  1  0  0  0  0
 23 24  1  0  0  0  0
 23 25  1  0  0  0  0
 23 26  1  0  0  0  0
M  END
> <VConfSearch Rank>
757

> <Conf_Id>
136

> <Delta U+W>
4.272

> <U+W>
-26.026

> <U>
28.262

> <W>
-54.288

> <W(PB)>
-56.488

> <W(SA)>
2.200

> <Valence>
7.096

> <Coulomb>
19.990

> <VdW>
1.175

> <VdW6>
-9.404

> <VdW12>
10.580

> <Bond>
0.360

> <Angle>
2.785

> <Pdih>
3.951

> <Idih>
0.000

> <Tether>
0.000

$$$$
VeraChem MOL file


 26 25  0  0  0  0  0  0  0  0999 V2000     
   22.0966   20.7011   24.1117 C   0  0  0  0  0  0  0  0  0  0  0  0
   22.1526   19.6569   23.7803 H   0  0  0  0  0  0  0  0  0  0  0  0
   23.1173   21.0223   24.3564 H   0  0  0  0  0  0  0  0  0  0  0  0
   21.5010   20.7453   25.0326 H   0  0  0  0  0  0  0  0  0  0  0  0
   21.4948   21.6065   23.0148 C   0  0  0  0  0  0  0  0  0  0  0  0
   22.0797   21.4971   22.0909 H   0  0  0  0  0  0  0  0  0  0  0  0
   21.6072   22.6553   23.3232 H   0  0  0  0  0  0  0  0  0  0  0  0
   19.9973   21.3396   22.7161 C   0  0  0  0  0  0  0  0  0  0  0  0
   19.3912   21.5453   23.6091 H   0  0  0  0  0  0  0  0  0  0  0  0
   19.6749   22.0736   21.9645 H   0  0  0  0  0  0  0  0  0  0  0  0
   19.6888   19.9210   22.1701 C   0  0  0  0  0  0  0  0  0  0  0  0
   20.5618   19.5282   21.6308 H   0  0  0  0  0  0  0  0  0  0  0  0
   18.8849   20.0090   21.4272 H   0  0  0  0  0  0  0  0  0  0  0  0
   19.2400   18.9246   23.2705 C   0  0  0  0  0  0  0  0  0  0  0  0
   19.9830   18.9028   24.0756 H   0  0  0  0  0  0  0  0  0  0  0  0
   18.3043   19.2758   23.7254 H   0  0  0  0  0  0  0  0  0  0  0  0
   19.0483   17.4880   22.7378 C   0  0  1  0  0  0  0  0  0  0  0  0
   19.9840   17.1694   22.2681 H   0  0  0  0  0  0  0  0  0  0  0  0
   18.7379   16.5255   23.8953 C   0  0  0  0  0  0  0  0  0  0  0  0
   17.8044   16.8013   24.4017 H   0  0  0  0  0  0  0  0  0  0  0  0
   19.5453   16.5355   24.6381 H   0  0  0  0  0  0  0  0  0  0  0  0
   18.6367   15.4967   23.5284 H   0  0  0  0  0  0  0  0  0  0  0  0
   17.9818   17.4024   21.6801 N   0  3  0  0  0  0  0  0  0  0  0  0
   17.0700   17.6896   22.0452 H   0  0  0  0  0  0  0  0  0  0  0  0
   18.1981   18.0046   20.8813 H   0  0  0  0  0  0  0  0  0  0  0  0
   17.8828   16.4471   21.3250 H   0  0  0  0  0  0  0  0  0  0  0  0
  1  2  1  0  0  0  0
  1  3  1  0  0  0  0
  1  4  1  0  0  0  0
  1  5  1  0  0  0  0
  5  6  1  0  0  0  0
  5  7  1  0  0  0  0
  5  8  1  0  0  0  0
  8  9  1  0  0  0  0
  8 10  1  0  0  0  0
  8 11  1  0  0  0  0
 11 12  1  0  0  0  0
 11 13  1  0  0  0  0
 11 14  1  0  0  0  0
 14 15  1  0  0  0  0
 14 16  1  0  0  0  0
 14 17  1  0  0  0  0
 17 18  1  0  0  0  0
 17 19  1  0  0  0  0
 19 20  1  0  0  0  0
 19 21  1  0  0  0  0
 19 22  1  0  0  0  0
 17 23  1  0  0  0  0
 23 24  1  0  0  0  0
 23 25  1  0  0  0  0
 23 26  1  0  0  0  0
M  END
> <VConfSearch Rank>
758

> <Conf_Id>
124

> <Delta U+W>
3.001

> <U+W>
-27.298

> <U>
26.787

> <W>
-54.085

> <W(PB)>
-56.347

> <W(SA)>
2.262

> <Valence>
5.742

> <Coulomb>
20.023

> <VdW>
1.022

> <VdW6>
-8.392

> <VdW12>
9.414

> <Bond>
0.261

> <Angle>
1.576

> <Pdih>
3.904

> <Idih>
0.000

> <Tether>
0.000

$$$$
VeraChem MOL file


 26 25  0  0  0  0  0  0  0  0999 V2000     
   17.6850   16.8150   22.7571 C   0  0  0  0  0  0  0  0  0  0  0  0
   16.7889   17.0774   22.1799 H   0  0  0  0  0  0  0  0  0  0  0  0
   17.5439   15.7984   23.1462 H   0  0  0  0  0  0  0  0  0  0  0  0
   17.7436   17.4930   23.6154 H   0  0  0  0  0  0  0  0  0  0  0  0
   18.9512   16.8837   21.8717 C   0  0  0  0  0  0  0  0  0  0  0  0
   18.8317   16.1583   21.0548 H   0  0  0  0  0  0  0  0  0  0  0  0
   19.8329   16.5559   22.4398 H   0  0  0  0  0  0  0  0  0  0  0  0
   19.1973   18.2847   21.2545 C   0  0  0  0  0  0  0  0  0  0  0  0
   19.6238   18.1450   20.2515 H   0  0  0  0  0  0  0  0  0  0  0  0
   18.2423   18.8052   21.0990 H   0  0  0  0  0  0  0  0  0  0  0  0
   20.1734   19.1865   22.0535 C   0  0  0  0  0  0  0  0  0  0  0  0
   20.3300   20.1076   21.4773 H   0  0  0  0  0  0  0  0  0  0  0  0
   21.1510   18.6895   22.1104 H   0  0  0  0  0  0  0  0  0  0  0  0
   19.6823   19.5452   23.4810 C   0  0  0  0  0  0  0  0  0  0  0  0
   18.6458   19.9031   23.4294 H   0  0  0  0  0  0  0  0  0  0  0  0
   19.6665   18.6381   24.0977 H   0  0  0  0  0  0  0  0  0  0  0  0
   20.5340   20.6092   24.2130 C   0  0  1  0  0  0  0  0  0  0  0  0
   20.0845   20.7631   25.1989 H   0  0  0  0  0  0  0  0  0  0  0  0
   21.9831   20.1395   24.4298 C   0  0  0  0  0  0  0  0  0  0  0  0
   22.5263   20.0508   23.4814 H   0  0  0  0  0  0  0  0  0  0  0  0
   22.0058   19.1644   24.9319 H   0  0  0  0  0  0  0  0  0  0  0  0
   22.5269   20.8519   25.0622 H   0  0  0  0  0  0  0  0  0  0  0  0
   20.4977   21.9473   23.5269 N   0  3  0  0  0  0  0  0  0  0  0  0
   21.0131   22.6545   24.0586 H   0  0  0  0  0  0  0  0  0  0  0  0
   20.9162   21.8993   22.5949 H   0  0  0  0  0  0  0  0  0  0  0  0
   19.5380   22.2871   23.4169 H   0  0  0  0  0  0  0  0  0  0  0  0
  1  2  1  0  0  0  0
  1  3  1  0  0  0  0
  1  4  1  0  0  0  0
  1  5  1  0  0  0  0
  5  6  1  0  0  0  0
  5  7  1  0  0  0  0
  5  8  1  0  0  0  0
  8  9  1  0  0  0  0
  8 10  1  0  0  0  0
  8 11  1  0  0  0  0
 11 12  1  0  0  0  0
 11 13  1  0  0  0  0
 11 14  1  0  0  0  0
 14 15  1  0  0  0  0
 14 16  1  0  0  0  0
 14 17  1  0  0  0  0
 17 18  1  0  0  0  0
 17 19  1  0  0  0  0
 19 20  1  0  0  0  0
 19 21  1  0  0  0  0
 19 22  1  0  0  0  0
 17 23  1  0  0  0  0
 23 24  1  0  0  0  0
 23 25  1  0  0  0  0
 23 26  1  0  0  0  0
M  END
> <VConfSearch Rank>
759

> <Conf_Id>
105

> <Delta U+W>
3.442

> <U+W>
-26.857

> <U>
27.313

> <W>
-54.169

> <W(PB)>
-56.414

> <W(SA)>
2.245

> <Valence>
6.229

> <Coulomb>
19.943

> <VdW>
1.140

> <VdW6>
-9.001

> <VdW12>
10.140

> <Bond>
0.294

> <Angle>
1.969

> <Pdih>
3.967

> <Idih>
0.000

> <Tether>
0.000

$$$$
VeraChem MOL file


 26 25  0  0  0  0  0  0  0  0999 V2000     
   19.0593   16.1140   23.1466 C   0  0  0  0  0  0  0  0  0  0  0  0
   19.3227   15.4910   22.2819 H   0  0  0  0  0  0  0  0  0  0  0  0
   18.4535   15.5005   23.8260 H   0  0  0  0  0  0  0  0  0  0  0  0
   18.4279   16.9352   22.7907 H   0  0  0  0  0  0  0  0  0  0  0  0
   20.3294   16.6239   23.8668 C   0  0  0  0  0  0  0  0  0  0  0  0
   20.8898   15.7481   24.2231 H   0  0  0  0  0  0  0  0  0  0  0  0
   20.0561   17.1936   24.7658 H   0  0  0  0  0  0  0  0  0  0  0  0
   21.2597   17.4665   22.9565 C   0  0  0  0  0  0  0  0  0  0  0  0
   22.2990   17.2634   23.2500 H   0  0  0  0  0  0  0  0  0  0  0  0
   21.1768   17.1311   21.9135 H   0  0  0  0  0  0  0  0  0  0  0  0
   21.0427   18.9993   23.0442 C   0  0  0  0  0  0  0  0  0  0  0  0
   21.8025   19.4898   22.4200 H   0  0  0  0  0  0  0  0  0  0  0  0
   21.2311   19.3289   24.0747 H   0  0  0  0  0  0  0  0  0  0  0  0
   19.6393   19.4704   22.5897 C   0  0  0  0  0  0  0  0  0  0  0  0
   19.4063   19.0126   21.6192 H   0  0  0  0  0  0  0  0  0  0  0  0
   18.8804   19.1208   23.3006 H   0  0  0  0  0  0  0  0  0  0  0  0
   19.5370   21.0050   22.4546 C   0  0  1  0  0  0  0  0  0  0  0  0
   20.3106   21.3399   21.7567 H   0  0  0  0  0  0  0  0  0  0  0  0
   18.1666   21.4008   21.8820 C   0  0  0  0  0  0  0  0  0  0  0  0
   17.3525   21.0887   22.5482 H   0  0  0  0  0  0  0  0  0  0  0  0
   18.0040   20.9346   20.9023 H   0  0  0  0  0  0  0  0  0  0  0  0
   18.1010   22.4876   21.7481 H   0  0  0  0  0  0  0  0  0  0  0  0
   19.7914   21.7152   23.7562 N   0  3  0  0  0  0  0  0  0  0  0  0
   20.7188   21.4932   24.1279 H   0  0  0  0  0  0  0  0  0  0  0  0
   19.7421   22.7317   23.6437 H   0  0  0  0  0  0  0  0  0  0  0  0
   19.1032   21.4516   24.4662 H   0  0  0  0  0  0  0  0  0  0  0  0
  1  2  1  0  0  0  0
  1  3  1  0  0  0  0
  1  4  1  0  0  0  0
  1  5  1  0  0  0  0
  5  6  1  0  0  0  0
  5  7  1  0  0  0  0
  5  8  1  0  0  0  0
  8  9  1  0  0  0  0
  8 10  1  0  0  0  0
  8 11  1  0  0  0  0
 11 12  1  0  0  0  0
 11 13  1  0  0  0  0
 11 14  1  0  0  0  0
 14 15  1  0  0  0  0
 14 16  1  0  0  0  0
 14 17  1  0  0  0  0
 17 18  1  0  0  0  0
 17 19  1  0  0  0  0
 19 20  1  0  0  0  0
 19 21  1  0  0  0  0
 19 22  1  0  0  0  0
 17 23  1  0  0  0  0
 23 24  1  0  0  0  0
 23 25  1  0  0  0  0
 23 26  1  0  0  0  0
M  END
> <VConfSearch Rank>
760

> <Conf_Id>
107

> <Delta U+W>
2.995

> <U+W>
-27.304

> <U>
26.796

> <W>
-54.100

> <W(PB)>
-56.404

> <W(SA)>
2.304

> <Valence>
5.706

> <Coulomb>
20.107

> <VdW>
0.982

> <VdW6>
-8.396

> <VdW12>
9.378

> <Bond>
0.254

> <Angle>
1.644

> <Pdih>
3.808

> <Idih>
0.000

> <Tether>
0.000

$$$$
VeraChem MOL file


 26 25  0  0  0  0  0  0  0  0999 V2000     
   20.6337   22.6508   20.8415 C   0  0  0  0  0  0  0  0  0  0  0  0
   19.6960   22.6967   20.2724 H   0  0  0  0  0  0  0  0  0  0  0  0
   20.9412   23.6801   21.0677 H   0  0  0  0  0  0  0  0  0  0  0  0
   21.4025   22.2031   20.1982 H   0  0  0  0  0  0  0  0  0  0  0  0
   20.4549   21.8374   22.1408 C   0  0  0  0  0  0  0  0  0  0  0  0
   19.7053   22.3278   22.7777 H   0  0  0  0  0  0  0  0  0  0  0  0
   21.3987   21.8381   22.7040 H   0  0  0  0  0  0  0  0  0  0  0  0
   20.0216   20.3833   21.8504 C   0  0  0  0  0  0  0  0  0  0  0  0
   19.0797   20.3886   21.2844 H   0  0  0  0  0  0  0  0  0  0  0  0
   20.7730   19.8979   21.2122 H   0  0  0  0  0  0  0  0  0  0  0  0
   19.8406   19.5656   23.1493 C   0  0  0  0  0  0  0  0  0  0  0  0
   19.0864   20.0502   23.7849 H   0  0  0  0  0  0  0  0  0  0  0  0
   20.7838   19.5709   23.7117 H   0  0  0  0  0  0  0  0  0  0  0  0
   19.4078   18.1086   22.8548 C   0  0  0  0  0  0  0  0  0  0  0  0
   18.4941   18.1262   22.2458 H   0  0  0  0  0  0  0  0  0  0  0  0
   20.1766   17.6073   22.2517 H   0  0  0  0  0  0  0  0  0  0  0  0
   19.1364   17.2897   24.1355 C   0  0  1  0  0  0  0  0  0  0  0  0
   18.3861   17.8208   24.7294 H   0  0  0  0  0  0  0  0  0  0  0  0
   18.5745   15.9051   23.7753 C   0  0  0  0  0  0  0  0  0  0  0  0
   19.2921   15.3283   23.1784 H   0  0  0  0  0  0  0  0  0  0  0  0
   17.6468   15.9990   23.1971 H   0  0  0  0  0  0  0  0  0  0  0  0
   18.3446   15.3314   24.6816 H   0  0  0  0  0  0  0  0  0  0  0  0
   20.3583   17.1537   25.0025 N   0  3  0  0  0  0  0  0  0  0  0  0
   21.1120   16.6655   24.5117 H   0  0  0  0  0  0  0  0  0  0  0  0
   20.7179   18.0682   25.2886 H   0  0  0  0  0  0  0  0  0  0  0  0
   20.1550   16.6247   25.8553 H   0  0  0  0  0  0  0  0  0  0  0  0
  1  2  1  0  0  0  0
  1  3  1  0  0  0  0
  1  4  1  0  0  0  0
  1  5  1  0  0  0  0
  5  6  1  0  0  0  0
  5  7  1  0  0  0  0
  5  8  1  0  0  0  0
  8  9  1  0  0  0  0
  8 10  1  0  0  0  0
  8 11  1  0  0  0  0
 11 12  1  0  0  0  0
 11 13  1  0  0  0  0
 11 14  1  0  0  0  0
 14 15  1  0  0  0  0
 14 16  1  0  0  0  0
 14 17  1  0  0  0  0
 17 18  1  0  0  0  0
 17 19  1  0  0  0  0
 19 20  1  0  0  0  0
 19 21  1  0  0  0  0
 19 22  1  0  0  0  0
 17 23  1  0  0  0  0
 23 24  1  0  0  0  0
 23 25  1  0  0  0  0
 23 26  1  0  0  0  0
M  END
> <VConfSearch Rank>
761

> <Conf_Id>
122

> <Delta U+W>
0.000

> <U+W>
-30.299

> <U>
23.517

> <W>
-53.816

> <W(PB)>
-56.162

> <W(SA)>
2.346

> <Valence>
2.737

> <Coulomb>
19.862

> <VdW>
0.919

> <VdW6>
-6.793

> <VdW12>
7.712

> <Bond>
0.171

> <Angle>
0.873

> <Pdih>
1.693

> <Idih>
0.000

> <Tether>
0.000

$$$$
VeraChem MOL file


 26 25  0  0  0  0  0  0  0  0999 V2000     
   16.1232   17.3115   23.7656 C   0  0  0  0  0  0  0  0  0  0  0  0
   15.3393   17.3689   24.5319 H   0  0  0  0  0  0  0  0  0  0  0  0
   15.6551   17.4970   22.7901 H   0  0  0  0  0  0  0  0  0  0  0  0
   16.5200   16.2879   23.7654 H   0  0  0  0  0  0  0  0  0  0  0  0
   17.2394   18.3390   24.0498 C   0  0  0  0  0  0  0  0  0  0  0  0
   17.6647   18.1491   25.0452 H   0  0  0  0  0  0  0  0  0  0  0  0
   16.8066   19.3489   24.0774 H   0  0  0  0  0  0  0  0  0  0  0  0
   18.3567   18.2792   22.9847 C   0  0  0  0  0  0  0  0  0  0  0  0
   18.7848   17.2675   22.9596 H   0  0  0  0  0  0  0  0  0  0  0  0
   17.9253   18.4664   21.9916 H   0  0  0  0  0  0  0  0  0  0  0  0
   19.4762   19.3071   23.2656 C   0  0  0  0  0  0  0  0  0  0  0  0
   19.8938   19.1161   24.2629 H   0  0  0  0  0  0  0  0  0  0  0  0
   19.0481   20.3189   23.2859 H   0  0  0  0  0  0  0  0  0  0  0  0
   20.5969   19.2416   22.1988 C   0  0  0  0  0  0  0  0  0  0  0  0
   21.0715   18.2515   22.2204 H   0  0  0  0  0  0  0  0  0  0  0  0
   20.1402   19.3460   21.2057 H   0  0  0  0  0  0  0  0  0  0  0  0
   21.6745   20.3384   22.3586 C   0  0  1  0  0  0  0  0  0  0  0  0
   21.1737   21.3114   22.3763 H   0  0  0  0  0  0  0  0  0  0  0  0
   22.4759   20.1794   23.6633 C   0  0  0  0  0  0  0  0  0  0  0  0
   22.9467   19.1901   23.7218 H   0  0  0  0  0  0  0  0  0  0  0  0
   21.8355   20.3084   24.5434 H   0  0  0  0  0  0  0  0  0  0  0  0
   23.2672   20.9366   23.7252 H   0  0  0  0  0  0  0  0  0  0  0  0
   22.6040   20.3616   21.1769 N   0  3  0  0  0  0  0  0  0  0  0  0
   23.1187   19.4815   21.0880 H   0  0  0  0  0  0  0  0  0  0  0  0
   22.0963   20.5110   20.3002 H   0  0  0  0  0  0  0  0  0  0  0  0
   23.2953   21.1125   21.2594 H   0  0  0  0  0  0  0  0  0  0  0  0
  1  2  1  0  0  0  0
  1  3  1  0  0  0  0
  1  4  1  0  0  0  0
  1  5  1  0  0  0  0
  5  6  1  0  0  0  0
  5  7  1  0  0  0  0
  5  8  1  0  0  0  0
  8  9  1  0  0  0  0
  8 10  1  0  0  0  0
  8 11  1  0  0  0  0
 11 12  1  0  0  0  0
 11 13  1  0  0  0  0
 11 14  1  0  0  0  0
 14 15  1  0  0  0  0
 14 16  1  0  0  0  0
 14 17  1  0  0  0  0
 17 18  1  0  0  0  0
 17 19  1  0  0  0  0
 19 20  1  0  0  0  0
 19 21  1  0  0  0  0
 19 22  1  0  0  0  0
 17 23  1  0  0  0  0
 23 24  1  0  0  0  0
 23 25  1  0  0  0  0
 23 26  1  0  0  0  0
M  END
> <VConfSearch Rank>
762

> <Conf_Id>
54

> <Delta U+W>
0.453

> <U+W>
-29.845

> <U>
23.817

> <W>
-53.663

> <W(PB)>
-56.021

> <W(SA)>
2.358

> <Valence>
3.277

> <Coulomb>
19.492

> <VdW>
1.049

> <VdW6>
-6.949

> <VdW12>
7.998

> <Bond>
0.183

> <Angle>
1.152

> <Pdih>
1.942

> <Idih>
0.000

> <Tether>
0.000

$$$$
VeraChem MOL file


 26 25  0  0  0  0  0  0  0  0999 V2000     
   18.0547   18.1277   19.9226 C   0  0  0  0  0  0  0  0  0  0  0  0
   18.4464   19.0061   19.3934 H   0  0  0  0  0  0  0  0  0  0  0  0
   18.8243   17.3465   19.9092 H   0  0  0  0  0  0  0  0  0  0  0  0
   17.1944   17.7506   19.3546 H   0  0  0  0  0  0  0  0  0  0  0  0
   17.6321   18.4901   21.3648 C   0  0  0  0  0  0  0  0  0  0  0  0
   17.2762   17.5897   21.8850 H   0  0  0  0  0  0  0  0  0  0  0  0
   16.7742   19.1753   21.3162 H   0  0  0  0  0  0  0  0  0  0  0  0
   18.7560   19.1637   22.1893 C   0  0  0  0  0  0  0  0  0  0  0  0
   19.1274   20.0454   21.6489 H   0  0  0  0  0  0  0  0  0  0  0  0
   18.3077   19.5240   23.1227 H   0  0  0  0  0  0  0  0  0  0  0  0
   19.9322   18.2110   22.5212 C   0  0  0  0  0  0  0  0  0  0  0  0
   20.2986   17.7502   21.5953 H   0  0  0  0  0  0  0  0  0  0  0  0
   19.5675   17.3856   23.1481 H   0  0  0  0  0  0  0  0  0  0  0  0
   21.1443   18.8882   23.2142 C   0  0  0  0  0  0  0  0  0  0  0  0
   21.9331   18.1283   23.2948 H   0  0  0  0  0  0  0  0  0  0  0  0
   21.5554   19.6777   22.5713 H   0  0  0  0  0  0  0  0  0  0  0  0
   20.8564   19.4532   24.6257 C   0  0  1  0  0  0  0  0  0  0  0  0
   20.1783   18.7662   25.1412 H   0  0  0  0  0  0  0  0  0  0  0  0
   22.1570   19.5472   25.4410 C   0  0  0  0  0  0  0  0  0  0  0  0
   21.9574   19.9331   26.4483 H   0  0  0  0  0  0  0  0  0  0  0  0
   22.8817   20.2136   24.9565 H   0  0  0  0  0  0  0  0  0  0  0  0
   22.6213   18.5593   25.5517 H   0  0  0  0  0  0  0  0  0  0  0  0
   20.1844   20.7990   24.5898 N   0  3  0  0  0  0  0  0  0  0  0  0
   19.3100   20.7680   24.0609 H   0  0  0  0  0  0  0  0  0  0  0  0
   19.9635   21.1317   25.5327 H   0  0  0  0  0  0  0  0  0  0  0  0
   20.7846   21.5021   24.1509 H   0  0  0  0  0  0  0  0  0  0  0  0
  1  2  1  0  0  0  0
  1  3  1  0  0  0  0
  1  4  1  0  0  0  0
  1  5  1  0  0  0  0
  5  6  1  0  0  0  0
  5  7  1  0  0  0  0
  5  8  1  0  0  0  0
  8  9  1  0  0  0  0
  8 10  1  0  0  0  0
  8 11  1  0  0  0  0
 11 12  1  0  0  0  0
 11 13  1  0  0  0  0
 11 14  1  0  0  0  0
 14 15  1  0  0  0  0
 14 16  1  0  0  0  0
 14 17  1  0  0  0  0
 17 18  1  0  0  0  0
 17 19  1  0  0  0  0
 19 20  1  0  0  0  0
 19 21  1  0  0  0  0
 19 22  1  0  0  0  0
 17 23  1  0  0  0  0
 23 24  1  0  0  0  0
 23 25  1  0  0  0  0
 23 26  1  0  0  0  0
M  END
> <VConfSearch Rank>
763

> <Conf_Id>
110

> <Delta U+W>
3.764

> <U+W>
-26.535

> <U>
27.400

> <W>
-53.935

> <W(PB)>
-56.238

> <W(SA)>
2.303

> <Valence>
5.205

> <Coulomb>
21.096

> <VdW>
1.098

> <VdW6>
-8.389

> <VdW12>
9.488

> <Bond>
0.270

> <Angle>
1.912

> <Pdih>
3.023

> <Idih>
0.000

> <Tether>
0.000

$$$$
VeraChem MOL file


 26 25  0  0  0  0  0  0  0  0999 V2000     
   17.6228   19.4841   20.0150 C   0  0  0  0  0  0  0  0  0  0  0  0
   17.2566   20.0873   19.1741 H   0  0  0  0  0  0  0  0  0  0  0  0
   18.4425   18.8590   19.6397 H   0  0  0  0  0  0  0  0  0  0  0  0
   16.8058   18.8249   20.3361 H   0  0  0  0  0  0  0  0  0  0  0  0
   18.0886   20.3963   21.1724 C   0  0  0  0  0  0  0  0  0  0  0  0
   17.2723   21.0854   21.4306 H   0  0  0  0  0  0  0  0  0  0  0  0
   18.9251   21.0238   20.8344 H   0  0  0  0  0  0  0  0  0  0  0  0
   18.5009   19.6162   22.4440 C   0  0  0  0  0  0  0  0  0  0  0  0
   18.7041   20.3404   23.2420 H   0  0  0  0  0  0  0  0  0  0  0  0
   17.6516   19.0124   22.7924 H   0  0  0  0  0  0  0  0  0  0  0  0
   19.7336   18.7001   22.2311 C   0  0  0  0  0  0  0  0  0  0  0  0
   20.5509   19.2593   21.7550 H   0  0  0  0  0  0  0  0  0  0  0  0
   19.4585   17.9047   21.5257 H   0  0  0  0  0  0  0  0  0  0  0  0
   20.2357   18.0327   23.5391 C   0  0  0  0  0  0  0  0  0  0  0  0
   19.4096   17.9274   24.2548 H   0  0  0  0  0  0  0  0  0  0  0  0
   20.5504   17.0097   23.2937 H   0  0  0  0  0  0  0  0  0  0  0  0
   21.4380   18.7408   24.2091 C   0  0  1  0  0  0  0  0  0  0  0  0
   22.2541   18.7861   23.4814 H   0  0  0  0  0  0  0  0  0  0  0  0
   21.1136   20.1768   24.6546 C   0  0  0  0  0  0  0  0  0  0  0  0
   20.2445   20.1989   25.3238 H   0  0  0  0  0  0  0  0  0  0  0  0
   20.9059   20.8193   23.7911 H   0  0  0  0  0  0  0  0  0  0  0  0
   21.9648   20.6181   25.1874 H   0  0  0  0  0  0  0  0  0  0  0  0
   21.9550   17.9406   25.3725 N   0  3  0  0  0  0  0  0  0  0  0  0
   22.2244   16.9940   25.0896 H   0  0  0  0  0  0  0  0  0  0  0  0
   22.7801   18.3792   25.7910 H   0  0  0  0  0  0  0  0  0  0  0  0
   21.2498   17.8524   26.1089 H   0  0  0  0  0  0  0  0  0  0  0  0
  1  2  1  0  0  0  0
  1  3  1  0  0  0  0
  1  4  1  0  0  0  0
  1  5  1  0  0  0  0
  5  6  1  0  0  0  0
  5  7  1  0  0  0  0
  5  8  1  0  0  0  0
  8  9  1  0  0  0  0
  8 10  1  0  0  0  0
  8 11  1  0  0  0  0
 11 12  1  0  0  0  0
 11 13  1  0  0  0  0
 11 14  1  0  0  0  0
 14 15  1  0  0  0  0
 14 16  1  0  0  0  0
 14 17  1  0  0  0  0
 17 18  1  0  0  0  0
 17 19  1  0  0  0  0
 19 20  1  0  0  0  0
 19 21  1  0  0  0  0
 19 22  1  0  0  0  0
 17 23  1  0  0  0  0
 23 24  1  0  0  0  0
 23 25  1  0  0  0  0
 23 26  1  0  0  0  0
M  END
> <VConfSearch Rank>
764

> <Conf_Id>
34

> <Delta U+W>
3.568

> <U+W>
-26.731

> <U>
27.221

> <W>
-53.952

> <W(PB)>
-56.213

> <W(SA)>
2.261

> <Valence>
6.368

> <Coulomb>
19.698

> <VdW>
1.155

> <VdW6>
-8.532

> <VdW12>
9.687

> <Bond>
0.272

> <Angle>
1.847

> <Pdih>
4.248

> <Idih>
0.000

> <Tether>
0.000

$$$$
VeraChem MOL file


 26 25  0  0  0  0  0  0  0  0999 V2000     
   22.3987   16.1999   21.6502 C   0  0  0  0  0  0  0  0  0  0  0  0
   21.9719   16.0355   20.6522 H   0  0  0  0  0  0  0  0  0  0  0  0
   23.2959   16.8230   21.5400 H   0  0  0  0  0  0  0  0  0  0  0  0
   22.7118   15.2256   22.0474 H   0  0  0  0  0  0  0  0  0  0  0  0
   21.3719   16.8670   22.5897 C   0  0  0  0  0  0  0  0  0  0  0  0
   21.8156   16.9872   23.5880 H   0  0  0  0  0  0  0  0  0  0  0  0
   20.5019   16.2058   22.7069 H   0  0  0  0  0  0  0  0  0  0  0  0
   20.9141   18.2414   22.0531 C   0  0  0  0  0  0  0  0  0  0  0  0
   21.7877   18.8975   21.9353 H   0  0  0  0  0  0  0  0  0  0  0  0
   20.4739   18.1161   21.0542 H   0  0  0  0  0  0  0  0  0  0  0  0
   19.8854   18.9128   22.9910 C   0  0  0  0  0  0  0  0  0  0  0  0
   20.3312   19.0331   23.9872 H   0  0  0  0  0  0  0  0  0  0  0  0
   19.0194   18.2477   23.1057 H   0  0  0  0  0  0  0  0  0  0  0  0
   19.4279   20.2906   22.4450 C   0  0  0  0  0  0  0  0  0  0  0  0
   20.3088   20.9271   22.2890 H   0  0  0  0  0  0  0  0  0  0  0  0
   18.9739   20.1557   21.4543 H   0  0  0  0  0  0  0  0  0  0  0  0
   18.4297   21.0516   23.3494 C   0  0  1  0  0  0  0  0  0  0  0  0
   18.2171   22.0094   22.8643 H   0  0  0  0  0  0  0  0  0  0  0  0
   17.0952   20.3003   23.4989 C   0  0  0  0  0  0  0  0  0  0  0  0
   17.2147   19.3692   24.0654 H   0  0  0  0  0  0  0  0  0  0  0  0
   16.6742   20.0538   22.5162 H   0  0  0  0  0  0  0  0  0  0  0  0
   16.3625   20.9220   24.0278 H   0  0  0  0  0  0  0  0  0  0  0  0
   19.0133   21.3866   24.6946 N   0  3  0  0  0  0  0  0  0  0  0  0
   18.3634   21.9441   25.2560 H   0  0  0  0  0  0  0  0  0  0  0  0
   19.2303   20.5405   25.2269 H   0  0  0  0  0  0  0  0  0  0  0  0
   19.8793   21.9254   24.6047 H   0  0  0  0  0  0  0  0  0  0  0  0
  1  2  1  0  0  0  0
  1  3  1  0  0  0  0
  1  4  1  0  0  0  0
  1  5  1  0  0  0  0
  5  6  1  0  0  0  0
  5  7  1  0  0  0  0
  5  8  1  0  0  0  0
  8  9  1  0  0  0  0
  8 10  1  0  0  0  0
  8 11  1  0  0  0  0
 11 12  1  0  0  0  0
 11 13  1  0  0  0  0
 11 14  1  0  0  0  0
 14 15  1  0  0  0  0
 14 16  1  0  0  0  0
 14 17  1  0  0  0  0
 17 18  1  0  0  0  0
 17 19  1  0  0  0  0
 19 20  1  0  0  0  0
 19 21  1  0  0  0  0
 19 22  1  0  0  0  0
 17 23  1  0  0  0  0
 23 24  1  0  0  0  0
 23 25  1  0  0  0  0
 23 26  1  0  0  0  0
M  END
> <VConfSearch Rank>
765

> <Conf_Id>
132

> <Delta U+W>
0.363

> <U+W>
-29.936

> <U>
24.060

> <W>
-53.996

> <W(PB)>
-56.327

> <W(SA)>
2.332

> <Valence>
3.249

> <Coulomb>
19.781

> <VdW>
1.030

> <VdW6>
-7.421

> <VdW12>
8.451

> <Bond>
0.207

> <Angle>
1.205

> <Pdih>
1.837

> <Idih>
0.000

> <Tether>
0.000

$$$$
VeraChem MOL file


 26 25  0  0  0  0  0  0  0  0999 V2000     
   23.1179   20.7629   24.3629 C   0  0  0  0  0  0  0  0  0  0  0  0
   23.5479   20.5384   25.3476 H   0  0  0  0  0  0  0  0  0  0  0  0
   23.9112   20.6421   23.6137 H   0  0  0  0  0  0  0  0  0  0  0  0
   22.8055   21.8154   24.3635 H   0  0  0  0  0  0  0  0  0  0  0  0
   21.9247   19.8307   24.0639 C   0  0  0  0  0  0  0  0  0  0  0  0
   21.1736   19.9503   24.8557 H   0  0  0  0  0  0  0  0  0  0  0  0
   22.2619   18.7854   24.0990 H   0  0  0  0  0  0  0  0  0  0  0  0
   21.2988   20.1321   22.6815 C   0  0  0  0  0  0  0  0  0  0  0  0
   20.9121   21.1604   22.6656 H   0  0  0  0  0  0  0  0  0  0  0  0
   22.0873   20.0884   21.9173 H   0  0  0  0  0  0  0  0  0  0  0  0
   20.1734   19.1470   22.2797 C   0  0  0  0  0  0  0  0  0  0  0  0
   20.5694   18.1229   22.2913 H   0  0  0  0  0  0  0  0  0  0  0  0
   19.8947   19.3603   21.2398 H   0  0  0  0  0  0  0  0  0  0  0  0
   18.9155   19.2453   23.1860 C   0  0  0  0  0  0  0  0  0  0  0  0
   19.1868   19.0012   24.2201 H   0  0  0  0  0  0  0  0  0  0  0  0
   18.5596   20.2839   23.2028 H   0  0  0  0  0  0  0  0  0  0  0  0
   17.7428   18.3241   22.7735 C   0  0  1  0  0  0  0  0  0  0  0  0
   16.9530   18.4512   23.5204 H   0  0  0  0  0  0  0  0  0  0  0  0
   17.1525   18.7110   21.4060 C   0  0  0  0  0  0  0  0  0  0  0  0
   17.8552   18.5121   20.5883 H   0  0  0  0  0  0  0  0  0  0  0  0
   16.8885   19.7755   21.3821 H   0  0  0  0  0  0  0  0  0  0  0  0
   16.2386   18.1377   21.2077 H   0  0  0  0  0  0  0  0  0  0  0  0
   18.1174   16.8678   22.8068 N   0  3  0  0  0  0  0  0  0  0  0  0
   18.4675   16.5910   23.7283 H   0  0  0  0  0  0  0  0  0  0  0  0
   17.3143   16.2699   22.5926 H   0  0  0  0  0  0  0  0  0  0  0  0
   18.8482   16.6566   22.1230 H   0  0  0  0  0  0  0  0  0  0  0  0
  1  2  1  0  0  0  0
  1  3  1  0  0  0  0
  1  4  1  0  0  0  0
  1  5  1  0  0  0  0
  5  6  1  0  0  0  0
  5  7  1  0  0  0  0
  5  8  1  0  0  0  0
  8  9  1  0  0  0  0
  8 10  1  0  0  0  0
  8 11  1  0  0  0  0
 11 12  1  0  0  0  0
 11 13  1  0  0  0  0
 11 14  1  0  0  0  0
 14 15  1  0  0  0  0
 14 16  1  0  0  0  0
 14 17  1  0  0  0  0
 17 18  1  0  0  0  0
 17 19  1  0  0  0  0
 19 20  1  0  0  0  0
 19 21  1  0  0  0  0
 19 22  1  0  0  0  0
 17 23  1  0  0  0  0
 23 24  1  0  0  0  0
 23 25  1  0  0  0  0
 23 26  1  0  0  0  0
M  END
> <VConfSearch Rank>
766

> <Conf_Id>
46

> <Delta U+W>
1.114

> <U+W>
-29.185

> <U>
24.990

> <W>
-54.175

> <W(PB)>
-56.455

> <W(SA)>
2.279

> <Valence>
3.862

> <Coulomb>
19.956

> <VdW>
1.172

> <VdW6>
-8.054

> <VdW12>
9.226

> <Bond>
0.258

> <Angle>
1.499

> <Pdih>
2.106

> <Idih>
0.000

> <Tether>
0.000

$$$$
VeraChem MOL file


 26 25  0  0  0  0  0  0  0  0999 V2000     
   22.0422   21.2757   24.9721 C   0  0  0  0  0  0  0  0  0  0  0  0
   22.7015   21.0490   24.1252 H   0  0  0  0  0  0  0  0  0  0  0  0
   21.5187   22.2168   24.7592 H   0  0  0  0  0  0  0  0  0  0  0  0
   22.6796   21.4379   25.8510 H   0  0  0  0  0  0  0  0  0  0  0  0
   21.0397   20.1292   25.2359 C   0  0  0  0  0  0  0  0  0  0  0  0
   20.4935   20.3453   26.1648 H   0  0  0  0  0  0  0  0  0  0  0  0
   21.5870   19.1927   25.4125 H   0  0  0  0  0  0  0  0  0  0  0  0
   20.0145   19.9300   24.0935 C   0  0  0  0  0  0  0  0  0  0  0  0
   19.2739   19.1913   24.4267 H   0  0  0  0  0  0  0  0  0  0  0  0
   19.4642   20.8666   23.9283 H   0  0  0  0  0  0  0  0  0  0  0  0
   20.6573   19.4604   22.7636 C   0  0  0  0  0  0  0  0  0  0  0  0
   21.2317   18.5400   22.9324 H   0  0  0  0  0  0  0  0  0  0  0  0
   21.3809   20.2116   22.4217 H   0  0  0  0  0  0  0  0  0  0  0  0
   19.6235   19.2414   21.6289 C   0  0  0  0  0  0  0  0  0  0  0  0
   19.1248   20.1966   21.4169 H   0  0  0  0  0  0  0  0  0  0  0  0
   20.1562   18.9637   20.7097 H   0  0  0  0  0  0  0  0  0  0  0  0
   18.5518   18.1721   21.9392 C   0  0  1  0  0  0  0  0  0  0  0  0
   18.0126   18.4749   22.8415 H   0  0  0  0  0  0  0  0  0  0  0  0
   17.5394   18.0798   20.7865 C   0  0  0  0  0  0  0  0  0  0  0  0
   16.7530   17.3508   21.0178 H   0  0  0  0  0  0  0  0  0  0  0  0
   18.0270   17.7719   19.8530 H   0  0  0  0  0  0  0  0  0  0  0  0
   17.0546   19.0490   20.6152 H   0  0  0  0  0  0  0  0  0  0  0  0
   19.1528   16.8233   22.2260 N   0  3  0  0  0  0  0  0  0  0  0  0
   19.8000   16.8659   23.0178 H   0  0  0  0  0  0  0  0  0  0  0  0
   18.4323   16.1326   22.4543 H   0  0  0  0  0  0  0  0  0  0  0  0
   19.6738   16.4682   21.4200 H   0  0  0  0  0  0  0  0  0  0  0  0
  1  2  1  0  0  0  0
  1  3  1  0  0  0  0
  1  4  1  0  0  0  0
  1  5  1  0  0  0  0
  5  6  1  0  0  0  0
  5  7  1  0  0  0  0
  5  8  1  0  0  0  0
  8  9  1  0  0  0  0
  8 10  1  0  0  0  0
  8 11  1  0  0  0  0
 11 12  1  0  0  0  0
 11 13  1  0  0  0  0
 11 14  1  0  0  0  0
 14 15  1  0  0  0  0
 14 16  1  0  0  0  0
 14 17  1  0  0  0  0
 17 18  1  0  0  0  0
 17 19  1  0  0  0  0
 19 20  1  0  0  0  0
 19 21  1  0  0  0  0
 19 22  1  0  0  0  0
 17 23  1  0  0  0  0
 23 24  1  0  0  0  0
 23 25  1  0  0  0  0
 23 26  1  0  0  0  0
M  END
> <VConfSearch Rank>
767

> <Conf_Id>
113

> <Delta U+W>
1.137

> <U+W>
-29.162

> <U>
24.833

> <W>
-53.995

> <W(PB)>
-56.288

> <W(SA)>
2.294

> <Valence>
3.589

> <Coulomb>
20.270

> <VdW>
0.974

> <VdW6>
-8.255

> <VdW12>
9.229

> <Bond>
0.244

> <Angle>
1.377

> <Pdih>
1.967

> <Idih>
0.000

> <Tether>
0.000

$$$$
VeraChem MOL file


 26 25  0  0  0  0  0  0  0  0999 V2000     
   20.3617   15.3750   23.9424 C   0  0  0  0  0  0  0  0  0  0  0  0
   21.2772   14.8025   23.7444 H   0  0  0  0  0  0  0  0  0  0  0  0
   20.2516   15.4689   25.0307 H   0  0  0  0  0  0  0  0  0  0  0  0
   19.5120   14.7933   23.5617 H   0  0  0  0  0  0  0  0  0  0  0  0
   20.4307   16.7627   23.2704 C   0  0  0  0  0  0  0  0  0  0  0  0
   20.5701   16.6363   22.1877 H   0  0  0  0  0  0  0  0  0  0  0  0
   21.3140   17.2961   23.6456 H   0  0  0  0  0  0  0  0  0  0  0  0
   19.1517   17.5905   23.5396 C   0  0  0  0  0  0  0  0  0  0  0  0
   18.2757   17.0035   23.2305 H   0  0  0  0  0  0  0  0  0  0  0  0
   19.0417   17.7618   24.6193 H   0  0  0  0  0  0  0  0  0  0  0  0
   19.1217   18.9464   22.7922 C   0  0  0  0  0  0  0  0  0  0  0  0
   18.1342   19.4000   22.9480 H   0  0  0  0  0  0  0  0  0  0  0  0
   19.2123   18.7629   21.7134 H   0  0  0  0  0  0  0  0  0  0  0  0
   20.2260   19.9326   23.2618 C   0  0  0  0  0  0  0  0  0  0  0  0
   20.1905   20.0210   24.3555 H   0  0  0  0  0  0  0  0  0  0  0  0
   21.2147   19.5218   23.0222 H   0  0  0  0  0  0  0  0  0  0  0  0
   20.1312   21.3514   22.6524 C   0  0  1  0  0  0  0  0  0  0  0  0
   20.9539   21.9400   23.0703 H   0  0  0  0  0  0  0  0  0  0  0  0
   20.3003   21.3354   21.1231 C   0  0  0  0  0  0  0  0  0  0  0  0
   19.4576   20.8391   20.6273 H   0  0  0  0  0  0  0  0  0  0  0  0
   21.2227   20.8142   20.8382 H   0  0  0  0  0  0  0  0  0  0  0  0
   20.3628   22.3588   20.7333 H   0  0  0  0  0  0  0  0  0  0  0  0
   18.8674   22.0648   23.0477 N   0  3  0  0  0  0  0  0  0  0  0  0
   18.7684   22.1174   24.0655 H   0  0  0  0  0  0  0  0  0  0  0  0
   18.8514   23.0238   22.6893 H   0  0  0  0  0  0  0  0  0  0  0  0
   18.0403   21.5871   22.6819 H   0  0  0  0  0  0  0  0  0  0  0  0
  1  2  1  0  0  0  0
  1  3  1  0  0  0  0
  1  4  1  0  0  0  0
  1  5  1  0  0  0  0
  5  6  1  0  0  0  0
  5  7  1  0  0  0  0
  5  8  1  0  0  0  0
  8  9  1  0  0  0  0
  8 10  1  0  0  0  0
  8 11  1  0  0  0  0
 11 12  1  0  0  0  0
 11 13  1  0  0  0  0
 11 14  1  0  0  0  0
 14 15  1  0  0  0  0
 14 16  1  0  0  0  0
 14 17  1  0  0  0  0
 17 18  1  0  0  0  0
 17 19  1  0  0  0  0
 19 20  1  0  0  0  0
 19 21  1  0  0  0  0
 19 22  1  0  0  0  0
 17 23  1  0  0  0  0
 23 24  1  0  0  0  0
 23 25  1  0  0  0  0
 23 26  1  0  0  0  0
M  END
> <VConfSearch Rank>
768

> <Conf_Id>
45

> <Delta U+W>
1.035

> <U+W>
-29.264

> <U>
24.725

> <W>
-53.989

> <W(PB)>
-56.298

> <W(SA)>
2.309

> <Valence>
3.780

> <Coulomb>
19.804

> <VdW>
1.141

> <VdW6>
-8.104

> <VdW12>
9.246

> <Bond>
0.254

> <Angle>
1.437

> <Pdih>
2.089

> <Idih>
0.000

> <Tether>
0.000

$$$$
VeraChem MOL file


 26 25  0  0  0  0  0  0  0  0999 V2000     
   20.4356   20.7698   19.3765 C   0  0  0  0  0  0  0  0  0  0  0  0
   21.2684   20.4928   18.7172 H   0  0  0  0  0  0  0  0  0  0  0  0
   19.5199   20.7915   18.7712 H   0  0  0  0  0  0  0  0  0  0  0  0
   20.6237   21.7853   19.7487 H   0  0  0  0  0  0  0  0  0  0  0  0
   20.3070   19.7669   20.5427 C   0  0  0  0  0  0  0  0  0  0  0  0
   21.2544   19.7438   21.0969 H   0  0  0  0  0  0  0  0  0  0  0  0
   20.1487   18.7573   20.1385 H   0  0  0  0  0  0  0  0  0  0  0  0
   19.1411   20.1400   21.4889 C   0  0  0  0  0  0  0  0  0  0  0  0
   19.3279   21.1258   21.9367 H   0  0  0  0  0  0  0  0  0  0  0  0
   18.2212   20.2407   20.8964 H   0  0  0  0  0  0  0  0  0  0  0  0
   18.8900   19.0998   22.6085 C   0  0  0  0  0  0  0  0  0  0  0  0
   18.7015   18.1149   22.1591 H   0  0  0  0  0  0  0  0  0  0  0  0
   17.9672   19.3821   23.1322 H   0  0  0  0  0  0  0  0  0  0  0  0
   20.0531   18.9949   23.6286 C   0  0  0  0  0  0  0  0  0  0  0  0
   20.9677   18.6895   23.1057 H   0  0  0  0  0  0  0  0  0  0  0  0
   20.2548   19.9820   24.0653 H   0  0  0  0  0  0  0  0  0  0  0  0
   19.7755   17.9761   24.7557 C   0  0  1  0  0  0  0  0  0  0  0  0
   19.5423   17.0109   24.2956 H   0  0  0  0  0  0  0  0  0  0  0  0
   21.0229   17.8013   25.6368 C   0  0  0  0  0  0  0  0  0  0  0  0
   21.3004   18.7445   26.1239 H   0  0  0  0  0  0  0  0  0  0  0  0
   21.8779   17.4607   25.0396 H   0  0  0  0  0  0  0  0  0  0  0  0
   20.8444   17.0525   26.4185 H   0  0  0  0  0  0  0  0  0  0  0  0
   18.5867   18.3539   25.5970 N   0  3  0  0  0  0  0  0  0  0  0  0
   17.7364   18.4280   25.0323 H   0  0  0  0  0  0  0  0  0  0  0  0
   18.4089   17.6584   26.3271 H   0  0  0  0  0  0  0  0  0  0  0  0
   18.7286   19.2551   26.0607 H   0  0  0  0  0  0  0  0  0  0  0  0
  1  2  1  0  0  0  0
  1  3  1  0  0  0  0
  1  4  1  0  0  0  0
  1  5  1  0  0  0  0
  5  6  1  0  0  0  0
  5  7  1  0  0  0  0
  5  8  1  0  0  0  0
  8  9  1  0  0  0  0
  8 10  1  0  0  0  0
  8 11  1  0  0  0  0
 11 12  1  0  0  0  0
 11 13  1  0  0  0  0
 11 14  1  0  0  0  0
 14 15  1  0  0  0  0
 14 16  1  0  0  0  0
 14 17  1  0  0  0  0
 17 18  1  0  0  0  0
 17 19  1  0  0  0  0
 19 20  1  0  0  0  0
 19 21  1  0  0  0  0
 19 22  1  0  0  0  0
 17 23  1  0  0  0  0
 23 24  1  0  0  0  0
 23 25  1  0  0  0  0
 23 26  1  0  0  0  0
M  END
> <VConfSearch Rank>
769

> <Conf_Id>
121

> <Delta U+W>
0.736

> <U+W>
-29.562

> <U>
24.282

> <W>
-53.844

> <W(PB)>
-56.205

> <W(SA)>
2.361

> <Valence>
3.311

> <Coulomb>
19.887

> <VdW>
1.083

> <VdW6>
-7.444

> <VdW12>
8.527

> <Bond>
0.219

> <Angle>
1.167

> <Pdih>
1.926

> <Idih>
0.000

> <Tether>
0.000

$$$$
VeraChem MOL file


 26 25  0  0  0  0  0  0  0  0999 V2000     
   19.8881   15.5975   22.0526 C   0  0  0  0  0  0  0  0  0  0  0  0
   19.4554   14.7294   21.5388 H   0  0  0  0  0  0  0  0  0  0  0  0
   20.9806   15.5210   21.9782 H   0  0  0  0  0  0  0  0  0  0  0  0
   19.6091   15.5258   23.1110 H   0  0  0  0  0  0  0  0  0  0  0  0
   19.3781   16.9109   21.4171 C   0  0  0  0  0  0  0  0  0  0  0  0
   18.2876   16.9799   21.5347 H   0  0  0  0  0  0  0  0  0  0  0  0
   19.5687   16.8764   20.3353 H   0  0  0  0  0  0  0  0  0  0  0  0
   20.0489   18.1794   21.9978 C   0  0  0  0  0  0  0  0  0  0  0  0
   21.1379   18.1090   21.8703 H   0  0  0  0  0  0  0  0  0  0  0  0
   19.7217   19.0401   21.4000 H   0  0  0  0  0  0  0  0  0  0  0  0
   19.7117   18.4264   23.4902 C   0  0  0  0  0  0  0  0  0  0  0  0
   20.0529   17.5721   24.0891 H   0  0  0  0  0  0  0  0  0  0  0  0
   18.6230   18.4730   23.6236 H   0  0  0  0  0  0  0  0  0  0  0  0
   20.3747   19.7060   24.0634 C   0  0  0  0  0  0  0  0  0  0  0  0
   20.1135   19.7966   25.1261 H   0  0  0  0  0  0  0  0  0  0  0  0
   21.4645   19.5765   24.0284 H   0  0  0  0  0  0  0  0  0  0  0  0
   20.0086   21.0216   23.3360 C   0  0  1  0  0  0  0  0  0  0  0  0
   20.2851   20.9228   22.2823 H   0  0  0  0  0  0  0  0  0  0  0  0
   18.5026   21.3285   23.4174 C   0  0  0  0  0  0  0  0  0  0  0  0
   18.1640   21.3806   24.4596 H   0  0  0  0  0  0  0  0  0  0  0  0
   17.9122   20.5621   22.9018 H   0  0  0  0  0  0  0  0  0  0  0  0
   18.2772   22.2889   22.9378 H   0  0  0  0  0  0  0  0  0  0  0  0
   20.8062   22.1775   23.8731 N   0  3  0  0  0  0  0  0  0  0  0  0
   21.8134   22.0123   23.7894 H   0  0  0  0  0  0  0  0  0  0  0  0
   20.5971   23.0433   23.3681 H   0  0  0  0  0  0  0  0  0  0  0  0
   20.6034   22.3448   24.8622 H   0  0  0  0  0  0  0  0  0  0  0  0
  1  2  1  0  0  0  0
  1  3  1  0  0  0  0
  1  4  1  0  0  0  0
  1  5  1  0  0  0  0
  5  6  1  0  0  0  0
  5  7  1  0  0  0  0
  5  8  1  0  0  0  0
  8  9  1  0  0  0  0
  8 10  1  0  0  0  0
  8 11  1  0  0  0  0
 11 12  1  0  0  0  0
 11 13  1  0  0  0  0
 11 14  1  0  0  0  0
 14 15  1  0  0  0  0
 14 16  1  0  0  0  0
 14 17  1  0  0  0  0
 17 18  1  0  0  0  0
 17 19  1  0  0  0  0
 19 20  1  0  0  0  0
 19 21  1  0  0  0  0
 19 22  1  0  0  0  0
 17 23  1  0  0  0  0
 23 24  1  0  0  0  0
 23 25  1  0  0  0  0
 23 26  1  0  0  0  0
M  END
> <VConfSearch Rank>
770

> <Conf_Id>
5

> <Delta U+W>
1.233

> <U+W>
-29.065

> <U>
25.023

> <W>
-54.088

> <W(PB)>
-56.383

> <W(SA)>
2.296

> <Valence>
4.083

> <Coulomb>
19.893

> <VdW>
1.047

> <VdW6>
-8.479

> <VdW12>
9.527

> <Bond>
0.256

> <Angle>
1.716

> <Pdih>
2.112

> <Idih>
0.000

> <Tether>
0.000

$$$$
VeraChem MOL file


 26 25  0  0  0  0  0  0  0  0999 V2000     
   22.4220   21.6930   22.4345 C   0  0  0  0  0  0  0  0  0  0  0  0
   23.0280   22.5540   22.7450 H   0  0  0  0  0  0  0  0  0  0  0  0
   23.0667   20.8065   22.4736 H   0  0  0  0  0  0  0  0  0  0  0  0
   22.1205   21.8541   21.3913 H   0  0  0  0  0  0  0  0  0  0  0  0
   21.1880   21.5418   23.3530 C   0  0  0  0  0  0  0  0  0  0  0  0
   20.6487   22.4991   23.3777 H   0  0  0  0  0  0  0  0  0  0  0  0
   21.5151   21.3471   24.3840 H   0  0  0  0  0  0  0  0  0  0  0  0
   20.2084   20.4341   22.8954 C   0  0  0  0  0  0  0  0  0  0  0  0
   19.3090   20.5007   23.5211 H   0  0  0  0  0  0  0  0  0  0  0  0
   19.8890   20.6310   21.8628 H   0  0  0  0  0  0  0  0  0  0  0  0
   20.8000   19.0060   22.9990 C   0  0  0  0  0  0  0  0  0  0  0  0
   21.0902   18.8053   24.0395 H   0  0  0  0  0  0  0  0  0  0  0  0
   21.7211   18.9461   22.4054 H   0  0  0  0  0  0  0  0  0  0  0  0
   19.8436   17.8892   22.5086 C   0  0  0  0  0  0  0  0  0  0  0  0
   19.6149   18.0311   21.4438 H   0  0  0  0  0  0  0  0  0  0  0  0
   20.3905   16.9389   22.5683 H   0  0  0  0  0  0  0  0  0  0  0  0
   18.5379   17.7773   23.3328 C   0  0  1  0  0  0  0  0  0  0  0  0
   18.6892   18.2970   24.2839 H   0  0  0  0  0  0  0  0  0  0  0  0
   17.3483   18.4245   22.6003 C   0  0  0  0  0  0  0  0  0  0  0  0
   17.1276   17.8975   21.6635 H   0  0  0  0  0  0  0  0  0  0  0  0
   17.5488   19.4737   22.3565 H   0  0  0  0  0  0  0  0  0  0  0  0
   16.4476   18.3956   23.2256 H   0  0  0  0  0  0  0  0  0  0  0  0
   18.2139   16.3506   23.6826 N   0  3  0  0  0  0  0  0  0  0  0  0
   18.9718   15.9115   24.2132 H   0  0  0  0  0  0  0  0  0  0  0  0
   17.3669   16.2888   24.2547 H   0  0  0  0  0  0  0  0  0  0  0  0
   18.0574   15.7856   22.8436 H   0  0  0  0  0  0  0  0  0  0  0  0
  1  2  1  0  0  0  0
  1  3  1  0  0  0  0
  1  4  1  0  0  0  0
  1  5  1  0  0  0  0
  5  6  1  0  0  0  0
  5  7  1  0  0  0  0
  5  8  1  0  0  0  0
  8  9  1  0  0  0  0
  8 10  1  0  0  0  0
  8 11  1  0  0  0  0
 11 12  1  0  0  0  0
 11 13  1  0  0  0  0
 11 14  1  0  0  0  0
 14 15  1  0  0  0  0
 14 16  1  0  0  0  0
 14 17  1  0  0  0  0
 17 18  1  0  0  0  0
 17 19  1  0  0  0  0
 19 20  1  0  0  0  0
 19 21  1  0  0  0  0
 19 22  1  0  0  0  0
 17 23  1  0  0  0  0
 23 24  1  0  0  0  0
 23 25  1  0  0  0  0
 23 26  1  0  0  0  0
M  END
> <VConfSearch Rank>
771

> <Conf_Id>
100

> <Delta U+W>
3.818

> <U+W>
-26.481

> <U>
27.496

> <W>
-53.977

> <W(PB)>
-56.267

> <W(SA)>
2.290

> <Valence>
6.472

> <Coulomb>
19.839

> <VdW>
1.185

> <VdW6>
-8.405

> <VdW12>
9.590

> <Bond>
0.248

> <Angle>
1.619

> <Pdih>
4.604

> <Idih>
0.000

> <Tether>
0.000

$$$$
VeraChem MOL file


 26 25  0  0  0  0  0  0  0  0999 V2000     
   20.2552   22.3006   21.0882 C   0  0  0  0  0  0  0  0  0  0  0  0
   20.5238   22.6758   20.0921 H   0  0  0  0  0  0  0  0  0  0  0  0
   19.1671   22.3931   21.2009 H   0  0  0  0  0  0  0  0  0  0  0  0
   20.7326   22.9505   21.8331 H   0  0  0  0  0  0  0  0  0  0  0  0
   20.7082   20.8351   21.2587 C   0  0  0  0  0  0  0  0  0  0  0  0
   21.7946   20.7694   21.1061 H   0  0  0  0  0  0  0  0  0  0  0  0
   20.2407   20.2163   20.4800 H   0  0  0  0  0  0  0  0  0  0  0  0
   20.3424   20.2818   22.6539 C   0  0  0  0  0  0  0  0  0  0  0  0
   20.8126   20.9057   23.4265 H   0  0  0  0  0  0  0  0  0  0  0  0
   19.2592   20.3654   22.8009 H   0  0  0  0  0  0  0  0  0  0  0  0
   20.8028   18.8136   22.8280 C   0  0  0  0  0  0  0  0  0  0  0  0
   21.8933   18.7822   22.6960 H   0  0  0  0  0  0  0  0  0  0  0  0
   20.3854   18.1878   22.0287 H   0  0  0  0  0  0  0  0  0  0  0  0
   20.4645   18.2184   24.2236 C   0  0  0  0  0  0  0  0  0  0  0  0
   21.2828   17.5490   24.5198 H   0  0  0  0  0  0  0  0  0  0  0  0
   20.4572   19.0159   24.9783 H   0  0  0  0  0  0  0  0  0  0  0  0
   19.1469   17.4093   24.3181 C   0  0  1  0  0  0  0  0  0  0  0  0
   19.0511   17.0728   25.3551 H   0  0  0  0  0  0  0  0  0  0  0  0
   17.9025   18.2499   23.9895 C   0  0  0  0  0  0  0  0  0  0  0  0
   17.8685   18.5189   22.9272 H   0  0  0  0  0  0  0  0  0  0  0  0
   17.8852   19.1712   24.5846 H   0  0  0  0  0  0  0  0  0  0  0  0
   16.9893   17.6879   24.2204 H   0  0  0  0  0  0  0  0  0  0  0  0
   19.1842   16.1594   23.4816 N   0  3  0  0  0  0  0  0  0  0  0  0
   19.9792   15.5641   23.7308 H   0  0  0  0  0  0  0  0  0  0  0  0
   18.3346   15.6015   23.6051 H   0  0  0  0  0  0  0  0  0  0  0  0
   19.2647   16.3794   22.4860 H   0  0  0  0  0  0  0  0  0  0  0  0
  1  2  1  0  0  0  0
  1  3  1  0  0  0  0
  1  4  1  0  0  0  0
  1  5  1  0  0  0  0
  5  6  1  0  0  0  0
  5  7  1  0  0  0  0
  5  8  1  0  0  0  0
  8  9  1  0  0  0  0
  8 10  1  0  0  0  0
  8 11  1  0  0  0  0
 11 12  1  0  0  0  0
 11 13  1  0  0  0  0
 11 14  1  0  0  0  0
 14 15  1  0  0  0  0
 14 16  1  0  0  0  0
 14 17  1  0  0  0  0
 17 18  1  0  0  0  0
 17 19  1  0  0  0  0
 19 20  1  0  0  0  0
 19 21  1  0  0  0  0
 19 22  1  0  0  0  0
 17 23  1  0  0  0  0
 23 24  1  0  0  0  0
 23 25  1  0  0  0  0
 23 26  1  0  0  0  0
M  END
> <VConfSearch Rank>
772

> <Conf_Id>
142

> <Delta U+W>
2.978

> <U+W>
-27.320

> <U>
26.848

> <W>
-54.168

> <W(PB)>
-56.427

> <W(SA)>
2.259

> <Valence>
5.823

> <Coulomb>
20.057

> <VdW>
0.968

> <VdW6>
-8.367

> <VdW12>
9.335

> <Bond>
0.267

> <Angle>
1.799

> <Pdih>
3.758

> <Idih>
0.000

> <Tether>
0.000

$$$$
VeraChem MOL file


 26 25  0  0  0  0  0  0  0  0999 V2000     
   19.1271   21.5124   25.3657 C   0  0  0  0  0  0  0  0  0  0  0  0
   20.1246   21.4652   25.8216 H   0  0  0  0  0  0  0  0  0  0  0  0
   18.6712   22.4679   25.6555 H   0  0  0  0  0  0  0  0  0  0  0  0
   18.5135   20.7121   25.7968 H   0  0  0  0  0  0  0  0  0  0  0  0
   19.2134   21.4004   23.8264 C   0  0  0  0  0  0  0  0  0  0  0  0
   19.7238   22.2930   23.4384 H   0  0  0  0  0  0  0  0  0  0  0  0
   18.2023   21.4139   23.3960 H   0  0  0  0  0  0  0  0  0  0  0  0
   19.9753   20.1444   23.3381 C   0  0  0  0  0  0  0  0  0  0  0  0
   20.1140   20.2433   22.2553 H   0  0  0  0  0  0  0  0  0  0  0  0
   20.9771   20.1257   23.7889 H   0  0  0  0  0  0  0  0  0  0  0  0
   19.2346   18.8175   23.6413 C   0  0  0  0  0  0  0  0  0  0  0  0
   18.2601   18.8148   23.1352 H   0  0  0  0  0  0  0  0  0  0  0  0
   19.0111   18.7674   24.7143 H   0  0  0  0  0  0  0  0  0  0  0  0
   20.0291   17.5314   23.2764 C   0  0  0  0  0  0  0  0  0  0  0  0
   20.9449   17.4878   23.8802 H   0  0  0  0  0  0  0  0  0  0  0  0
   19.4296   16.6690   23.5964 H   0  0  0  0  0  0  0  0  0  0  0  0
   20.3978   17.3132   21.7865 C   0  0  1  0  0  0  0  0  0  0  0  0
   20.7300   16.2745   21.6942 H   0  0  0  0  0  0  0  0  0  0  0  0
   19.1915   17.4923   20.8483 C   0  0  0  0  0  0  0  0  0  0  0  0
   18.8558   18.5356   20.8146 H   0  0  0  0  0  0  0  0  0  0  0  0
   18.3494   16.8699   21.1752 H   0  0  0  0  0  0  0  0  0  0  0  0
   19.4515   17.1904   19.8264 H   0  0  0  0  0  0  0  0  0  0  0  0
   21.5702   18.1423   21.3384 N   0  3  0  0  0  0  0  0  0  0  0  0
   22.3953   17.9686   21.9192 H   0  0  0  0  0  0  0  0  0  0  0  0
   21.8289   17.9304   20.3705 H   0  0  0  0  0  0  0  0  0  0  0  0
   21.3620   19.1413   21.3899 H   0  0  0  0  0  0  0  0  0  0  0  0
  1  2  1  0  0  0  0
  1  3  1  0  0  0  0
  1  4  1  0  0  0  0
  1  5  1  0  0  0  0
  5  6  1  0  0  0  0
  5  7  1  0  0  0  0
  5  8  1  0  0  0  0
  8  9  1  0  0  0  0
  8 10  1  0  0  0  0
  8 11  1  0  0  0  0
 11 12  1  0  0  0  0
 11 13  1  0  0  0  0
 11 14  1  0  0  0  0
 14 15  1  0  0  0  0
 14 16  1  0  0  0  0
 14 17  1  0  0  0  0
 17 18  1  0  0  0  0
 17 19  1  0  0  0  0
 19 20  1  0  0  0  0
 19 21  1  0  0  0  0
 19 22  1  0  0  0  0
 17 23  1  0  0  0  0
 23 24  1  0  0  0  0
 23 25  1  0  0  0  0
 23 26  1  0  0  0  0
M  END
> <VConfSearch Rank>
773

> <Conf_Id>
119

> <Delta U+W>
3.538

> <U+W>
-26.761

> <U>
27.482

> <W>
-54.243

> <W(PB)>
-56.494

> <W(SA)>
2.251

> <Valence>
5.284

> <Coulomb>
21.247

> <VdW>
0.951

> <VdW6>
-9.416

> <VdW12>
10.367

> <Bond>
0.323

> <Angle>
2.522

> <Pdih>
2.439

> <Idih>
0.000

> <Tether>
0.000

$$$$
VeraChem MOL file


 26 25  0  0  0  0  0  0  0  0999 V2000     
   19.8813   22.5592   23.5320 C   0  0  0  0  0  0  0  0  0  0  0  0
   20.0262   22.9788   22.5280 H   0  0  0  0  0  0  0  0  0  0  0  0
   18.8298   22.2634   23.6333 H   0  0  0  0  0  0  0  0  0  0  0  0
   20.0705   23.3585   24.2603 H   0  0  0  0  0  0  0  0  0  0  0  0
   20.8331   21.3667   23.7787 C   0  0  0  0  0  0  0  0  0  0  0  0
   20.6468   20.9459   24.7767 H   0  0  0  0  0  0  0  0  0  0  0  0
   21.8680   21.7364   23.7896 H   0  0  0  0  0  0  0  0  0  0  0  0
   20.7153   20.2524   22.7109 C   0  0  0  0  0  0  0  0  0  0  0  0
   20.9290   20.6743   21.7192 H   0  0  0  0  0  0  0  0  0  0  0  0
   21.5005   19.5112   22.9005 H   0  0  0  0  0  0  0  0  0  0  0  0
   19.3269   19.5624   22.6921 C   0  0  0  0  0  0  0  0  0  0  0  0
   18.5765   20.3023   22.3840 H   0  0  0  0  0  0  0  0  0  0  0  0
   19.0452   19.2504   23.7059 H   0  0  0  0  0  0  0  0  0  0  0  0
   19.2480   18.3627   21.7069 C   0  0  0  0  0  0  0  0  0  0  0  0
   18.2499   18.3572   21.2493 H   0  0  0  0  0  0  0  0  0  0  0  0
   19.9462   18.5168   20.8736 H   0  0  0  0  0  0  0  0  0  0  0  0
   19.4832   16.9611   22.3231 C   0  0  1  0  0  0  0  0  0  0  0  0
   19.4047   16.2346   21.5083 H   0  0  0  0  0  0  0  0  0  0  0  0
   20.8807   16.8077   22.9449 C   0  0  0  0  0  0  0  0  0  0  0  0
   20.9931   17.4309   23.8400 H   0  0  0  0  0  0  0  0  0  0  0  0
   21.6605   17.0858   22.2252 H   0  0  0  0  0  0  0  0  0  0  0  0
   21.0569   15.7658   23.2390 H   0  0  0  0  0  0  0  0  0  0  0  0
   18.4135   16.5869   23.3126 N   0  3  0  0  0  0  0  0  0  0  0  0
   17.4808   16.6323   22.8925 H   0  0  0  0  0  0  0  0  0  0  0  0
   18.5447   15.6336   23.6624 H   0  0  0  0  0  0  0  0  0  0  0  0
   18.4178   17.2136   24.1209 H   0  0  0  0  0  0  0  0  0  0  0  0
  1  2  1  0  0  0  0
  1  3  1  0  0  0  0
  1  4  1  0  0  0  0
  1  5  1  0  0  0  0
  5  6  1  0  0  0  0
  5  7  1  0  0  0  0
  5  8  1  0  0  0  0
  8  9  1  0  0  0  0
  8 10  1  0  0  0  0
  8 11  1  0  0  0  0
 11 12  1  0  0  0  0
 11 13  1  0  0  0  0
 11 14  1  0  0  0  0
 14 15  1  0  0  0  0
 14 16  1  0  0  0  0
 14 17  1  0  0  0  0
 17 18  1  0  0  0  0
 17 19  1  0  0  0  0
 19 20  1  0  0  0  0
 19 21  1  0  0  0  0
 19 22  1  0  0  0  0
 17 23  1  0  0  0  0
 23 24  1  0  0  0  0
 23 25  1  0  0  0  0
 23 26  1  0  0  0  0
M  END
> <VConfSearch Rank>
774

> <Conf_Id>
127

> <Delta U+W>
3.544

> <U+W>
-26.754

> <U>
27.509

> <W>
-54.263

> <W(PB)>
-56.496

> <W(SA)>
2.232

> <Valence>
6.375

> <Coulomb>
20.014

> <VdW>
1.120

> <VdW6>
-8.976

> <VdW12>
10.096

> <Bond>
0.304

> <Angle>
1.986

> <Pdih>
4.086

> <Idih>
0.000

> <Tether>
0.000

$$$$
VeraChem MOL file


 26 25  0  0  0  0  0  0  0  0999 V2000     
   20.7024   16.0967   23.3253 C   0  0  0  0  0  0  0  0  0  0  0  0
   21.2527   15.3439   22.7462 H   0  0  0  0  0  0  0  0  0  0  0  0
   20.3279   15.6085   24.2344 H   0  0  0  0  0  0  0  0  0  0  0  0
   19.8374   16.4070   22.7290 H   0  0  0  0  0  0  0  0  0  0  0  0
   21.6243   17.2871   23.6787 C   0  0  0  0  0  0  0  0  0  0  0  0
   22.0538   17.7224   22.7657 H   0  0  0  0  0  0  0  0  0  0  0  0
   22.4744   16.8967   24.2555 H   0  0  0  0  0  0  0  0  0  0  0  0
   20.9189   18.3828   24.5191 C   0  0  0  0  0  0  0  0  0  0  0  0
   20.1186   17.9394   25.1273 H   0  0  0  0  0  0  0  0  0  0  0  0
   21.6475   18.7836   25.2375 H   0  0  0  0  0  0  0  0  0  0  0  0
   20.3664   19.5782   23.7004 C   0  0  0  0  0  0  0  0  0  0  0  0
   21.1994   20.0731   23.1836 H   0  0  0  0  0  0  0  0  0  0  0  0
   19.9659   20.3119   24.4113 H   0  0  0  0  0  0  0  0  0  0  0  0
   19.2677   19.1913   22.6748 C   0  0  0  0  0  0  0  0  0  0  0  0
   19.7027   18.5350   21.9116 H   0  0  0  0  0  0  0  0  0  0  0  0
   18.4873   18.6054   23.1782 H   0  0  0  0  0  0  0  0  0  0  0  0
   18.6051   20.3852   21.9472 C   0  0  1  0  0  0  0  0  0  0  0  0
   17.9150   19.9699   21.2062 H   0  0  0  0  0  0  0  0  0  0  0  0
   17.7804   21.2643   22.9040 C   0  0  0  0  0  0  0  0  0  0  0  0
   17.0634   20.6577   23.4709 H   0  0  0  0  0  0  0  0  0  0  0  0
   17.2094   22.0121   22.3400 H   0  0  0  0  0  0  0  0  0  0  0  0
   18.4177   21.7999   23.6172 H   0  0  0  0  0  0  0  0  0  0  0  0
   19.5977   21.2109   21.1757 N   0  3  0  0  0  0  0  0  0  0  0  0
   20.1172   20.6412   20.5021 H   0  0  0  0  0  0  0  0  0  0  0  0
   19.1350   21.9588   20.6514 H   0  0  0  0  0  0  0  0  0  0  0  0
   20.2795   21.6497   21.7994 H   0  0  0  0  0  0  0  0  0  0  0  0
  1  2  1  0  0  0  0
  1  3  1  0  0  0  0
  1  4  1  0  0  0  0
  1  5  1  0  0  0  0
  5  6  1  0  0  0  0
  5  7  1  0  0  0  0
  5  8  1  0  0  0  0
  8  9  1  0  0  0  0
  8 10  1  0  0  0  0
  8 11  1  0  0  0  0
 11 12  1  0  0  0  0
 11 13  1  0  0  0  0
 11 14  1  0  0  0  0
 14 15  1  0  0  0  0
 14 16  1  0  0  0  0
 14 17  1  0  0  0  0
 17 18  1  0  0  0  0
 17 19  1  0  0  0  0
 19 20  1  0  0  0  0
 19 21  1  0  0  0  0
 19 22  1  0  0  0  0
 17 23  1  0  0  0  0
 23 24  1  0  0  0  0
 23 25  1  0  0  0  0
 23 26  1  0  0  0  0
M  END
> <VConfSearch Rank>
775

> <Conf_Id>
131

> <Delta U+W>
3.589

> <U+W>
-26.710

> <U>
27.573

> <W>
-54.283

> <W(PB)>
-56.537

> <W(SA)>
2.254

> <Valence>
6.363

> <Coulomb>
20.026

> <VdW>
1.184

> <VdW6>
-8.939

> <VdW12>
10.123

> <Bond>
0.298

> <Angle>
2.018

> <Pdih>
4.047

> <Idih>
0.000

> <Tether>
0.000

$$$$
VeraChem MOL file


 26 25  0  0  0  0  0  0  0  0999 V2000     
   21.3907   20.1431   20.9287 C   0  0  0  0  0  0  0  0  0  0  0  0
   21.8975   19.1696   20.9458 H   0  0  0  0  0  0  0  0  0  0  0  0
   20.3078   19.9744   20.8853 H   0  0  0  0  0  0  0  0  0  0  0  0
   21.6791   20.6557   20.0019 H   0  0  0  0  0  0  0  0  0  0  0  0
   21.7763   20.9944   22.1580 C   0  0  0  0  0  0  0  0  0  0  0  0
   21.1984   21.9291   22.1492 H   0  0  0  0  0  0  0  0  0  0  0  0
   22.8312   21.2886   22.0656 H   0  0  0  0  0  0  0  0  0  0  0  0
   21.5843   20.2772   23.5188 C   0  0  0  0  0  0  0  0  0  0  0  0
   22.2447   19.4014   23.5798 H   0  0  0  0  0  0  0  0  0  0  0  0
   21.9304   20.9630   24.3045 H   0  0  0  0  0  0  0  0  0  0  0  0
   20.1209   19.8748   23.8400 C   0  0  0  0  0  0  0  0  0  0  0  0
   19.4332   20.5837   23.3615 H   0  0  0  0  0  0  0  0  0  0  0  0
   19.9622   19.9787   24.9223 H   0  0  0  0  0  0  0  0  0  0  0  0
   19.7827   18.4134   23.4427 C   0  0  0  0  0  0  0  0  0  0  0  0
   19.9059   18.2664   22.3640 H   0  0  0  0  0  0  0  0  0  0  0  0
   20.5081   17.7470   23.9276 H   0  0  0  0  0  0  0  0  0  0  0  0
   18.3617   17.9714   23.8605 C   0  0  1  0  0  0  0  0  0  0  0  0
   18.2386   18.1749   24.9287 H   0  0  0  0  0  0  0  0  0  0  0  0
   17.2687   18.7328   23.0888 C   0  0  0  0  0  0  0  0  0  0  0  0
   17.3886   18.6093   22.0053 H   0  0  0  0  0  0  0  0  0  0  0  0
   17.2911   19.8045   23.3170 H   0  0  0  0  0  0  0  0  0  0  0  0
   16.2732   18.3641   23.3648 H   0  0  0  0  0  0  0  0  0  0  0  0
   18.1816   16.4885   23.6880 N   0  3  0  0  0  0  0  0  0  0  0  0
   18.2795   16.2107   22.7079 H   0  0  0  0  0  0  0  0  0  0  0  0
   18.8720   15.9592   24.2283 H   0  0  0  0  0  0  0  0  0  0  0  0
   17.2546   16.1856   24.0001 H   0  0  0  0  0  0  0  0  0  0  0  0
  1  2  1  0  0  0  0
  1  3  1  0  0  0  0
  1  4  1  0  0  0  0
  1  5  1  0  0  0  0
  5  6  1  0  0  0  0
  5  7  1  0  0  0  0
  5  8  1  0  0  0  0
  8  9  1  0  0  0  0
  8 10  1  0  0  0  0
  8 11  1  0  0  0  0
 11 12  1  0  0  0  0
 11 13  1  0  0  0  0
 11 14  1  0  0  0  0
 14 15  1  0  0  0  0
 14 16  1  0  0  0  0
 14 17  1  0  0  0  0
 17 18  1  0  0  0  0
 17 19  1  0  0  0  0
 19 20  1  0  0  0  0
 19 21  1  0  0  0  0
 19 22  1  0  0  0  0
 17 23  1  0  0  0  0
 23 24  1  0  0  0  0
 23 25  1  0  0  0  0
 23 26  1  0  0  0  0
M  END
> <VConfSearch Rank>
776

> <Conf_Id>
80

> <Delta U+W>
3.351

> <U+W>
-26.948

> <U>
27.261

> <W>
-54.209

> <W(PB)>
-56.471

> <W(SA)>
2.263

> <Valence>
6.230

> <Coulomb>
19.945

> <VdW>
1.087

> <VdW6>
-8.618

> <VdW12>
9.704

> <Bond>
0.277

> <Angle>
1.928

> <Pdih>
4.025

> <Idih>
0.000

> <Tether>
0.000

$$$$
VeraChem MOL file


 26 25  0  0  0  0  0  0  0  0999 V2000     
   21.0767   21.5174   21.1196 C   0  0  0  0  0  0  0  0  0  0  0  0
   21.4781   22.5200   21.3157 H   0  0  0  0  0  0  0  0  0  0  0  0
   21.3691   21.2313   20.1010 H   0  0  0  0  0  0  0  0  0  0  0  0
   19.9824   21.5872   21.1581 H   0  0  0  0  0  0  0  0  0  0  0  0
   21.6152   20.5065   22.1571 C   0  0  0  0  0  0  0  0  0  0  0  0
   21.2874   20.7991   23.1630 H   0  0  0  0  0  0  0  0  0  0  0  0
   22.7123   20.5696   22.1732 H   0  0  0  0  0  0  0  0  0  0  0  0
   21.2139   19.0378   21.8616 C   0  0  0  0  0  0  0  0  0  0  0  0
   21.6930   18.7315   20.9215 H   0  0  0  0  0  0  0  0  0  0  0  0
   21.6510   18.3950   22.6340 H   0  0  0  0  0  0  0  0  0  0  0  0
   19.6876   18.7673   21.7375 C   0  0  0  0  0  0  0  0  0  0  0  0
   19.5269   17.7186   21.4518 H   0  0  0  0  0  0  0  0  0  0  0  0
   19.3003   19.3529   20.8934 H   0  0  0  0  0  0  0  0  0  0  0  0
   18.8367   19.0928   22.9972 C   0  0  0  0  0  0  0  0  0  0  0  0
   19.2577   19.9400   23.5499 H   0  0  0  0  0  0  0  0  0  0  0  0
   17.8527   19.4328   22.6483 H   0  0  0  0  0  0  0  0  0  0  0  0
   18.5947   17.9014   23.9553 C   0  0  1  0  0  0  0  0  0  0  0  0
   18.1137   17.0992   23.3873 H   0  0  0  0  0  0  0  0  0  0  0  0
   19.8930   17.3457   24.5631 C   0  0  0  0  0  0  0  0  0  0  0  0
   20.5032   16.8532   23.7980 H   0  0  0  0  0  0  0  0  0  0  0  0
   19.6712   16.5919   25.3285 H   0  0  0  0  0  0  0  0  0  0  0  0
   20.4876   18.1411   25.0294 H   0  0  0  0  0  0  0  0  0  0  0  0
   17.6319   18.2789   25.0471 N   0  3  0  0  0  0  0  0  0  0  0  0
   16.7397   18.6075   24.6667 H   0  0  0  0  0  0  0  0  0  0  0  0
   17.4272   17.4824   25.6570 H   0  0  0  0  0  0  0  0  0  0  0  0
   18.0089   19.0257   25.6366 H   0  0  0  0  0  0  0  0  0  0  0  0
  1  2  1  0  0  0  0
  1  3  1  0  0  0  0
  1  4  1  0  0  0  0
  1  5  1  0  0  0  0
  5  6  1  0  0  0  0
  5  7  1  0  0  0  0
  5  8  1  0  0  0  0
  8  9  1  0  0  0  0
  8 10  1  0  0  0  0
  8 11  1  0  0  0  0
 11 12  1  0  0  0  0
 11 13  1  0  0  0  0
 11 14  1  0  0  0  0
 14 15  1  0  0  0  0
 14 16  1  0  0  0  0
 14 17  1  0  0  0  0
 17 18  1  0  0  0  0
 17 19  1  0  0  0  0
 19 20  1  0  0  0  0
 19 21  1  0  0  0  0
 19 22  1  0  0  0  0
 17 23  1  0  0  0  0
 23 24  1  0  0  0  0
 23 25  1  0  0  0  0
 23 26  1  0  0  0  0
M  END
> <VConfSearch Rank>
777

> <Conf_Id>
136

> <Delta U+W>
4.272

> <U+W>
-26.026

> <U>
28.262

> <W>
-54.288

> <W(PB)>
-56.488

> <W(SA)>
2.200

> <Valence>
7.096

> <Coulomb>
19.990

> <VdW>
1.175

> <VdW6>
-9.404

> <VdW12>
10.580

> <Bond>
0.360

> <Angle>
2.785

> <Pdih>
3.951

> <Idih>
0.000

> <Tether>
0.000

$$$$
VeraChem MOL file


 26 25  0  0  0  0  0  0  0  0999 V2000     
   21.8027   20.8319   24.4431 C   0  0  0  0  0  0  0  0  0  0  0  0
   21.4010   19.8823   24.8176 H   0  0  0  0  0  0  0  0  0  0  0  0
   22.6063   21.1392   25.1248 H   0  0  0  0  0  0  0  0  0  0  0  0
   21.0117   21.5913   24.4927 H   0  0  0  0  0  0  0  0  0  0  0  0
   22.3436   20.6839   23.0042 C   0  0  0  0  0  0  0  0  0  0  0  0
   23.0918   19.8794   22.9773 H   0  0  0  0  0  0  0  0  0  0  0  0
   22.8779   21.6050   22.7324 H   0  0  0  0  0  0  0  0  0  0  0  0
   21.2531   20.4146   21.9359 C   0  0  0  0  0  0  0  0  0  0  0  0
   20.5565   21.2628   21.8846 H   0  0  0  0  0  0  0  0  0  0  0  0
   21.7512   20.3816   20.9569 H   0  0  0  0  0  0  0  0  0  0  0  0
   20.4735   19.0874   22.1267 C   0  0  0  0  0  0  0  0  0  0  0  0
   21.1061   18.3511   22.6415 H   0  0  0  0  0  0  0  0  0  0  0  0
   20.2641   18.6691   21.1332 H   0  0  0  0  0  0  0  0  0  0  0  0
   19.1308   19.2680   22.8816 C   0  0  0  0  0  0  0  0  0  0  0  0
   19.3072   19.7818   23.8331 H   0  0  0  0  0  0  0  0  0  0  0  0
   18.4661   19.9197   22.2991 H   0  0  0  0  0  0  0  0  0  0  0  0
   18.4189   17.9283   23.1693 C   0  0  1  0  0  0  0  0  0  0  0  0
   19.1080   17.2876   23.7281 H   0  0  0  0  0  0  0  0  0  0  0  0
   17.1696   18.1617   24.0339 C   0  0  0  0  0  0  0  0  0  0  0  0
   16.4426   18.8006   23.5170 H   0  0  0  0  0  0  0  0  0  0  0  0
   17.4361   18.6454   24.9820 H   0  0  0  0  0  0  0  0  0  0  0  0
   16.6793   17.2099   24.2728 H   0  0  0  0  0  0  0  0  0  0  0  0
   18.0589   17.1845   21.9122 N   0  3  0  0  0  0  0  0  0  0  0  0
   17.4136   17.7250   21.3303 H   0  0  0  0  0  0  0  0  0  0  0  0
   18.8879   16.9816   21.3473 H   0  0  0  0  0  0  0  0  0  0  0  0
   17.6062   16.2906   22.1229 H   0  0  0  0  0  0  0  0  0  0  0  0
  1  2  1  0  0  0  0
  1  3  1  0  0  0  0
  1  4  1  0  0  0  0
  1  5  1  0  0  0  0
  5  6  1  0  0  0  0
  5  7  1  0  0  0  0
  5  8  1  0  0  0  0
  8  9  1  0  0  0  0
  8 10  1  0  0  0  0
  8 11  1  0  0  0  0
 11 12  1  0  0  0  0
 11 13  1  0  0  0  0
 11 14  1  0  0  0  0
 14 15  1  0  0  0  0
 14 16  1  0  0  0  0
 14 17  1  0  0  0  0
 17 18  1  0  0  0  0
 17 19  1  0  0  0  0
 19 20  1  0  0  0  0
 19 21  1  0  0  0  0
 19 22  1  0  0  0  0
 17 23  1  0  0  0  0
 23 24  1  0  0  0  0
 23 25  1  0  0  0  0
 23 26  1  0  0  0  0
M  END
> <VConfSearch Rank>
778

> <Conf_Id>
124

> <Delta U+W>
3.001

> <U+W>
-27.298

> <U>
26.787

> <W>
-54.085

> <W(PB)>
-56.347

> <W(SA)>
2.262

> <Valence>
5.742

> <Coulomb>
20.023

> <VdW>
1.022

> <VdW6>
-8.392

> <VdW12>
9.414

> <Bond>
0.261

> <Angle>
1.576

> <Pdih>
3.904

> <Idih>
0.000

> <Tether>
0.000

$$$$
VeraChem MOL file


 26 25  0  0  0  0  0  0  0  0999 V2000     
   21.5909   21.8390   23.1186 C   0  0  0  0  0  0  0  0  0  0  0  0
   22.6480   21.6943   22.8605 H   0  0  0  0  0  0  0  0  0  0  0  0
   21.4609   22.8889   23.4116 H   0  0  0  0  0  0  0  0  0  0  0  0
   21.3703   21.2208   23.9955 H   0  0  0  0  0  0  0  0  0  0  0  0
   20.6780   21.4960   21.9183 C   0  0  0  0  0  0  0  0  0  0  0  0
   20.9366   22.1741   21.0929 H   0  0  0  0  0  0  0  0  0  0  0  0
   19.6280   21.7068   22.1643 H   0  0  0  0  0  0  0  0  0  0  0  0
   20.8332   20.0350   21.4227 C   0  0  0  0  0  0  0  0  0  0  0  0
   20.7174   20.0317   20.3300 H   0  0  0  0  0  0  0  0  0  0  0  0
   21.8539   19.6752   21.6122 H   0  0  0  0  0  0  0  0  0  0  0  0
   19.7984   19.0366   22.0030 C   0  0  0  0  0  0  0  0  0  0  0  0
   19.9572   18.0653   21.5168 H   0  0  0  0  0  0  0  0  0  0  0  0
   18.7898   19.3627   21.7160 H   0  0  0  0  0  0  0  0  0  0  0  0
   19.8766   18.8644   23.5431 C   0  0  0  0  0  0  0  0  0  0  0  0
   20.9193   18.6854   23.8361 H   0  0  0  0  0  0  0  0  0  0  0  0
   19.5749   19.8006   24.0286 H   0  0  0  0  0  0  0  0  0  0  0  0
   19.0024   17.7231   24.1146 C   0  0  1  0  0  0  0  0  0  0  0  0
   19.1471   17.7153   25.1994 H   0  0  0  0  0  0  0  0  0  0  0  0
   17.5049   17.9531   23.8459 C   0  0  0  0  0  0  0  0  0  0  0  0
   17.2698   17.8836   22.7771 H   0  0  0  0  0  0  0  0  0  0  0  0
   17.1921   18.9420   24.2035 H   0  0  0  0  0  0  0  0  0  0  0  0
   16.9011   17.2032   24.3715 H   0  0  0  0  0  0  0  0  0  0  0  0
   19.4357   16.3673   23.6283 N   0  3  0  0  0  0  0  0  0  0  0  0
   18.8885   15.6205   24.0657 H   0  0  0  0  0  0  0  0  0  0  0  0
   19.3187   16.2800   22.6159 H   0  0  0  0  0  0  0  0  0  0  0  0
   20.4212   16.1890   23.8415 H   0  0  0  0  0  0  0  0  0  0  0  0
  1  2  1  0  0  0  0
  1  3  1  0  0  0  0
  1  4  1  0  0  0  0
  1  5  1  0  0  0  0
  5  6  1  0  0  0  0
  5  7  1  0  0  0  0
  5  8  1  0  0  0  0
  8  9  1  0  0  0  0
  8 10  1  0  0  0  0
  8 11  1  0  0  0  0
 11 12  1  0  0  0  0
 11 13  1  0  0  0  0
 11 14  1  0  0  0  0
 14 15  1  0  0  0  0
 14 16  1  0  0  0  0
 14 17  1  0  0  0  0
 17 18  1  0  0  0  0
 17 19  1  0  0  0  0
 19 20  1  0  0  0  0
 19 21  1  0  0  0  0
 19 22  1  0  0  0  0
 17 23  1  0  0  0  0
 23 24  1  0  0  0  0
 23 25  1  0  0  0  0
 23 26  1  0  0  0  0
M  END
> <VConfSearch Rank>
779

> <Conf_Id>
105

> <Delta U+W>
3.442

> <U+W>
-26.857

> <U>
27.313

> <W>
-54.169

> <W(PB)>
-56.414

> <W(SA)>
2.245

> <Valence>
6.229

> <Coulomb>
19.943

> <VdW>
1.140

> <VdW6>
-9.001

> <VdW12>
10.140

> <Bond>
0.294

> <Angle>
1.969

> <Pdih>
3.967

> <Idih>
0.000

> <Tether>
0.000

$$$$
VeraChem MOL file


 26 25  0  0  0  0  0  0  0  0999 V2000     
   22.1045   19.4166   20.9993 C   0  0  0  0  0  0  0  0  0  0  0  0
   21.8425   19.6072   19.9504 H   0  0  0  0  0  0  0  0  0  0  0  0
   23.1877   19.2444   21.0453 H   0  0  0  0  0  0  0  0  0  0  0  0
   21.6089   18.4897   21.3077 H   0  0  0  0  0  0  0  0  0  0  0  0
   21.7097   20.6152   21.8933 C   0  0  0  0  0  0  0  0  0  0  0  0
   22.2704   21.4943   21.5459 H   0  0  0  0  0  0  0  0  0  0  0  0
   22.0322   20.4416   22.9294 H   0  0  0  0  0  0  0  0  0  0  0  0
   20.1958   20.9474   21.8482 C   0  0  0  0  0  0  0  0  0  0  0  0
   20.0832   22.0371   21.9347 H   0  0  0  0  0  0  0  0  0  0  0  0
   19.7779   20.6846   20.8667 H   0  0  0  0  0  0  0  0  0  0  0  0
   19.3534   20.3017   22.9785 C   0  0  0  0  0  0  0  0  0  0  0  0
   18.3210   20.6672   22.8888 H   0  0  0  0  0  0  0  0  0  0  0  0
   19.7233   20.6587   23.9490 H   0  0  0  0  0  0  0  0  0  0  0  0
   19.3411   18.7533   22.9578 C   0  0  0  0  0  0  0  0  0  0  0  0
   19.1110   18.4120   21.9398 H   0  0  0  0  0  0  0  0  0  0  0  0
   20.3379   18.3692   23.2081 H   0  0  0  0  0  0  0  0  0  0  0  0
   18.3070   18.1491   23.9321 C   0  0  1  0  0  0  0  0  0  0  0  0
   17.3220   18.5547   23.6812 H   0  0  0  0  0  0  0  0  0  0  0  0
   18.2539   16.6210   23.7750 C   0  0  0  0  0  0  0  0  0  0  0  0
   19.2207   16.1628   24.0185 H   0  0  0  0  0  0  0  0  0  0  0  0
   17.9940   16.3438   22.7458 H   0  0  0  0  0  0  0  0  0  0  0  0
   17.4941   16.1887   24.4378 H   0  0  0  0  0  0  0  0  0  0  0  0
   18.5778   18.5244   25.3636 N   0  3  0  0  0  0  0  0  0  0  0  0
   18.5740   19.5400   25.4907 H   0  0  0  0  0  0  0  0  0  0  0  0
   17.8704   18.1346   25.9929 H   0  0  0  0  0  0  0  0  0  0  0  0
   19.4891   18.1779   25.6745 H   0  0  0  0  0  0  0  0  0  0  0  0
  1  2  1  0  0  0  0
  1  3  1  0  0  0  0
  1  4  1  0  0  0  0
  1  5  1  0  0  0  0
  5  6  1  0  0  0  0
  5  7  1  0  0  0  0
  5  8  1  0  0  0  0
  8  9  1  0  0  0  0
  8 10  1  0  0  0  0
  8 11  1  0  0  0  0
 11 12  1  0  0  0  0
 11 13  1  0  0  0  0
 11 14  1  0  0  0  0
 14 15  1  0  0  0  0
 14 16  1  0  0  0  0
 14 17  1  0  0  0  0
 17 18  1  0  0  0  0
 17 19  1  0  0  0  0
 19 20  1  0  0  0  0
 19 21  1  0  0  0  0
 19 22  1  0  0  0  0
 17 23  1  0  0  0  0
 23 24  1  0  0  0  0
 23 25  1  0  0  0  0
 23 26  1  0  0  0  0
M  END
> <VConfSearch Rank>
780

> <Conf_Id>
107

> <Delta U+W>
2.995

> <U+W>
-27.304

> <U>
26.796

> <W>
-54.100

> <W(PB)>
-56.404

> <W(SA)>
2.304

> <Valence>
5.706

> <Coulomb>
20.107

> <VdW>
0.982

> <VdW6>
-8.396

> <VdW12>
9.378

> <Bond>
0.254

> <Angle>
1.644

> <Pdih>
3.808

> <Idih>
0.000

> <Tether>
0.000

$$$$
VeraChem MOL file


 26 25  0  0  0  0  0  0  0  0999 V2000     
   17.3766   20.0620   26.2125 C   0  0  0  0  0  0  0  0  0  0  0  0
   16.4416   20.2038   25.6549 H   0  0  0  0  0  0  0  0  0  0  0  0
   17.1239   19.6311   27.1900 H   0  0  0  0  0  0  0  0  0  0  0  0
   17.8250   21.0491   26.3850 H   0  0  0  0  0  0  0  0  0  0  0  0
   18.3461   19.1389   25.4443 C   0  0  0  0  0  0  0  0  0  0  0  0
   17.8838   18.1500   25.3168 H   0  0  0  0  0  0  0  0  0  0  0  0
   19.2564   18.9887   26.0415 H   0  0  0  0  0  0  0  0  0  0  0  0
   18.7183   19.7226   24.0633 C   0  0  0  0  0  0  0  0  0  0  0  0
   17.8046   19.8739   23.4720 H   0  0  0  0  0  0  0  0  0  0  0  0
   19.1784   20.7117   24.1958 H   0  0  0  0  0  0  0  0  0  0  0  0
   19.6885   18.8006   23.2905 C   0  0  0  0  0  0  0  0  0  0  0  0
   19.2258   17.8130   23.1557 H   0  0  0  0  0  0  0  0  0  0  0  0
   20.5955   18.6493   23.8909 H   0  0  0  0  0  0  0  0  0  0  0  0
   20.0607   19.3890   21.9077 C   0  0  0  0  0  0  0  0  0  0  0  0
   19.1379   19.5837   21.3451 H   0  0  0  0  0  0  0  0  0  0  0  0
   20.5585   20.3591   22.0385 H   0  0  0  0  0  0  0  0  0  0  0  0
   20.9618   18.4506   21.0760 C   0  0  1  0  0  0  0  0  0  0  0  0
   20.4554   17.4851   20.9801 H   0  0  0  0  0  0  0  0  0  0  0  0
   21.1749   19.0254   19.6664 C   0  0  0  0  0  0  0  0  0  0  0  0
   21.6832   19.9969   19.7063 H   0  0  0  0  0  0  0  0  0  0  0  0
   20.2156   19.1627   19.1521 H   0  0  0  0  0  0  0  0  0  0  0  0
   21.7840   18.3457   19.0578 H   0  0  0  0  0  0  0  0  0  0  0  0
   22.2841   18.1820   21.7414 N   0  3  0  0  0  0  0  0  0  0  0  0
   22.8197   19.0445   21.8695 H   0  0  0  0  0  0  0  0  0  0  0  0
   22.1593   17.7562   22.6636 H   0  0  0  0  0  0  0  0  0  0  0  0
   22.8599   17.5435   21.1853 H   0  0  0  0  0  0  0  0  0  0  0  0
  1  2  1  0  0  0  0
  1  3  1  0  0  0  0
  1  4  1  0  0  0  0
  1  5  1  0  0  0  0
  5  6  1  0  0  0  0
  5  7  1  0  0  0  0
  5  8  1  0  0  0  0
  8  9  1  0  0  0  0
  8 10  1  0  0  0  0
  8 11  1  0  0  0  0
 11 12  1  0  0  0  0
 11 13  1  0  0  0  0
 11 14  1  0  0  0  0
 14 15  1  0  0  0  0
 14 16  1  0  0  0  0
 14 17  1  0  0  0  0
 17 18  1  0  0  0  0
 17 19  1  0  0  0  0
 19 20  1  0  0  0  0
 19 21  1  0  0  0  0
 19 22  1  0  0  0  0
 17 23  1  0  0  0  0
 23 24  1  0  0  0  0
 23 25  1  0  0  0  0
 23 26  1  0  0  0  0
M  END
> <VConfSearch Rank>
781

> <Conf_Id>
122

> <Delta U+W>
0.000

> <U+W>
-30.299

> <U>
23.517

> <W>
-53.816

> <W(PB)>
-56.162

> <W(SA)>
2.346

> <Valence>
2.737

> <Coulomb>
19.862

> <VdW>
0.919

> <VdW6>
-6.793

> <VdW12>
7.712

> <Bond>
0.171

> <Angle>
0.873

> <Pdih>
1.693

> <Idih>
0.000

> <Tether>
0.000

$$$$
VeraChem MOL file


 26 25  0  0  0  0  0  0  0  0999 V2000     
   17.5038   22.2599   21.3478 C   0  0  0  0  0  0  0  0  0  0  0  0
   17.6682   23.2609   20.9281 H   0  0  0  0  0  0  0  0  0  0  0  0
   16.9634   21.6655   20.5996 H   0  0  0  0  0  0  0  0  0  0  0  0
   16.8597   22.3661   22.2304 H   0  0  0  0  0  0  0  0  0  0  0  0
   18.8475   21.5969   21.7181 C   0  0  0  0  0  0  0  0  0  0  0  0
   19.3795   22.2308   22.4413 H   0  0  0  0  0  0  0  0  0  0  0  0
   19.4824   21.5353   20.8231 H   0  0  0  0  0  0  0  0  0  0  0  0
   18.6444   20.1852   22.3116 C   0  0  0  0  0  0  0  0  0  0  0  0
   18.0077   20.2516   23.2048 H   0  0  0  0  0  0  0  0  0  0  0  0
   18.1093   19.5571   21.5859 H   0  0  0  0  0  0  0  0  0  0  0  0
   19.9880   19.5177   22.6835 C   0  0  0  0  0  0  0  0  0  0  0  0
   20.5174   20.1573   23.4017 H   0  0  0  0  0  0  0  0  0  0  0  0
   20.6222   19.4473   21.7888 H   0  0  0  0  0  0  0  0  0  0  0  0
   19.7808   18.1046   23.2822 C   0  0  0  0  0  0  0  0  0  0  0  0
   19.2021   18.1777   24.2127 H   0  0  0  0  0  0  0  0  0  0  0  0
   19.1728   17.5149   22.5835 H   0  0  0  0  0  0  0  0  0  0  0  0
   21.0984   17.3409   23.5480 C   0  0  1  0  0  0  0  0  0  0  0  0
   21.6751   17.3179   22.6181 H   0  0  0  0  0  0  0  0  0  0  0  0
   21.9531   18.0181   24.6345 C   0  0  0  0  0  0  0  0  0  0  0  0
   21.3931   18.1225   25.5722 H   0  0  0  0  0  0  0  0  0  0  0  0
   22.2843   19.0140   24.3188 H   0  0  0  0  0  0  0  0  0  0  0  0
   22.8543   17.4276   24.8408 H   0  0  0  0  0  0  0  0  0  0  0  0
   20.8299   15.9079   23.9156 N   0  3  0  0  0  0  0  0  0  0  0  0
   20.2921   15.8384   24.7836 H   0  0  0  0  0  0  0  0  0  0  0  0
   20.2994   15.4239   23.1855 H   0  0  0  0  0  0  0  0  0  0  0  0
   21.7008   15.3875   24.0537 H   0  0  0  0  0  0  0  0  0  0  0  0
  1  2  1  0  0  0  0
  1  3  1  0  0  0  0
  1  4  1  0  0  0  0
  1  5  1  0  0  0  0
  5  6  1  0  0  0  0
  5  7  1  0  0  0  0
  5  8  1  0  0  0  0
  8  9  1  0  0  0  0
  8 10  1  0  0  0  0
  8 11  1  0  0  0  0
 11 12  1  0  0  0  0
 11 13  1  0  0  0  0
 11 14  1  0  0  0  0
 14 15  1  0  0  0  0
 14 16  1  0  0  0  0
 14 17  1  0  0  0  0
 17 18  1  0  0  0  0
 17 19  1  0  0  0  0
 19 20  1  0  0  0  0
 19 21  1  0  0  0  0
 19 22  1  0  0  0  0
 17 23  1  0  0  0  0
 23 24  1  0  0  0  0
 23 25  1  0  0  0  0
 23 26  1  0  0  0  0
M  END
> <VConfSearch Rank>
782

> <Conf_Id>
54

> <Delta U+W>
0.453

> <U+W>
-29.845

> <U>
23.817

> <W>
-53.663

> <W(PB)>
-56.021

> <W(SA)>
2.358

> <Valence>
3.277

> <Coulomb>
19.492

> <VdW>
1.049

> <VdW6>
-6.949

> <VdW12>
7.998

> <Bond>
0.183

> <Angle>
1.152

> <Pdih>
1.942

> <Idih>
0.000

> <Tether>
0.000

$$$$
VeraChem MOL file


 26 25  0  0  0  0  0  0  0  0999 V2000     
   20.1740   15.4740   22.8660 C   0  0  0  0  0  0  0  0  0  0  0  0
   19.8035   15.4539   21.8328 H   0  0  0  0  0  0  0  0  0  0  0  0
   21.2407   15.7278   22.8441 H   0  0  0  0  0  0  0  0  0  0  0  0
   20.0866   14.4582   23.2729 H   0  0  0  0  0  0  0  0  0  0  0  0
   19.3659   16.4716   23.7272 C   0  0  0  0  0  0  0  0  0  0  0  0
   19.7761   16.4998   24.7463 H   0  0  0  0  0  0  0  0  0  0  0  0
   18.3364   16.0985   23.8213 H   0  0  0  0  0  0  0  0  0  0  0  0
   19.3205   17.9030   23.1391 C   0  0  0  0  0  0  0  0  0  0  0  0
   18.9379   17.8633   22.1098 H   0  0  0  0  0  0  0  0  0  0  0  0
   18.5969   18.4776   23.7292 H   0  0  0  0  0  0  0  0  0  0  0  0
   20.6916   18.6245   23.1676 C   0  0  0  0  0  0  0  0  0  0  0  0
   21.4464   17.9889   22.6878 H   0  0  0  0  0  0  0  0  0  0  0  0
   21.0167   18.7492   24.2097 H   0  0  0  0  0  0  0  0  0  0  0  0
   20.7194   20.0004   22.4505 C   0  0  0  0  0  0  0  0  0  0  0  0
   21.7623   20.3447   22.4582 H   0  0  0  0  0  0  0  0  0  0  0  0
   20.4527   19.8812   21.3921 H   0  0  0  0  0  0  0  0  0  0  0  0
   19.8340   21.0914   23.0985 C   0  0  1  0  0  0  0  0  0  0  0  0
   19.8899   20.9811   24.1859 H   0  0  0  0  0  0  0  0  0  0  0  0
   20.3526   22.4915   22.7300 C   0  0  0  0  0  0  0  0  0  0  0  0
   19.7378   23.2697   23.1989 H   0  0  0  0  0  0  0  0  0  0  0  0
   20.3339   22.6484   21.6442 H   0  0  0  0  0  0  0  0  0  0  0  0
   21.3838   22.6307   23.0781 H   0  0  0  0  0  0  0  0  0  0  0  0
   18.3845   20.9720   22.7128 N   0  3  0  0  0  0  0  0  0  0  0  0
   18.0066   20.0530   22.9531 H   0  0  0  0  0  0  0  0  0  0  0  0
   17.8121   21.6754   23.1882 H   0  0  0  0  0  0  0  0  0  0  0  0
   18.2561   21.1037   21.7061 H   0  0  0  0  0  0  0  0  0  0  0  0
  1  2  1  0  0  0  0
  1  3  1  0  0  0  0
  1  4  1  0  0  0  0
  1  5  1  0  0  0  0
  5  6  1  0  0  0  0
  5  7  1  0  0  0  0
  5  8  1  0  0  0  0
  8  9  1  0  0  0  0
  8 10  1  0  0  0  0
  8 11  1  0  0  0  0
 11 12  1  0  0  0  0
 11 13  1  0  0  0  0
 11 14  1  0  0  0  0
 14 15  1  0  0  0  0
 14 16  1  0  0  0  0
 14 17  1  0  0  0  0
 17 18  1  0  0  0  0
 17 19  1  0  0  0  0
 19 20  1  0  0  0  0
 19 21  1  0  0  0  0
 19 22  1  0  0  0  0
 17 23  1  0  0  0  0
 23 24  1  0  0  0  0
 23 25  1  0  0  0  0
 23 26  1  0  0  0  0
M  END
> <VConfSearch Rank>
783

> <Conf_Id>
110

> <Delta U+W>
3.764

> <U+W>
-26.535

> <U>
27.400

> <W>
-53.935

> <W(PB)>
-56.238

> <W(SA)>
2.303

> <Valence>
5.205

> <Coulomb>
21.096

> <VdW>
1.098

> <VdW6>
-8.389

> <VdW12>
9.488

> <Bond>
0.270

> <Angle>
1.912

> <Pdih>
3.023

> <Idih>
0.000

> <Tether>
0.000

$$$$
VeraChem MOL file


 26 25  0  0  0  0  0  0  0  0999 V2000     
   16.6844   21.0684   22.7077 C   0  0  0  0  0  0  0  0  0  0  0  0
   15.7105   21.2248   22.2259 H   0  0  0  0  0  0  0  0  0  0  0  0
   16.5187   20.4345   23.5876 H   0  0  0  0  0  0  0  0  0  0  0  0
   17.0500   22.0450   23.0504 H   0  0  0  0  0  0  0  0  0  0  0  0
   17.6786   20.4184   21.7189 C   0  0  0  0  0  0  0  0  0  0  0  0
   17.7178   21.0271   20.8047 H   0  0  0  0  0  0  0  0  0  0  0  0
   17.3045   19.4309   21.4146 H   0  0  0  0  0  0  0  0  0  0  0  0
   19.1120   20.2822   22.2866 C   0  0  0  0  0  0  0  0  0  0  0  0
   19.7676   19.9217   21.4848 H   0  0  0  0  0  0  0  0  0  0  0  0
   19.4903   21.2760   22.5630 H   0  0  0  0  0  0  0  0  0  0  0  0
   19.2011   19.3360   23.5118 C   0  0  0  0  0  0  0  0  0  0  0  0
   18.7039   18.3801   23.2966 H   0  0  0  0  0  0  0  0  0  0  0  0
   18.6431   19.7884   24.3423 H   0  0  0  0  0  0  0  0  0  0  0  0
   20.6563   19.0842   23.9885 C   0  0  0  0  0  0  0  0  0  0  0  0
   21.2973   19.9351   23.7222 H   0  0  0  0  0  0  0  0  0  0  0  0
   20.6478   19.0489   25.0859 H   0  0  0  0  0  0  0  0  0  0  0  0
   21.2848   17.7621   23.4855 C   0  0  1  0  0  0  0  0  0  0  0  0
   20.6429   16.9367   23.8084 H   0  0  0  0  0  0  0  0  0  0  0  0
   21.4064   17.7030   21.9534 C   0  0  0  0  0  0  0  0  0  0  0  0
   21.9728   18.5590   21.5660 H   0  0  0  0  0  0  0  0  0  0  0  0
   20.4177   17.6955   21.4801 H   0  0  0  0  0  0  0  0  0  0  0  0
   21.9201   16.7855   21.6412 H   0  0  0  0  0  0  0  0  0  0  0  0
   22.6264   17.5265   24.1223 N   0  3  0  0  0  0  0  0  0  0  0  0
   22.5620   17.5124   25.1442 H   0  0  0  0  0  0  0  0  0  0  0  0
   23.0267   16.6303   23.8307 H   0  0  0  0  0  0  0  0  0  0  0  0
   23.2956   18.2573   23.8664 H   0  0  0  0  0  0  0  0  0  0  0  0
  1  2  1  0  0  0  0
  1  3  1  0  0  0  0
  1  4  1  0  0  0  0
  1  5  1  0  0  0  0
  5  6  1  0  0  0  0
  5  7  1  0  0  0  0
  5  8  1  0  0  0  0
  8  9  1  0  0  0  0
  8 10  1  0  0  0  0
  8 11  1  0  0  0  0
 11 12  1  0  0  0  0
 11 13  1  0  0  0  0
 11 14  1  0  0  0  0
 14 15  1  0  0  0  0
 14 16  1  0  0  0  0
 14 17  1  0  0  0  0
 17 18  1  0  0  0  0
 17 19  1  0  0  0  0
 19 20  1  0  0  0  0
 19 21  1  0  0  0  0
 19 22  1  0  0  0  0
 17 23  1  0  0  0  0
 23 24  1  0  0  0  0
 23 25  1  0  0  0  0
 23 26  1  0  0  0  0
M  END
> <VConfSearch Rank>
784

> <Conf_Id>
34

> <Delta U+W>
3.568

> <U+W>
-26.731

> <U>
27.221

> <W>
-53.952

> <W(PB)>
-56.213

> <W(SA)>
2.261

> <Valence>
6.368

> <Coulomb>
19.698

> <VdW>
1.155

> <VdW6>
-8.532

> <VdW12>
9.687

> <Bond>
0.272

> <Angle>
1.847

> <Pdih>
4.248

> <Idih>
0.000

> <Tether>
0.000

$$$$
VeraChem MOL file


 26 25  0  0  0  0  0  0  0  0999 V2000     
   18.5634   22.4680   21.0051 C   0  0  0  0  0  0  0  0  0  0  0  0
   17.5398   22.1454   20.7736 H   0  0  0  0  0  0  0  0  0  0  0  0
   18.5225   23.1379   21.8739 H   0  0  0  0  0  0  0  0  0  0  0  0
   18.9356   23.0472   20.1502 H   0  0  0  0  0  0  0  0  0  0  0  0
   19.4778   21.2559   21.2818 C   0  0  0  0  0  0  0  0  0  0  0  0
   20.5006   21.6079   21.4763 H   0  0  0  0  0  0  0  0  0  0  0  0
   19.5256   20.6231   20.3845 H   0  0  0  0  0  0  0  0  0  0  0  0
   18.9757   20.4226   22.4818 C   0  0  0  0  0  0  0  0  0  0  0  0
   18.9274   21.0604   23.3753 H   0  0  0  0  0  0  0  0  0  0  0  0
   17.9522   20.0754   22.2835 H   0  0  0  0  0  0  0  0  0  0  0  0
   19.8886   19.2075   22.7621 C   0  0  0  0  0  0  0  0  0  0  0  0
   20.9094   19.5616   22.9574 H   0  0  0  0  0  0  0  0  0  0  0  0
   19.9339   18.5798   21.8624 H   0  0  0  0  0  0  0  0  0  0  0  0
   19.3772   18.3738   23.9659 C   0  0  0  0  0  0  0  0  0  0  0  0
   19.2903   19.0258   24.8450 H   0  0  0  0  0  0  0  0  0  0  0  0
   18.3609   18.0161   23.7539 H   0  0  0  0  0  0  0  0  0  0  0  0
   20.2619   17.1617   24.3425 C   0  0  1  0  0  0  0  0  0  0  0  0
   19.8062   16.6863   25.2166 H   0  0  0  0  0  0  0  0  0  0  0  0
   20.3155   16.1126   23.2181 C   0  0  0  0  0  0  0  0  0  0  0  0
   20.8490   16.4886   22.3371 H   0  0  0  0  0  0  0  0  0  0  0  0
   19.3043   15.8199   22.9094 H   0  0  0  0  0  0  0  0  0  0  0  0
   20.8327   15.2085   23.5619 H   0  0  0  0  0  0  0  0  0  0  0  0
   21.6464   17.5702   24.7650 N   0  3  0  0  0  0  0  0  0  0  0  0
   22.1976   16.7632   25.0708 H   0  0  0  0  0  0  0  0  0  0  0  0
   22.1540   18.0145   23.9961 H   0  0  0  0  0  0  0  0  0  0  0  0
   21.6208   18.2352   25.5432 H   0  0  0  0  0  0  0  0  0  0  0  0
  1  2  1  0  0  0  0
  1  3  1  0  0  0  0
  1  4  1  0  0  0  0
  1  5  1  0  0  0  0
  5  6  1  0  0  0  0
  5  7  1  0  0  0  0
  5  8  1  0  0  0  0
  8  9  1  0  0  0  0
  8 10  1  0  0  0  0
  8 11  1  0  0  0  0
 11 12  1  0  0  0  0
 11 13  1  0  0  0  0
 11 14  1  0  0  0  0
 14 15  1  0  0  0  0
 14 16  1  0  0  0  0
 14 17  1  0  0  0  0
 17 18  1  0  0  0  0
 17 19  1  0  0  0  0
 19 20  1  0  0  0  0
 19 21  1  0  0  0  0
 19 22  1  0  0  0  0
 17 23  1  0  0  0  0
 23 24  1  0  0  0  0
 23 25  1  0  0  0  0
 23 26  1  0  0  0  0
M  END
> <VConfSearch Rank>
785

> <Conf_Id>
132

> <Delta U+W>
0.363

> <U+W>
-29.936

> <U>
24.060

> <W>
-53.996

> <W(PB)>
-56.327

> <W(SA)>
2.332

> <Valence>
3.249

> <Coulomb>
19.781

> <VdW>
1.030

> <VdW6>
-7.421

> <VdW12>
8.451

> <Bond>
0.207

> <Angle>
1.205

> <Pdih>
1.837

> <Idih>
0.000

> <Tether>
0.000

$$$$
VeraChem MOL file


 26 25  0  0  0  0  0  0  0  0999 V2000     
   22.2820   19.1245   26.0230 C   0  0  0  0  0  0  0  0  0  0  0  0
   22.1692   19.7707   26.9032 H   0  0  0  0  0  0  0  0  0  0  0  0
   22.3853   18.0901   26.3759 H   0  0  0  0  0  0  0  0  0  0  0  0
   23.2130   19.4070   25.5145 H   0  0  0  0  0  0  0  0  0  0  0  0
   21.0688   19.2713   25.0802 C   0  0  0  0  0  0  0  0  0  0  0  0
   20.9750   20.3242   24.7836 H   0  0  0  0  0  0  0  0  0  0  0  0
   20.1508   19.0102   25.6251 H   0  0  0  0  0  0  0  0  0  0  0  0
   21.2077   18.3723   23.8288 C   0  0  0  0  0  0  0  0  0  0  0  0
   22.0959   18.6704   23.2547 H   0  0  0  0  0  0  0  0  0  0  0  0
   21.3843   17.3372   24.1528 H   0  0  0  0  0  0  0  0  0  0  0  0
   19.9628   18.3908   22.9078 C   0  0  0  0  0  0  0  0  0  0  0  0
   19.0813   18.0853   23.4868 H   0  0  0  0  0  0  0  0  0  0  0  0
   20.1057   17.6264   22.1333 H   0  0  0  0  0  0  0  0  0  0  0  0
   19.7122   19.7697   22.2377 C   0  0  0  0  0  0  0  0  0  0  0  0
   19.5378   20.5282   23.0103 H   0  0  0  0  0  0  0  0  0  0  0  0
   20.6181   20.0842   21.7028 H   0  0  0  0  0  0  0  0  0  0  0  0
   18.5164   19.8085   21.2566 C   0  0  1  0  0  0  0  0  0  0  0  0
   18.4200   20.8402   20.9042 H   0  0  0  0  0  0  0  0  0  0  0  0
   18.7471   18.9182   20.0229 C   0  0  0  0  0  0  0  0  0  0  0  0
   18.7518   17.8535   20.2843 H   0  0  0  0  0  0  0  0  0  0  0  0
   19.7029   19.1589   19.5412 H   0  0  0  0  0  0  0  0  0  0  0  0
   17.9532   19.0767   19.2827 H   0  0  0  0  0  0  0  0  0  0  0  0
   17.2124   19.4738   21.9272 N   0  3  0  0  0  0  0  0  0  0  0  0
   17.0287   20.0930   22.7217 H   0  0  0  0  0  0  0  0  0  0  0  0
   16.4244   19.5651   21.2797 H   0  0  0  0  0  0  0  0  0  0  0  0
   17.2112   18.5130   22.2782 H   0  0  0  0  0  0  0  0  0  0  0  0
  1  2  1  0  0  0  0
  1  3  1  0  0  0  0
  1  4  1  0  0  0  0
  1  5  1  0  0  0  0
  5  6  1  0  0  0  0
  5  7  1  0  0  0  0
  5  8  1  0  0  0  0
  8  9  1  0  0  0  0
  8 10  1  0  0  0  0
  8 11  1  0  0  0  0
 11 12  1  0  0  0  0
 11 13  1  0  0  0  0
 11 14  1  0  0  0  0
 14 15  1  0  0  0  0
 14 16  1  0  0  0  0
 14 17  1  0  0  0  0
 17 18  1  0  0  0  0
 17 19  1  0  0  0  0
 19 20  1  0  0  0  0
 19 21  1  0  0  0  0
 19 22  1  0  0  0  0
 17 23  1  0  0  0  0
 23 24  1  0  0  0  0
 23 25  1  0  0  0  0
 23 26  1  0  0  0  0
M  END
> <VConfSearch Rank>
786

> <Conf_Id>
46

> <Delta U+W>
1.114

> <U+W>
-29.185

> <U>
24.990

> <W>
-54.175

> <W(PB)>
-56.455

> <W(SA)>
2.279

> <Valence>
3.862

> <Coulomb>
19.956

> <VdW>
1.172

> <VdW6>
-8.054

> <VdW12>
9.226

> <Bond>
0.258

> <Angle>
1.499

> <Pdih>
2.106

> <Idih>
0.000

> <Tether>
0.000

$$$$
VeraChem MOL file


 26 25  0  0  0  0  0  0  0  0999 V2000     
   22.2281   18.5498   25.6905 C   0  0  0  0  0  0  0  0  0  0  0  0
   22.6999   19.4041   25.1897 H   0  0  0  0  0  0  0  0  0  0  0  0
   21.5859   18.9329   26.4941 H   0  0  0  0  0  0  0  0  0  0  0  0
   23.0277   17.9574   26.1539 H   0  0  0  0  0  0  0  0  0  0  0  0
   21.4197   17.6834   24.6980 C   0  0  0  0  0  0  0  0  0  0  0  0
   21.0769   16.7782   25.2185 H   0  0  0  0  0  0  0  0  0  0  0  0
   22.0765   17.3407   23.8863 H   0  0  0  0  0  0  0  0  0  0  0  0
   20.1883   18.4099   24.1049 C   0  0  0  0  0  0  0  0  0  0  0  0
   19.6121   17.6802   23.5213 H   0  0  0  0  0  0  0  0  0  0  0  0
   19.5312   18.7416   24.9206 H   0  0  0  0  0  0  0  0  0  0  0  0
   20.5588   19.6187   23.2083 C   0  0  0  0  0  0  0  0  0  0  0  0
   21.2387   19.2949   22.4092 H   0  0  0  0  0  0  0  0  0  0  0  0
   21.1155   20.3564   23.8004 H   0  0  0  0  0  0  0  0  0  0  0  0
   19.3226   20.3294   22.5992 C   0  0  0  0  0  0  0  0  0  0  0  0
   18.7034   20.7225   23.4165 H   0  0  0  0  0  0  0  0  0  0  0  0
   19.6602   21.2019   22.0242 H   0  0  0  0  0  0  0  0  0  0  0  0
   18.4503   19.4299   21.6945 C   0  0  1  0  0  0  0  0  0  0  0  0
   18.1005   18.5796   22.2871 H   0  0  0  0  0  0  0  0  0  0  0  0
   17.2193   20.2047   21.1981 C   0  0  0  0  0  0  0  0  0  0  0  0
   16.5749   19.5600   20.5877 H   0  0  0  0  0  0  0  0  0  0  0  0
   17.5126   21.0692   20.5895 H   0  0  0  0  0  0  0  0  0  0  0  0
   16.6213   20.5686   22.0429 H   0  0  0  0  0  0  0  0  0  0  0  0
   19.2218   18.8615   20.5351 N   0  3  0  0  0  0  0  0  0  0  0  0
   20.0226   18.3107   20.8561 H   0  0  0  0  0  0  0  0  0  0  0  0
   18.6372   18.2483   19.9602 H   0  0  0  0  0  0  0  0  0  0  0  0
   19.5804   19.6022   19.9267 H   0  0  0  0  0  0  0  0  0  0  0  0
  1  2  1  0  0  0  0
  1  3  1  0  0  0  0
  1  4  1  0  0  0  0
  1  5  1  0  0  0  0
  5  6  1  0  0  0  0
  5  7  1  0  0  0  0
  5  8  1  0  0  0  0
  8  9  1  0  0  0  0
  8 10  1  0  0  0  0
  8 11  1  0  0  0  0
 11 12  1  0  0  0  0
 11 13  1  0  0  0  0
 11 14  1  0  0  0  0
 14 15  1  0  0  0  0
 14 16  1  0  0  0  0
 14 17  1  0  0  0  0
 17 18  1  0  0  0  0
 17 19  1  0  0  0  0
 19 20  1  0  0  0  0
 19 21  1  0  0  0  0
 19 22  1  0  0  0  0
 17 23  1  0  0  0  0
 23 24  1  0  0  0  0
 23 25  1  0  0  0  0
 23 26  1  0  0  0  0
M  END
> <VConfSearch Rank>
787

> <Conf_Id>
113

> <Delta U+W>
1.137

> <U+W>
-29.162

> <U>
24.833

> <W>
-53.995

> <W(PB)>
-56.288

> <W(SA)>
2.294

> <Valence>
3.589

> <Coulomb>
20.270

> <VdW>
0.974

> <VdW6>
-8.255

> <VdW12>
9.229

> <Bond>
0.244

> <Angle>
1.377

> <Pdih>
1.967

> <Idih>
0.000

> <Tether>
0.000

$$$$
VeraChem MOL file


 26 25  0  0  0  0  0  0  0  0999 V2000     
   23.2990   17.7307   21.7780 C   0  0  0  0  0  0  0  0  0  0  0  0
   23.4904   16.6850   21.5044 H   0  0  0  0  0  0  0  0  0  0  0  0
   23.4430   18.3458   20.8801 H   0  0  0  0  0  0  0  0  0  0  0  0
   24.0514   18.0277   22.5202 H   0  0  0  0  0  0  0  0  0  0  0  0
   21.8704   17.8946   22.3389 C   0  0  0  0  0  0  0  0  0  0  0  0
   21.7477   17.2461   23.2175 H   0  0  0  0  0  0  0  0  0  0  0  0
   21.1506   17.5497   21.5849 H   0  0  0  0  0  0  0  0  0  0  0  0
   21.5757   19.3628   22.7276 C   0  0  0  0  0  0  0  0  0  0  0  0
   22.3546   19.7113   23.4199 H   0  0  0  0  0  0  0  0  0  0  0  0
   21.6465   20.0031   21.8375 H   0  0  0  0  0  0  0  0  0  0  0  0
   20.1960   19.5608   23.4022 C   0  0  0  0  0  0  0  0  0  0  0  0
   20.1311   20.6010   23.7470 H   0  0  0  0  0  0  0  0  0  0  0  0
   20.1431   18.9320   24.3009 H   0  0  0  0  0  0  0  0  0  0  0  0
   19.0003   19.2502   22.4607 C   0  0  0  0  0  0  0  0  0  0  0  0
   19.1256   19.8052   21.5219 H   0  0  0  0  0  0  0  0  0  0  0  0
   19.0103   18.1873   22.1889 H   0  0  0  0  0  0  0  0  0  0  0  0
   17.6084   19.5865   23.0465 C   0  0  1  0  0  0  0  0  0  0  0  0
   16.8652   19.3307   22.2849 H   0  0  0  0  0  0  0  0  0  0  0  0
   17.2938   18.7542   24.3018 C   0  0  0  0  0  0  0  0  0  0  0  0
   17.9443   19.0258   25.1417 H   0  0  0  0  0  0  0  0  0  0  0  0
   17.4200   17.6830   24.1012 H   0  0  0  0  0  0  0  0  0  0  0  0
   16.2554   18.9133   24.6173 H   0  0  0  0  0  0  0  0  0  0  0  0
   17.4372   21.0562   23.3170 N   0  3  0  0  0  0  0  0  0  0  0  0
   17.6032   21.6149   22.4751 H   0  0  0  0  0  0  0  0  0  0  0  0
   16.4901   21.2687   23.6428 H   0  0  0  0  0  0  0  0  0  0  0  0
   18.0885   21.3807   24.0357 H   0  0  0  0  0  0  0  0  0  0  0  0
  1  2  1  0  0  0  0
  1  3  1  0  0  0  0
  1  4  1  0  0  0  0
  1  5  1  0  0  0  0
  5  6  1  0  0  0  0
  5  7  1  0  0  0  0
  5  8  1  0  0  0  0
  8  9  1  0  0  0  0
  8 10  1  0  0  0  0
  8 11  1  0  0  0  0
 11 12  1  0  0  0  0
 11 13  1  0  0  0  0
 11 14  1  0  0  0  0
 14 15  1  0  0  0  0
 14 16  1  0  0  0  0
 14 17  1  0  0  0  0
 17 18  1  0  0  0  0
 17 19  1  0  0  0  0
 19 20  1  0  0  0  0
 19 21  1  0  0  0  0
 19 22  1  0  0  0  0
 17 23  1  0  0  0  0
 23 24  1  0  0  0  0
 23 25  1  0  0  0  0
 23 26  1  0  0  0  0
M  END
> <VConfSearch Rank>
788

> <Conf_Id>
45

> <Delta U+W>
1.035

> <U+W>
-29.264

> <U>
24.725

> <W>
-53.989

> <W(PB)>
-56.298

> <W(SA)>
2.309

> <Valence>
3.780

> <Coulomb>
19.804

> <VdW>
1.141

> <VdW6>
-8.104

> <VdW12>
9.246

> <Bond>
0.254

> <Angle>
1.437

> <Pdih>
2.089

> <Idih>
0.000

> <Tether>
0.000

$$$$
VeraChem MOL file


 26 25  0  0  0  0  0  0  0  0999 V2000     
   22.4877   16.3329   22.0834 C   0  0  0  0  0  0  0  0  0  0  0  0
   23.5472   16.5411   21.8857 H   0  0  0  0  0  0  0  0  0  0  0  0
   22.4354   15.4893   22.7840 H   0  0  0  0  0  0  0  0  0  0  0  0
   22.0232   16.0221   21.1385 H   0  0  0  0  0  0  0  0  0  0  0  0
   21.7860   17.5799   22.6622 C   0  0  0  0  0  0  0  0  0  0  0  0
   21.8963   18.4105   21.9527 H   0  0  0  0  0  0  0  0  0  0  0  0
   22.2905   17.8834   23.5902 H   0  0  0  0  0  0  0  0  0  0  0  0
   20.2888   17.3114   22.9449 C   0  0  0  0  0  0  0  0  0  0  0  0
   19.7731   17.0631   22.0070 H   0  0  0  0  0  0  0  0  0  0  0  0
   20.2023   16.4242   23.5874 H   0  0  0  0  0  0  0  0  0  0  0  0
   19.5645   18.4908   23.6399 C   0  0  0  0  0  0  0  0  0  0  0  0
   20.0803   18.7365   24.5785 H   0  0  0  0  0  0  0  0  0  0  0  0
   18.5582   18.1525   23.9198 H   0  0  0  0  0  0  0  0  0  0  0  0
   19.4570   19.7594   22.7548 C   0  0  0  0  0  0  0  0  0  0  0  0
   20.4644   20.1083   22.4970 H   0  0  0  0  0  0  0  0  0  0  0  0
   18.9579   19.5114   21.8086 H   0  0  0  0  0  0  0  0  0  0  0  0
   18.7060   20.9164   23.4496 C   0  0  1  0  0  0  0  0  0  0  0  0
   19.1994   21.1207   24.4048 H   0  0  0  0  0  0  0  0  0  0  0  0
   18.7735   22.1892   22.5903 C   0  0  0  0  0  0  0  0  0  0  0  0
   18.2902   22.0373   21.6170 H   0  0  0  0  0  0  0  0  0  0  0  0
   19.8148   22.4851   22.4122 H   0  0  0  0  0  0  0  0  0  0  0  0
   18.2723   23.0250   23.0940 H   0  0  0  0  0  0  0  0  0  0  0  0
   17.2761   20.5708   23.7653 N   0  3  0  0  0  0  0  0  0  0  0  0
   17.2146   19.7525   24.3768 H   0  0  0  0  0  0  0  0  0  0  0  0
   16.8006   21.3434   24.2402 H   0  0  0  0  0  0  0  0  0  0  0  0
   16.7461   20.3613   22.9153 H   0  0  0  0  0  0  0  0  0  0  0  0
  1  2  1  0  0  0  0
  1  3  1  0  0  0  0
  1  4  1  0  0  0  0
  1  5  1  0  0  0  0
  5  6  1  0  0  0  0
  5  7  1  0  0  0  0
  5  8  1  0  0  0  0
  8  9  1  0  0  0  0
  8 10  1  0  0  0  0
  8 11  1  0  0  0  0
 11 12  1  0  0  0  0
 11 13  1  0  0  0  0
 11 14  1  0  0  0  0
 14 15  1  0  0  0  0
 14 16  1  0  0  0  0
 14 17  1  0  0  0  0
 17 18  1  0  0  0  0
 17 19  1  0  0  0  0
 19 20  1  0  0  0  0
 19 21  1  0  0  0  0
 19 22  1  0  0  0  0
 17 23  1  0  0  0  0
 23 24  1  0  0  0  0
 23 25  1  0  0  0  0
 23 26  1  0  0  0  0
M  END
> <VConfSearch Rank>
789

> <Conf_Id>
121

> <Delta U+W>
0.736

> <U+W>
-29.562

> <U>
24.282

> <W>
-53.844

> <W(PB)>
-56.205

> <W(SA)>
2.361

> <Valence>
3.311

> <Coulomb>
19.887

> <VdW>
1.083

> <VdW6>
-7.444

> <VdW12>
8.527

> <Bond>
0.219

> <Angle>
1.167

> <Pdih>
1.926

> <Idih>
0.000

> <Tether>
0.000

$$$$
VeraChem MOL file


 26 25  0  0  0  0  0  0  0  0999 V2000     
   16.4428   19.2433   24.3950 C   0  0  0  0  0  0  0  0  0  0  0  0
   15.6408   19.7663   24.9319 H   0  0  0  0  0  0  0  0  0  0  0  0
   15.9768   18.6174   23.6229 H   0  0  0  0  0  0  0  0  0  0  0  0
   16.9454   18.5854   25.1146 H   0  0  0  0  0  0  0  0  0  0  0  0
   17.4256   20.2589   23.7692 C   0  0  0  0  0  0  0  0  0  0  0  0
   17.9037   20.8489   24.5635 H   0  0  0  0  0  0  0  0  0  0  0  0
   16.8542   20.9720   23.1586 H   0  0  0  0  0  0  0  0  0  0  0  0
   18.5091   19.6025   22.8798 C   0  0  0  0  0  0  0  0  0  0  0  0
   18.0259   19.0208   22.0827 H   0  0  0  0  0  0  0  0  0  0  0  0
   19.0707   20.4038   22.3819 H   0  0  0  0  0  0  0  0  0  0  0  0
   19.4880   18.6962   23.6688 C   0  0  0  0  0  0  0  0  0  0  0  0
   18.9276   17.8866   24.1537 H   0  0  0  0  0  0  0  0  0  0  0  0
   19.9540   19.2693   24.4811 H   0  0  0  0  0  0  0  0  0  0  0  0
   20.5802   18.0522   22.7756 C   0  0  0  0  0  0  0  0  0  0  0  0
   21.2135   17.4062   23.3979 H   0  0  0  0  0  0  0  0  0  0  0  0
   20.0885   17.3891   22.0516 H   0  0  0  0  0  0  0  0  0  0  0  0
   21.4755   19.0508   22.0041 C   0  0  1  0  0  0  0  0  0  0  0  0
   20.8342   19.6791   21.3793 H   0  0  0  0  0  0  0  0  0  0  0  0
   22.2759   19.9622   22.9515 C   0  0  0  0  0  0  0  0  0  0  0  0
   22.8944   19.3733   23.6402 H   0  0  0  0  0  0  0  0  0  0  0  0
   21.6110   20.5998   23.5457 H   0  0  0  0  0  0  0  0  0  0  0  0
   22.9380   20.6258   22.3818 H   0  0  0  0  0  0  0  0  0  0  0  0
   22.4034   18.3320   21.0644 N   0  3  0  0  0  0  0  0  0  0  0  0
   21.8885   17.7515   20.3961 H   0  0  0  0  0  0  0  0  0  0  0  0
   22.9703   18.9899   20.5220 H   0  0  0  0  0  0  0  0  0  0  0  0
   23.0482   17.7193   21.5707 H   0  0  0  0  0  0  0  0  0  0  0  0
  1  2  1  0  0  0  0
  1  3  1  0  0  0  0
  1  4  1  0  0  0  0
  1  5  1  0  0  0  0
  5  6  1  0  0  0  0
  5  7  1  0  0  0  0
  5  8  1  0  0  0  0
  8  9  1  0  0  0  0
  8 10  1  0  0  0  0
  8 11  1  0  0  0  0
 11 12  1  0  0  0  0
 11 13  1  0  0  0  0
 11 14  1  0  0  0  0
 14 15  1  0  0  0  0
 14 16  1  0  0  0  0
 14 17  1  0  0  0  0
 17 18  1  0  0  0  0
 17 19  1  0  0  0  0
 19 20  1  0  0  0  0
 19 21  1  0  0  0  0
 19 22  1  0  0  0  0
 17 23  1  0  0  0  0
 23 24  1  0  0  0  0
 23 25  1  0  0  0  0
 23 26  1  0  0  0  0
M  END
> <VConfSearch Rank>
790

> <Conf_Id>
5

> <Delta U+W>
1.233

> <U+W>
-29.065

> <U>
25.023

> <W>
-54.088

> <W(PB)>
-56.383

> <W(SA)>
2.296

> <Valence>
4.083

> <Coulomb>
19.893

> <VdW>
1.047

> <VdW6>
-8.479

> <VdW12>
9.527

> <Bond>
0.256

> <Angle>
1.716

> <Pdih>
2.112

> <Idih>
0.000

> <Tether>
0.000

$$$$
VeraChem MOL file


 26 25  0  0  0  0  0  0  0  0999 V2000     
   16.7015   21.0274   22.3918 C   0  0  0  0  0  0  0  0  0  0  0  0
   15.7718   21.2423   21.8492 H   0  0  0  0  0  0  0  0  0  0  0  0
   16.4260   20.5396   23.3348 H   0  0  0  0  0  0  0  0  0  0  0  0
   17.1815   21.9862   22.6271 H   0  0  0  0  0  0  0  0  0  0  0  0
   17.6309   20.1349   21.5382 C   0  0  0  0  0  0  0  0  0  0  0  0
   17.7701   20.6096   20.5568 H   0  0  0  0  0  0  0  0  0  0  0  0
   17.1429   19.1692   21.3455 H   0  0  0  0  0  0  0  0  0  0  0  0
   19.0217   19.9016   22.1764 C   0  0  0  0  0  0  0  0  0  0  0  0
   19.6476   19.3825   21.4391 H   0  0  0  0  0  0  0  0  0  0  0  0
   19.5025   20.8701   22.3714 H   0  0  0  0  0  0  0  0  0  0  0  0
   18.9698   19.0687   23.4816 C   0  0  0  0  0  0  0  0  0  0  0  0
   18.5146   18.0906   23.2730 H   0  0  0  0  0  0  0  0  0  0  0  0
   18.3137   19.5649   24.2081 H   0  0  0  0  0  0  0  0  0  0  0  0
   20.3512   18.8590   24.1524 C   0  0  0  0  0  0  0  0  0  0  0  0
   20.7781   19.8279   24.4443 H   0  0  0  0  0  0  0  0  0  0  0  0
   20.1812   18.3169   25.0920 H   0  0  0  0  0  0  0  0  0  0  0  0
   21.3553   18.0650   23.2816 C   0  0  1  0  0  0  0  0  0  0  0  0
   20.7924   17.5432   22.5016 H   0  0  0  0  0  0  0  0  0  0  0  0
   22.3826   18.9952   22.6108 C   0  0  0  0  0  0  0  0  0  0  0  0
   23.0069   19.4990   23.3594 H   0  0  0  0  0  0  0  0  0  0  0  0
   21.8922   19.7673   22.0075 H   0  0  0  0  0  0  0  0  0  0  0  0
   23.0437   18.4254   21.9463 H   0  0  0  0  0  0  0  0  0  0  0  0
   22.0637   16.9982   24.0709 N   0  3  0  0  0  0  0  0  0  0  0  0
   21.4024   16.3373   24.4889 H   0  0  0  0  0  0  0  0  0  0  0  0
   22.7017   16.4573   23.4802 H   0  0  0  0  0  0  0  0  0  0  0  0
   22.6188   17.4009   24.8308 H   0  0  0  0  0  0  0  0  0  0  0  0
  1  2  1  0  0  0  0
  1  3  1  0  0  0  0
  1  4  1  0  0  0  0
  1  5  1  0  0  0  0
  5  6  1  0  0  0  0
  5  7  1  0  0  0  0
  5  8  1  0  0  0  0
  8  9  1  0  0  0  0
  8 10  1  0  0  0  0
  8 11  1  0  0  0  0
 11 12  1  0  0  0  0
 11 13  1  0  0  0  0
 11 14  1  0  0  0  0
 14 15  1  0  0  0  0
 14 16  1  0  0  0  0
 14 17  1  0  0  0  0
 17 18  1  0  0  0  0
 17 19  1  0  0  0  0
 19 20  1  0  0  0  0
 19 21  1  0  0  0  0
 19 22  1  0  0  0  0
 17 23  1  0  0  0  0
 23 24  1  0  0  0  0
 23 25  1  0  0  0  0
 23 26  1  0  0  0  0
M  END
> <VConfSearch Rank>
791

> <Conf_Id>
100

> <Delta U+W>
3.818

> <U+W>
-26.481

> <U>
27.496

> <W>
-53.977

> <W(PB)>
-56.267

> <W(SA)>
2.290

> <Valence>
6.472

> <Coulomb>
19.839

> <VdW>
1.185

> <VdW6>
-8.405

> <VdW12>
9.590

> <Bond>
0.248

> <Angle>
1.619

> <Pdih>
4.604

> <Idih>
0.000

> <Tether>
0.000

$$$$
VeraChem MOL file


 26 25  0  0  0  0  0  0  0  0999 V2000     
   18.6635   20.3791   19.6085 C   0  0  0  0  0  0  0  0  0  0  0  0
   18.9678   21.0916   18.8308 H   0  0  0  0  0  0  0  0  0  0  0  0
   18.9040   19.3688   19.2526 H   0  0  0  0  0  0  0  0  0  0  0  0
   17.5741   20.4508   19.7235 H   0  0  0  0  0  0  0  0  0  0  0  0
   19.3832   20.6847   20.9392 C   0  0  0  0  0  0  0  0  0  0  0  0
   19.1512   21.7127   21.2513 H   0  0  0  0  0  0  0  0  0  0  0  0
   20.4703   20.6380   20.7845 H   0  0  0  0  0  0  0  0  0  0  0  0
   18.9720   19.6957   22.0523 C   0  0  0  0  0  0  0  0  0  0  0  0
   17.8845   19.7476   22.2005 H   0  0  0  0  0  0  0  0  0  0  0  0
   19.1945   18.6734   21.7248 H   0  0  0  0  0  0  0  0  0  0  0  0
   19.6887   20.0061   23.3895 C   0  0  0  0  0  0  0  0  0  0  0  0
   19.4187   21.0281   23.6897 H   0  0  0  0  0  0  0  0  0  0  0  0
   20.7766   20.0133   23.2441 H   0  0  0  0  0  0  0  0  0  0  0  0
   19.2959   19.0407   24.5428 C   0  0  0  0  0  0  0  0  0  0  0  0
   19.2707   19.6145   25.4785 H   0  0  0  0  0  0  0  0  0  0  0  0
   18.2684   18.6823   24.3968 H   0  0  0  0  0  0  0  0  0  0  0  0
   20.2355   17.8297   24.7674 C   0  0  1  0  0  0  0  0  0  0  0  0
   19.8185   17.2501   25.5969 H   0  0  0  0  0  0  0  0  0  0  0  0
   20.3139   16.8976   23.5476 C   0  0  0  0  0  0  0  0  0  0  0  0
   20.8378   17.3744   22.7106 H   0  0  0  0  0  0  0  0  0  0  0  0
   19.3105   16.6073   23.2126 H   0  0  0  0  0  0  0  0  0  0  0  0
   20.8579   15.9797   23.8018 H   0  0  0  0  0  0  0  0  0  0  0  0
   21.6109   18.2495   25.2091 N   0  3  0  0  0  0  0  0  0  0  0  0
   21.5745   18.8258   26.0547 H   0  0  0  0  0  0  0  0  0  0  0  0
   22.2004   17.4386   25.4176 H   0  0  0  0  0  0  0  0  0  0  0  0
   22.0847   18.7950   24.4852 H   0  0  0  0  0  0  0  0  0  0  0  0
  1  2  1  0  0  0  0
  1  3  1  0  0  0  0
  1  4  1  0  0  0  0
  1  5  1  0  0  0  0
  5  6  1  0  0  0  0
  5  7  1  0  0  0  0
  5  8  1  0  0  0  0
  8  9  1  0  0  0  0
  8 10  1  0  0  0  0
  8 11  1  0  0  0  0
 11 12  1  0  0  0  0
 11 13  1  0  0  0  0
 11 14  1  0  0  0  0
 14 15  1  0  0  0  0
 14 16  1  0  0  0  0
 14 17  1  0  0  0  0
 17 18  1  0  0  0  0
 17 19  1  0  0  0  0
 19 20  1  0  0  0  0
 19 21  1  0  0  0  0
 19 22  1  0  0  0  0
 17 23  1  0  0  0  0
 23 24  1  0  0  0  0
 23 25  1  0  0  0  0
 23 26  1  0  0  0  0
M  END
> <VConfSearch Rank>
792

> <Conf_Id>
142

> <Delta U+W>
2.978

> <U+W>
-27.320

> <U>
26.848

> <W>
-54.168

> <W(PB)>
-56.427

> <W(SA)>
2.259

> <Valence>
5.823

> <Coulomb>
20.057

> <VdW>
0.968

> <VdW6>
-8.367

> <VdW12>
9.335

> <Bond>
0.267

> <Angle>
1.799

> <Pdih>
3.758

> <Idih>
0.000

> <Tether>
0.000

$$$$
VeraChem MOL file


 26 25  0  0  0  0  0  0  0  0999 V2000     
   22.3868   17.6072   21.0594 C   0  0  0  0  0  0  0  0  0  0  0  0
   22.4258   16.7031   21.6807 H   0  0  0  0  0  0  0  0  0  0  0  0
   22.8404   17.3667   20.0892 H   0  0  0  0  0  0  0  0  0  0  0  0
   23.0103   18.3763   21.5312 H   0  0  0  0  0  0  0  0  0  0  0  0
   20.9303   18.0891   20.8696 C   0  0  0  0  0  0  0  0  0  0  0  0
   20.3873   17.3384   20.2784 H   0  0  0  0  0  0  0  0  0  0  0  0
   20.9197   19.0136   20.2755 H   0  0  0  0  0  0  0  0  0  0  0  0
   20.1727   18.3116   22.2011 C   0  0  0  0  0  0  0  0  0  0  0  0
   19.1205   18.4951   21.9548 H   0  0  0  0  0  0  0  0  0  0  0  0
   20.2056   17.3907   22.7994 H   0  0  0  0  0  0  0  0  0  0  0  0
   20.7202   19.5005   23.0306 C   0  0  0  0  0  0  0  0  0  0  0  0
   20.6255   20.4289   22.4519 H   0  0  0  0  0  0  0  0  0  0  0  0
   21.7964   19.3609   23.1922 H   0  0  0  0  0  0  0  0  0  0  0  0
   20.0637   19.6740   24.4296 C   0  0  0  0  0  0  0  0  0  0  0  0
   20.2707   18.7851   25.0397 H   0  0  0  0  0  0  0  0  0  0  0  0
   20.5783   20.5004   24.9374 H   0  0  0  0  0  0  0  0  0  0  0  0
   18.5435   19.9745   24.4776 C   0  0  1  0  0  0  0  0  0  0  0  0
   18.3187   20.2934   25.5001 H   0  0  0  0  0  0  0  0  0  0  0  0
   18.1404   21.1264   23.5405 C   0  0  0  0  0  0  0  0  0  0  0  0
   18.2503   20.8479   22.4856 H   0  0  0  0  0  0  0  0  0  0  0  0
   18.7572   22.0140   23.7285 H   0  0  0  0  0  0  0  0  0  0  0  0
   17.0932   21.4076   23.7060 H   0  0  0  0  0  0  0  0  0  0  0  0
   17.6910   18.7565   24.2491 N   0  3  0  0  0  0  0  0  0  0  0  0
   17.9099   18.0150   24.9206 H   0  0  0  0  0  0  0  0  0  0  0  0
   16.6954   18.9737   24.3491 H   0  0  0  0  0  0  0  0  0  0  0  0
   17.8303   18.3741   23.3119 H   0  0  0  0  0  0  0  0  0  0  0  0
  1  2  1  0  0  0  0
  1  3  1  0  0  0  0
  1  4  1  0  0  0  0
  1  5  1  0  0  0  0
  5  6  1  0  0  0  0
  5  7  1  0  0  0  0
  5  8  1  0  0  0  0
  8  9  1  0  0  0  0
  8 10  1  0  0  0  0
  8 11  1  0  0  0  0
 11 12  1  0  0  0  0
 11 13  1  0  0  0  0
 11 14  1  0  0  0  0
 14 15  1  0  0  0  0
 14 16  1  0  0  0  0
 14 17  1  0  0  0  0
 17 18  1  0  0  0  0
 17 19  1  0  0  0  0
 19 20  1  0  0  0  0
 19 21  1  0  0  0  0
 19 22  1  0  0  0  0
 17 23  1  0  0  0  0
 23 24  1  0  0  0  0
 23 25  1  0  0  0  0
 23 26  1  0  0  0  0
M  END
> <VConfSearch Rank>
793

> <Conf_Id>
119

> <Delta U+W>
3.538

> <U+W>
-26.761

> <U>
27.482

> <W>
-54.243

> <W(PB)>
-56.494

> <W(SA)>
2.251

> <Valence>
5.284

> <Coulomb>
21.247

> <VdW>
0.951

> <VdW6>
-9.416

> <VdW12>
10.367

> <Bond>
0.323

> <Angle>
2.522

> <Pdih>
2.439

> <Idih>
0.000

> <Tether>
0.000

$$$$
VeraChem MOL file


 26 25  0  0  0  0  0  0  0  0999 V2000     
   16.5504   18.6854   21.7701 C   0  0  0  0  0  0  0  0  0  0  0  0
   16.1881   17.8295   22.3542 H   0  0  0  0  0  0  0  0  0  0  0  0
   16.5189   19.5766   22.4091 H   0  0  0  0  0  0  0  0  0  0  0  0
   15.8481   18.8484   20.9424 H   0  0  0  0  0  0  0  0  0  0  0  0
   17.9742   18.4255   21.2278 C   0  0  0  0  0  0  0  0  0  0  0  0
   18.3253   19.3076   20.6744 H   0  0  0  0  0  0  0  0  0  0  0  0
   17.9308   17.6034   20.4997 H   0  0  0  0  0  0  0  0  0  0  0  0
   18.9967   18.0586   22.3303 C   0  0  0  0  0  0  0  0  0  0  0  0
   18.6528   17.1605   22.8616 H   0  0  0  0  0  0  0  0  0  0  0  0
   19.9397   17.7810   21.8449 H   0  0  0  0  0  0  0  0  0  0  0  0
   19.2400   19.2018   23.3490 C   0  0  0  0  0  0  0  0  0  0  0  0
   18.3081   19.3769   23.9025 H   0  0  0  0  0  0  0  0  0  0  0  0
   19.4590   20.1390   22.8215 H   0  0  0  0  0  0  0  0  0  0  0  0
   20.3561   18.8799   24.3820 C   0  0  0  0  0  0  0  0  0  0  0  0
   20.0606   19.3017   25.3517 H   0  0  0  0  0  0  0  0  0  0  0  0
   20.4134   17.7956   24.5447 H   0  0  0  0  0  0  0  0  0  0  0  0
   21.7672   19.4259   24.0497 C   0  0  1  0  0  0  0  0  0  0  0  0
   22.4327   19.1101   24.8591 H   0  0  0  0  0  0  0  0  0  0  0  0
   22.3345   18.8588   22.7382 C   0  0  0  0  0  0  0  0  0  0  0  0
   21.7781   19.2258   21.8676 H   0  0  0  0  0  0  0  0  0  0  0  0
   22.2985   17.7625   22.7394 H   0  0  0  0  0  0  0  0  0  0  0  0
   23.3830   19.1563   22.6142 H   0  0  0  0  0  0  0  0  0  0  0  0
   21.8097   20.9297   24.0449 N   0  3  0  0  0  0  0  0  0  0  0  0
   21.4854   21.3175   24.9353 H   0  0  0  0  0  0  0  0  0  0  0  0
   22.7604   21.2764   23.8891 H   0  0  0  0  0  0  0  0  0  0  0  0
   21.2172   21.3169   23.3066 H   0  0  0  0  0  0  0  0  0  0  0  0
  1  2  1  0  0  0  0
  1  3  1  0  0  0  0
  1  4  1  0  0  0  0
  1  5  1  0  0  0  0
  5  6  1  0  0  0  0
  5  7  1  0  0  0  0
  5  8  1  0  0  0  0
  8  9  1  0  0  0  0
  8 10  1  0  0  0  0
  8 11  1  0  0  0  0
 11 12  1  0  0  0  0
 11 13  1  0  0  0  0
 11 14  1  0  0  0  0
 14 15  1  0  0  0  0
 14 16  1  0  0  0  0
 14 17  1  0  0  0  0
 17 18  1  0  0  0  0
 17 19  1  0  0  0  0
 19 20  1  0  0  0  0
 19 21  1  0  0  0  0
 19 22  1  0  0  0  0
 17 23  1  0  0  0  0
 23 24  1  0  0  0  0
 23 25  1  0  0  0  0
 23 26  1  0  0  0  0
M  END
> <VConfSearch Rank>
794

> <Conf_Id>
127

> <Delta U+W>
3.544

> <U+W>
-26.754

> <U>
27.509

> <W>
-54.263

> <W(PB)>
-56.496

> <W(SA)>
2.232

> <Valence>
6.375

> <Coulomb>
20.014

> <VdW>
1.120

> <VdW6>
-8.976

> <VdW12>
10.096

> <Bond>
0.304

> <Angle>
1.986

> <Pdih>
4.086

> <Idih>
0.000

> <Tether>
0.000

$$$$
VeraChem MOL file


 26 25  0  0  0  0  0  0  0  0999 V2000     
   21.1912   17.0090   24.9269 C   0  0  0  0  0  0  0  0  0  0  0  0
   21.5927   15.9907   24.8454 H   0  0  0  0  0  0  0  0  0  0  0  0
   21.2447   17.3040   25.9829 H   0  0  0  0  0  0  0  0  0  0  0  0
   20.1345   16.9731   24.6405 H   0  0  0  0  0  0  0  0  0  0  0  0
   22.0028   17.9827   24.0408 C   0  0  0  0  0  0  0  0  0  0  0  0
   22.0060   17.6380   22.9974 H   0  0  0  0  0  0  0  0  0  0  0  0
   23.0500   17.9490   24.3728 H   0  0  0  0  0  0  0  0  0  0  0  0
   21.5057   19.4491   24.1234 C   0  0  0  0  0  0  0  0  0  0  0  0
   21.0513   19.6420   25.1050 H   0  0  0  0  0  0  0  0  0  0  0  0
   22.3819   20.1099   24.0692 H   0  0  0  0  0  0  0  0  0  0  0  0
   20.5325   19.8726   22.9929 C   0  0  0  0  0  0  0  0  0  0  0  0
   21.0430   19.7731   22.0258 H   0  0  0  0  0  0  0  0  0  0  0  0
   20.3196   20.9416   23.1199 H   0  0  0  0  0  0  0  0  0  0  0  0
   19.2017   19.0744   22.9689 C   0  0  0  0  0  0  0  0  0  0  0  0
   19.4166   18.0229   22.7438 H   0  0  0  0  0  0  0  0  0  0  0  0
   18.7475   19.0902   23.9684 H   0  0  0  0  0  0  0  0  0  0  0  0
   18.1605   19.5733   21.9389 C   0  0  1  0  0  0  0  0  0  0  0  0
   17.3134   18.8811   21.9740 H   0  0  0  0  0  0  0  0  0  0  0  0
   17.6258   20.9744   22.2843 C   0  0  0  0  0  0  0  0  0  0  0  0
   17.2560   21.0074   23.3166 H   0  0  0  0  0  0  0  0  0  0  0  0
   16.7906   21.2386   21.6241 H   0  0  0  0  0  0  0  0  0  0  0  0
   18.3973   21.7448   22.1704 H   0  0  0  0  0  0  0  0  0  0  0  0
   18.6792   19.5260   20.5280 N   0  3  0  0  0  0  0  0  0  0  0  0
   18.9925   18.5848   20.2743 H   0  0  0  0  0  0  0  0  0  0  0  0
   17.9582   19.8004   19.8547 H   0  0  0  0  0  0  0  0  0  0  0  0
   19.4727   20.1594   20.4031 H   0  0  0  0  0  0  0  0  0  0  0  0
  1  2  1  0  0  0  0
  1  3  1  0  0  0  0
  1  4  1  0  0  0  0
  1  5  1  0  0  0  0
  5  6  1  0  0  0  0
  5  7  1  0  0  0  0
  5  8  1  0  0  0  0
  8  9  1  0  0  0  0
  8 10  1  0  0  0  0
  8 11  1  0  0  0  0
 11 12  1  0  0  0  0
 11 13  1  0  0  0  0
 11 14  1  0  0  0  0
 14 15  1  0  0  0  0
 14 16  1  0  0  0  0
 14 17  1  0  0  0  0
 17 18  1  0  0  0  0
 17 19  1  0  0  0  0
 19 20  1  0  0  0  0
 19 21  1  0  0  0  0
 19 22  1  0  0  0  0
 17 23  1  0  0  0  0
 23 24  1  0  0  0  0
 23 25  1  0  0  0  0
 23 26  1  0  0  0  0
M  END
> <VConfSearch Rank>
795

> <Conf_Id>
131

> <Delta U+W>
3.589

> <U+W>
-26.710

> <U>
27.573

> <W>
-54.283

> <W(PB)>
-56.537

> <W(SA)>
2.254

> <Valence>
6.363

> <Coulomb>
20.026

> <VdW>
1.184

> <VdW6>
-8.939

> <VdW12>
10.123

> <Bond>
0.298

> <Angle>
2.018

> <Pdih>
4.047

> <Idih>
0.000

> <Tether>
0.000

$$$$
VeraChem MOL file


 26 25  0  0  0  0  0  0  0  0999 V2000     
   18.0390   21.0875   21.9965 C   0  0  0  0  0  0  0  0  0  0  0  0
   18.7548   21.7971   22.4313 H   0  0  0  0  0  0  0  0  0  0  0  0
   18.5925   20.3505   21.4019 H   0  0  0  0  0  0  0  0  0  0  0  0
   17.3913   21.6439   21.3067 H   0  0  0  0  0  0  0  0  0  0  0  0
   17.1957   20.4028   23.0940 C   0  0  0  0  0  0  0  0  0  0  0  0
   16.5428   19.6482   22.6336 H   0  0  0  0  0  0  0  0  0  0  0  0
   16.5266   21.1508   23.5419 H   0  0  0  0  0  0  0  0  0  0  0  0
   18.0284   19.7487   24.2261 C   0  0  0  0  0  0  0  0  0  0  0  0
   18.6001   20.5164   24.7653 H   0  0  0  0  0  0  0  0  0  0  0  0
   17.3213   19.3376   24.9599 H   0  0  0  0  0  0  0  0  0  0  0  0
   18.9651   18.6018   23.7638 C   0  0  0  0  0  0  0  0  0  0  0  0
   18.5283   18.1029   22.8893 H   0  0  0  0  0  0  0  0  0  0  0  0
   19.0048   17.8446   24.5591 H   0  0  0  0  0  0  0  0  0  0  0  0
   20.4156   19.0705   23.4733 C   0  0  0  0  0  0  0  0  0  0  0  0
   20.4290   19.8137   22.6684 H   0  0  0  0  0  0  0  0  0  0  0  0
   20.7994   19.5797   24.3671 H   0  0  0  0  0  0  0  0  0  0  0  0
   21.3802   17.9156   23.1198 C   0  0  1  0  0  0  0  0  0  0  0  0
   21.3135   17.1588   23.9075 H   0  0  0  0  0  0  0  0  0  0  0  0
   21.0236   17.2549   21.7759 C   0  0  0  0  0  0  0  0  0  0  0  0
   21.0162   17.9902   20.9617 H   0  0  0  0  0  0  0  0  0  0  0  0
   20.0388   16.7756   21.8149 H   0  0  0  0  0  0  0  0  0  0  0  0
   21.7529   16.4754   21.5233 H   0  0  0  0  0  0  0  0  0  0  0  0
   22.8082   18.3864   23.1042 N   0  3  0  0  0  0  0  0  0  0  0  0
   22.9593   19.1008   22.3870 H   0  0  0  0  0  0  0  0  0  0  0  0
   23.0820   18.7910   24.0041 H   0  0  0  0  0  0  0  0  0  0  0  0
   23.4537   17.6161   22.9085 H   0  0  0  0  0  0  0  0  0  0  0  0
  1  2  1  0  0  0  0
  1  3  1  0  0  0  0
  1  4  1  0  0  0  0
  1  5  1  0  0  0  0
  5  6  1  0  0  0  0
  5  7  1  0  0  0  0
  5  8  1  0  0  0  0
  8  9  1  0  0  0  0
  8 10  1  0  0  0  0
  8 11  1  0  0  0  0
 11 12  1  0  0  0  0
 11 13  1  0  0  0  0
 11 14  1  0  0  0  0
 14 15  1  0  0  0  0
 14 16  1  0  0  0  0
 14 17  1  0  0  0  0
 17 18  1  0  0  0  0
 17 19  1  0  0  0  0
 19 20  1  0  0  0  0
 19 21  1  0  0  0  0
 19 22  1  0  0  0  0
 17 23  1  0  0  0  0
 23 24  1  0  0  0  0
 23 25  1  0  0  0  0
 23 26  1  0  0  0  0
M  END
> <VConfSearch Rank>
796

> <Conf_Id>
80

> <Delta U+W>
3.351

> <U+W>
-26.948

> <U>
27.261

> <W>
-54.209

> <W(PB)>
-56.471

> <W(SA)>
2.263

> <Valence>
6.230

> <Coulomb>
19.945

> <VdW>
1.087

> <VdW6>
-8.618

> <VdW12>
9.704

> <Bond>
0.277

> <Angle>
1.928

> <Pdih>
4.025

> <Idih>
0.000

> <Tether>
0.000

$$$$
VeraChem MOL file


 26 25  0  0  0  0  0  0  0  0999 V2000     
   22.7862   20.5328   22.9990 C   0  0  0  0  0  0  0  0  0  0  0  0
   23.7381   20.3749   22.4759 H   0  0  0  0  0  0  0  0  0  0  0  0
   22.8219   21.5234   23.4706 H   0  0  0  0  0  0  0  0  0  0  0  0
   22.7154   19.7760   23.7901 H   0  0  0  0  0  0  0  0  0  0  0  0
   21.6023   20.4300   22.0110 C   0  0  0  0  0  0  0  0  0  0  0  0
   21.5722   19.4237   21.5737 H   0  0  0  0  0  0  0  0  0  0  0  0
   21.7857   21.1130   21.1698 H   0  0  0  0  0  0  0  0  0  0  0  0
   20.2318   20.7883   22.6424 C   0  0  0  0  0  0  0  0  0  0  0  0
   20.2486   21.8501   22.9243 H   0  0  0  0  0  0  0  0  0  0  0  0
   19.4595   20.7046   21.8694 H   0  0  0  0  0  0  0  0  0  0  0  0
   19.8294   19.9611   23.8961 C   0  0  0  0  0  0  0  0  0  0  0  0
   18.8856   20.3515   24.3011 H   0  0  0  0  0  0  0  0  0  0  0  0
   20.5721   20.1438   24.6838 H   0  0  0  0  0  0  0  0  0  0  0  0
   19.7014   18.4264   23.6834 C   0  0  0  0  0  0  0  0  0  0  0  0
   20.4107   18.0721   22.9272 H   0  0  0  0  0  0  0  0  0  0  0  0
   20.0063   17.9399   24.6193 H   0  0  0  0  0  0  0  0  0  0  0  0
   18.2758   17.9235   23.3509 C   0  0  1  0  0  0  0  0  0  0  0  0
   17.6065   18.2372   24.1579 H   0  0  0  0  0  0  0  0  0  0  0  0
   17.7312   18.4909   22.0297 C   0  0  0  0  0  0  0  0  0  0  0  0
   17.5380   19.5658   22.1162 H   0  0  0  0  0  0  0  0  0  0  0  0
   16.7782   18.0155   21.7670 H   0  0  0  0  0  0  0  0  0  0  0  0
   18.4345   18.3248   21.2043 H   0  0  0  0  0  0  0  0  0  0  0  0
   18.2297   16.4205   23.3270 N   0  3  0  0  0  0  0  0  0  0  0  0
   18.5430   16.0191   24.2155 H   0  0  0  0  0  0  0  0  0  0  0  0
   17.2799   16.0781   23.1569 H   0  0  0  0  0  0  0  0  0  0  0  0
   18.8281   16.0396   22.5892 H   0  0  0  0  0  0  0  0  0  0  0  0
  1  2  1  0  0  0  0
  1  3  1  0  0  0  0
  1  4  1  0  0  0  0
  1  5  1  0  0  0  0
  5  6  1  0  0  0  0
  5  7  1  0  0  0  0
  5  8  1  0  0  0  0
  8  9  1  0  0  0  0
  8 10  1  0  0  0  0
  8 11  1  0  0  0  0
 11 12  1  0  0  0  0
 11 13  1  0  0  0  0
 11 14  1  0  0  0  0
 14 15  1  0  0  0  0
 14 16  1  0  0  0  0
 14 17  1  0  0  0  0
 17 18  1  0  0  0  0
 17 19  1  0  0  0  0
 19 20  1  0  0  0  0
 19 21  1  0  0  0  0
 19 22  1  0  0  0  0
 17 23  1  0  0  0  0
 23 24  1  0  0  0  0
 23 25  1  0  0  0  0
 23 26  1  0  0  0  0
M  END
> <VConfSearch Rank>
797

> <Conf_Id>
136

> <Delta U+W>
4.272

> <U+W>
-26.026

> <U>
28.262

> <W>
-54.288

> <W(PB)>
-56.488

> <W(SA)>
2.200

> <Valence>
7.096

> <Coulomb>
19.990

> <VdW>
1.175

> <VdW6>
-9.404

> <VdW12>
10.580

> <Bond>
0.360

> <Angle>
2.785

> <Pdih>
3.951

> <Idih>
0.000

> <Tether>
0.000

$$$$
VeraChem MOL file


 26 25  0  0  0  0  0  0  0  0999 V2000     
   20.3607   21.9217   21.9574 C   0  0  0  0  0  0  0  0  0  0  0  0
   20.9559   21.0360   21.7034 H   0  0  0  0  0  0  0  0  0  0  0  0
   20.7258   22.7505   21.3373 H   0  0  0  0  0  0  0  0  0  0  0  0
   20.5478   22.1806   23.0076 H   0  0  0  0  0  0  0  0  0  0  0  0
   18.8569   21.6794   21.7027 C   0  0  0  0  0  0  0  0  0  0  0  0
   18.7099   21.3683   20.6590 H   0  0  0  0  0  0  0  0  0  0  0  0
   18.3228   22.6335   21.8134 H   0  0  0  0  0  0  0  0  0  0  0  0
   18.2073   20.6394   22.6510 C   0  0  0  0  0  0  0  0  0  0  0  0
   18.2595   20.9912   23.6905 H   0  0  0  0  0  0  0  0  0  0  0  0
   17.1367   20.5943   22.4075 H   0  0  0  0  0  0  0  0  0  0  0  0
   18.7899   19.2065   22.5369 C   0  0  0  0  0  0  0  0  0  0  0  0
   19.1810   19.0397   21.5237 H   0  0  0  0  0  0  0  0  0  0  0  0
   17.9663   18.4921   22.6680 H   0  0  0  0  0  0  0  0  0  0  0  0
   19.8826   18.9027   23.5947 C   0  0  0  0  0  0  0  0  0  0  0  0
   20.6643   19.6693   23.5501 H   0  0  0  0  0  0  0  0  0  0  0  0
   19.4479   18.9654   24.6011 H   0  0  0  0  0  0  0  0  0  0  0  0
   20.5382   17.5183   23.4002 C   0  0  1  0  0  0  0  0  0  0  0  0
   20.9418   17.4703   22.3841 H   0  0  0  0  0  0  0  0  0  0  0  0
   21.7001   17.3332   24.3895 C   0  0  0  0  0  0  0  0  0  0  0  0
   21.3476   17.3722   25.4278 H   0  0  0  0  0  0  0  0  0  0  0  0
   22.4553   18.1177   24.2554 H   0  0  0  0  0  0  0  0  0  0  0  0
   22.1938   16.3663   24.2322 H   0  0  0  0  0  0  0  0  0  0  0  0
   19.5517   16.3896   23.5280 N   0  3  0  0  0  0  0  0  0  0  0  0
   19.1259   16.3695   24.4583 H   0  0  0  0  0  0  0  0  0  0  0  0
   18.7952   16.4749   22.8440 H   0  0  0  0  0  0  0  0  0  0  0  0
   20.0002   15.4817   23.3765 H   0  0  0  0  0  0  0  0  0  0  0  0
  1  2  1  0  0  0  0
  1  3  1  0  0  0  0
  1  4  1  0  0  0  0
  1  5  1  0  0  0  0
  5  6  1  0  0  0  0
  5  7  1  0  0  0  0
  5  8  1  0  0  0  0
  8  9  1  0  0  0  0
  8 10  1  0  0  0  0
  8 11  1  0  0  0  0
 11 12  1  0  0  0  0
 11 13  1  0  0  0  0
 11 14  1  0  0  0  0
 14 15  1  0  0  0  0
 14 16  1  0  0  0  0
 14 17  1  0  0  0  0
 17 18  1  0  0  0  0
 17 19  1  0  0  0  0
 19 20  1  0  0  0  0
 19 21  1  0  0  0  0
 19 22  1  0  0  0  0
 17 23  1  0  0  0  0
 23 24  1  0  0  0  0
 23 25  1  0  0  0  0
 23 26  1  0  0  0  0
M  END
> <VConfSearch Rank>
798

> <Conf_Id>
124

> <Delta U+W>
3.001

> <U+W>
-27.298

> <U>
26.787

> <W>
-54.085

> <W(PB)>
-56.347

> <W(SA)>
2.262

> <Valence>
5.742

> <Coulomb>
20.023

> <VdW>
1.022

> <VdW6>
-8.392

> <VdW12>
9.414

> <Bond>
0.261

> <Angle>
1.576

> <Pdih>
3.904

> <Idih>
0.000

> <Tether>
0.000

$$$$
VeraChem MOL file


 26 25  0  0  0  0  0  0  0  0999 V2000     
   21.4829   19.9793   25.5884 C   0  0  0  0  0  0  0  0  0  0  0  0
   21.0199   20.7801   26.1795 H   0  0  0  0  0  0  0  0  0  0  0  0
   22.4370   19.7223   26.0664 H   0  0  0  0  0  0  0  0  0  0  0  0
   21.7079   20.3809   24.5945 H   0  0  0  0  0  0  0  0  0  0  0  0
   20.5609   18.7394   25.5217 C   0  0  0  0  0  0  0  0  0  0  0  0
   20.4068   18.3776   26.5480 H   0  0  0  0  0  0  0  0  0  0  0  0
   21.0598   17.9206   24.9849 H   0  0  0  0  0  0  0  0  0  0  0  0
   19.1758   19.0336   24.8899 C   0  0  0  0  0  0  0  0  0  0  0  0
   18.4273   18.4183   25.4081 H   0  0  0  0  0  0  0  0  0  0  0  0
   18.8842   20.0756   25.0805 H   0  0  0  0  0  0  0  0  0  0  0  0
   19.0699   18.7175   23.3755 C   0  0  0  0  0  0  0  0  0  0  0  0
   18.0296   18.8852   23.0678 H   0  0  0  0  0  0  0  0  0  0  0  0
   19.2678   17.6485   23.2206 H   0  0  0  0  0  0  0  0  0  0  0  0
   20.0172   19.5621   22.4828 C   0  0  0  0  0  0  0  0  0  0  0  0
   19.9194   20.6222   22.7506 H   0  0  0  0  0  0  0  0  0  0  0  0
   21.0573   19.2842   22.6931 H   0  0  0  0  0  0  0  0  0  0  0  0
   19.7787   19.4153   20.9613 C   0  0  1  0  0  0  0  0  0  0  0  0
   20.5090   20.0540   20.4549 H   0  0  0  0  0  0  0  0  0  0  0  0
   20.0070   17.9725   20.4777 C   0  0  0  0  0  0  0  0  0  0  0  0
   19.2499   17.2870   20.8769 H   0  0  0  0  0  0  0  0  0  0  0  0
   20.9957   17.6101   20.7855 H   0  0  0  0  0  0  0  0  0  0  0  0
   19.9605   17.9228   19.3830 H   0  0  0  0  0  0  0  0  0  0  0  0
   18.4250   19.9176   20.5397 N   0  3  0  0  0  0  0  0  0  0  0  0
   18.3092   19.8725   19.5233 H   0  0  0  0  0  0  0  0  0  0  0  0
   17.6749   19.3626   20.9585 H   0  0  0  0  0  0  0  0  0  0  0  0
   18.2816   20.8918   20.8206 H   0  0  0  0  0  0  0  0  0  0  0  0
  1  2  1  0  0  0  0
  1  3  1  0  0  0  0
  1  4  1  0  0  0  0
  1  5  1  0  0  0  0
  5  6  1  0  0  0  0
  5  7  1  0  0  0  0
  5  8  1  0  0  0  0
  8  9  1  0  0  0  0
  8 10  1  0  0  0  0
  8 11  1  0  0  0  0
 11 12  1  0  0  0  0
 11 13  1  0  0  0  0
 11 14  1  0  0  0  0
 14 15  1  0  0  0  0
 14 16  1  0  0  0  0
 14 17  1  0  0  0  0
 17 18  1  0  0  0  0
 17 19  1  0  0  0  0
 19 20  1  0  0  0  0
 19 21  1  0  0  0  0
 19 22  1  0  0  0  0
 17 23  1  0  0  0  0
 23 24  1  0  0  0  0
 23 25  1  0  0  0  0
 23 26  1  0  0  0  0
M  END
> <VConfSearch Rank>
799

> <Conf_Id>
105

> <Delta U+W>
3.442

> <U+W>
-26.857

> <U>
27.313

> <W>
-54.169

> <W(PB)>
-56.414

> <W(SA)>
2.245

> <Valence>
6.229

> <Coulomb>
19.943

> <VdW>
1.140

> <VdW6>
-9.001

> <VdW12>
10.140

> <Bond>
0.294

> <Angle>
1.969

> <Pdih>
3.967

> <Idih>
0.000

> <Tether>
0.000

$$$$
VeraChem MOL file


 26 25  0  0  0  0  0  0  0  0999 V2000     
   19.5156   16.3549   21.6141 C   0  0  0  0  0  0  0  0  0  0  0  0
   18.5777   15.8078   21.7756 H   0  0  0  0  0  0  0  0  0  0  0  0
   20.2076   15.6815   21.0921 H   0  0  0  0  0  0  0  0  0  0  0  0
   19.9487   16.5788   22.5950 H   0  0  0  0  0  0  0  0  0  0  0  0
   19.2720   17.6330   20.7781 C   0  0  0  0  0  0  0  0  0  0  0  0
   18.8722   17.3262   19.8013 H   0  0  0  0  0  0  0  0  0  0  0  0
   20.2242   18.1399   20.5687 H   0  0  0  0  0  0  0  0  0  0  0  0
   18.2693   18.6180   21.4329 C   0  0  0  0  0  0  0  0  0  0  0  0
   17.6933   19.1011   20.6314 H   0  0  0  0  0  0  0  0  0  0  0  0
   17.5332   18.0673   22.0345 H   0  0  0  0  0  0  0  0  0  0  0  0
   18.9196   19.7417   22.2806 C   0  0  0  0  0  0  0  0  0  0  0  0
   18.1232   20.4153   22.6265 H   0  0  0  0  0  0  0  0  0  0  0  0
   19.5734   20.3437   21.6354 H   0  0  0  0  0  0  0  0  0  0  0  0
   19.7155   19.2335   23.5079 C   0  0  0  0  0  0  0  0  0  0  0  0
   19.0953   18.5178   24.0637 H   0  0  0  0  0  0  0  0  0  0  0  0
   20.6099   18.6927   23.1743 H   0  0  0  0  0  0  0  0  0  0  0  0
   20.1389   20.3720   24.4609 C   0  0  1  0  0  0  0  0  0  0  0  0
   19.2389   20.9122   24.7706 H   0  0  0  0  0  0  0  0  0  0  0  0
   20.8116   19.7952   25.7168 C   0  0  0  0  0  0  0  0  0  0  0  0
   21.7247   19.2435   25.4605 H   0  0  0  0  0  0  0  0  0  0  0  0
   20.1345   19.1099   26.2418 H   0  0  0  0  0  0  0  0  0  0  0  0
   21.0812   20.5966   26.4157 H   0  0  0  0  0  0  0  0  0  0  0  0
   21.0383   21.3763   23.7932 N   0  3  0  0  0  0  0  0  0  0  0  0
   20.5858   21.7997   22.9787 H   0  0  0  0  0  0  0  0  0  0  0  0
   21.2908   22.1355   24.4322 H   0  0  0  0  0  0  0  0  0  0  0  0
   21.9083   20.9434   23.4726 H   0  0  0  0  0  0  0  0  0  0  0  0
  1  2  1  0  0  0  0
  1  3  1  0  0  0  0
  1  4  1  0  0  0  0
  1  5  1  0  0  0  0
  5  6  1  0  0  0  0
  5  7  1  0  0  0  0
  5  8  1  0  0  0  0
  8  9  1  0  0  0  0
  8 10  1  0  0  0  0
  8 11  1  0  0  0  0
 11 12  1  0  0  0  0
 11 13  1  0  0  0  0
 11 14  1  0  0  0  0
 14 15  1  0  0  0  0
 14 16  1  0  0  0  0
 14 17  1  0  0  0  0
 17 18  1  0  0  0  0
 17 19  1  0  0  0  0
 19 20  1  0  0  0  0
 19 21  1  0  0  0  0
 19 22  1  0  0  0  0
 17 23  1  0  0  0  0
 23 24  1  0  0  0  0
 23 25  1  0  0  0  0
 23 26  1  0  0  0  0
M  END
> <VConfSearch Rank>
800

> <Conf_Id>
107

> <Delta U+W>
2.995

> <U+W>
-27.304

> <U>
26.796

> <W>
-54.100

> <W(PB)>
-56.404

> <W(SA)>
2.304

> <Valence>
5.706

> <Coulomb>
20.107

> <VdW>
0.982

> <VdW6>
-8.396

> <VdW12>
9.378

> <Bond>
0.254

> <Angle>
1.644

> <Pdih>
3.808

> <Idih>
0.000

> <Tether>
0.000

$$$$
VeraChem MOL file


 26 25  0  0  0  0  0  0  0  0999 V2000     
   23.8894   18.5562   22.0709 C   0  0  0  0  0  0  0  0  0  0  0  0
   23.7720   17.7157   21.3745 H   0  0  0  0  0  0  0  0  0  0  0  0
   24.7380   19.1621   21.7277 H   0  0  0  0  0  0  0  0  0  0  0  0
   24.1434   18.1493   23.0584 H   0  0  0  0  0  0  0  0  0  0  0  0
   22.6032   19.4069   22.1356 C   0  0  0  0  0  0  0  0  0  0  0  0
   22.3940   19.8274   21.1420 H   0  0  0  0  0  0  0  0  0  0  0  0
   22.7627   20.2577   22.8128 H   0  0  0  0  0  0  0  0  0  0  0  0
   21.3921   18.5770   22.6164 C   0  0  0  0  0  0  0  0  0  0  0  0
   21.2394   17.7262   21.9380 H   0  0  0  0  0  0  0  0  0  0  0  0
   21.6067   18.1574   23.6090 H   0  0  0  0  0  0  0  0  0  0  0  0
   20.1018   19.4253   22.6817 C   0  0  0  0  0  0  0  0  0  0  0  0
   19.8866   19.8414   21.6876 H   0  0  0  0  0  0  0  0  0  0  0  0
   20.2651   20.2765   23.3560 H   0  0  0  0  0  0  0  0  0  0  0  0
   18.8904   18.5912   23.1651 C   0  0  0  0  0  0  0  0  0  0  0  0
   18.7782   17.7164   22.5107 H   0  0  0  0  0  0  0  0  0  0  0  0
   19.0846   18.2046   24.1745 H   0  0  0  0  0  0  0  0  0  0  0  0
   17.5684   19.3892   23.1598 C   0  0  1  0  0  0  0  0  0  0  0  0
   17.4098   19.7831   22.1512 H   0  0  0  0  0  0  0  0  0  0  0  0
   16.3877   18.4693   23.5095 C   0  0  0  0  0  0  0  0  0  0  0  0
   16.4974   18.0476   24.5165 H   0  0  0  0  0  0  0  0  0  0  0  0
   16.3166   17.6380   22.7970 H   0  0  0  0  0  0  0  0  0  0  0  0
   15.4406   19.0215   23.4715 H   0  0  0  0  0  0  0  0  0  0  0  0
   17.6064   20.5738   24.0865 N   0  3  0  0  0  0  0  0  0  0  0  0
   17.7557   20.2844   25.0567 H   0  0  0  0  0  0  0  0  0  0  0  0
   18.3603   21.2196   23.8376 H   0  0  0  0  0  0  0  0  0  0  0  0
   16.7293   21.1013   24.0555 H   0  0  0  0  0  0  0  0  0  0  0  0
  1  2  1  0  0  0  0
  1  3  1  0  0  0  0
  1  4  1  0  0  0  0
  1  5  1  0  0  0  0
  5  6  1  0  0  0  0
  5  7  1  0  0  0  0
  5  8  1  0  0  0  0
  8  9  1  0  0  0  0
  8 10  1  0  0  0  0
  8 11  1  0  0  0  0
 11 12  1  0  0  0  0
 11 13  1  0  0  0  0
 11 14  1  0  0  0  0
 14 15  1  0  0  0  0
 14 16  1  0  0  0  0
 14 17  1  0  0  0  0
 17 18  1  0  0  0  0
 17 19  1  0  0  0  0
 19 20  1  0  0  0  0
 19 21  1  0  0  0  0
 19 22  1  0  0  0  0
 17 23  1  0  0  0  0
 23 24  1  0  0  0  0
 23 25  1  0  0  0  0
 23 26  1  0  0  0  0
M  END
> <VConfSearch Rank>
801

> <Conf_Id>
122

> <Delta U+W>
0.000

> <U+W>
-30.299

> <U>
23.517

> <W>
-53.816

> <W(PB)>
-56.162

> <W(SA)>
2.346

> <Valence>
2.737

> <Coulomb>
19.862

> <VdW>
0.919

> <VdW6>
-6.793

> <VdW12>
7.712

> <Bond>
0.171

> <Angle>
0.873

> <Pdih>
1.693

> <Idih>
0.000

> <Tether>
0.000

$$$$
VeraChem MOL file


 26 25  0  0  0  0  0  0  0  0999 V2000     
   15.6268   19.1601   23.2657 C   0  0  0  0  0  0  0  0  0  0  0  0
   14.7596   19.0971   22.5956 H   0  0  0  0  0  0  0  0  0  0  0  0
   15.5385   18.3557   24.0075 H   0  0  0  0  0  0  0  0  0  0  0  0
   15.5745   20.1206   23.7949 H   0  0  0  0  0  0  0  0  0  0  0  0
   16.9422   19.0373   22.4678 C   0  0  0  0  0  0  0  0  0  0  0  0
   16.9857   19.8340   21.7120 H   0  0  0  0  0  0  0  0  0  0  0  0
   16.9502   18.0828   21.9229 H   0  0  0  0  0  0  0  0  0  0  0  0
   18.1798   19.1229   23.3883 C   0  0  0  0  0  0  0  0  0  0  0  0
   18.1664   20.0777   23.9320 H   0  0  0  0  0  0  0  0  0  0  0  0
   18.1293   18.3264   24.1436 H   0  0  0  0  0  0  0  0  0  0  0  0
   19.4993   18.9999   22.5927 C   0  0  0  0  0  0  0  0  0  0  0  0
   19.5350   19.7945   21.8361 H   0  0  0  0  0  0  0  0  0  0  0  0
   19.5139   18.0427   22.0531 H   0  0  0  0  0  0  0  0  0  0  0  0
   20.7380   19.0905   23.5177 C   0  0  0  0  0  0  0  0  0  0  0  0
   20.7620   20.0721   24.0095 H   0  0  0  0  0  0  0  0  0  0  0  0
   20.6326   18.3448   24.3167 H   0  0  0  0  0  0  0  0  0  0  0  0
   22.0789   18.8405   22.7900 C   0  0  1  0  0  0  0  0  0  0  0  0
   22.0148   17.8775   22.2741 H   0  0  0  0  0  0  0  0  0  0  0  0
   22.3865   19.9315   21.7484 C   0  0  0  0  0  0  0  0  0  0  0  0
   22.3979   20.9275   22.2084 H   0  0  0  0  0  0  0  0  0  0  0  0
   21.6448   19.9336   20.9415 H   0  0  0  0  0  0  0  0  0  0  0  0
   23.3665   19.7591   21.2866 H   0  0  0  0  0  0  0  0  0  0  0  0
   23.2135   18.7220   23.7695 N   0  3  0  0  0  0  0  0  0  0  0  0
   23.3447   19.5889   24.2973 H   0  0  0  0  0  0  0  0  0  0  0  0
   23.0507   17.9712   24.4467 H   0  0  0  0  0  0  0  0  0  0  0  0
   24.0974   18.5167   23.2951 H   0  0  0  0  0  0  0  0  0  0  0  0
  1  2  1  0  0  0  0
  1  3  1  0  0  0  0
  1  4  1  0  0  0  0
  1  5  1  0  0  0  0
  5  6  1  0  0  0  0
  5  7  1  0  0  0  0
  5  8  1  0  0  0  0
  8  9  1  0  0  0  0
  8 10  1  0  0  0  0
  8 11  1  0  0  0  0
 11 12  1  0  0  0  0
 11 13  1  0  0  0  0
 11 14  1  0  0  0  0
 14 15  1  0  0  0  0
 14 16  1  0  0  0  0
 14 17  1  0  0  0  0
 17 18  1  0  0  0  0
 17 19  1  0  0  0  0
 19 20  1  0  0  0  0
 19 21  1  0  0  0  0
 19 22  1  0  0  0  0
 17 23  1  0  0  0  0
 23 24  1  0  0  0  0
 23 25  1  0  0  0  0
 23 26  1  0  0  0  0
M  END
> <VConfSearch Rank>
802

> <Conf_Id>
54

> <Delta U+W>
0.453

> <U+W>
-29.845

> <U>
23.817

> <W>
-53.663

> <W(PB)>
-56.021

> <W(SA)>
2.358

> <Valence>
3.277

> <Coulomb>
19.492

> <VdW>
1.049

> <VdW6>
-6.949

> <VdW12>
7.998

> <Bond>
0.183

> <Angle>
1.152

> <Pdih>
1.942

> <Idih>
0.000

> <Tether>
0.000

$$$$
VeraChem MOL file


 26 25  0  0  0  0  0  0  0  0999 V2000     
   23.0624   18.0209   24.2855 C   0  0  0  0  0  0  0  0  0  0  0  0
   22.5575   17.4146   25.0488 H   0  0  0  0  0  0  0  0  0  0  0  0
   23.0804   17.4501   23.3492 H   0  0  0  0  0  0  0  0  0  0  0  0
   24.1034   18.1614   24.6042 H   0  0  0  0  0  0  0  0  0  0  0  0
   22.3630   19.3881   24.1090 C   0  0  0  0  0  0  0  0  0  0  0  0
   22.8642   19.9624   23.3172 H   0  0  0  0  0  0  0  0  0  0  0  0
   22.4887   19.9674   25.0344 H   0  0  0  0  0  0  0  0  0  0  0  0
   20.8504   19.2750   23.7989 C   0  0  0  0  0  0  0  0  0  0  0  0
   20.3614   18.6744   24.5783 H   0  0  0  0  0  0  0  0  0  0  0  0
   20.4268   20.2846   23.8577 H   0  0  0  0  0  0  0  0  0  0  0  0
   20.5511   18.6755   22.4016 C   0  0  0  0  0  0  0  0  0  0  0  0
   21.0820   17.7213   22.2947 H   0  0  0  0  0  0  0  0  0  0  0  0
   20.9576   19.3385   21.6254 H   0  0  0  0  0  0  0  0  0  0  0  0
   19.0499   18.4064   22.1155 C   0  0  0  0  0  0  0  0  0  0  0  0
   18.9953   17.8930   21.1462 H   0  0  0  0  0  0  0  0  0  0  0  0
   18.6453   17.6984   22.8509 H   0  0  0  0  0  0  0  0  0  0  0  0
   18.1605   19.6712   22.0556 C   0  0  1  0  0  0  0  0  0  0  0  0
   18.7290   20.4708   21.5707 H   0  0  0  0  0  0  0  0  0  0  0  0
   16.8999   19.4009   21.2172 C   0  0  0  0  0  0  0  0  0  0  0  0
   16.2723   20.2987   21.1583 H   0  0  0  0  0  0  0  0  0  0  0  0
   16.2999   18.5918   21.6524 H   0  0  0  0  0  0  0  0  0  0  0  0
   17.1661   19.1160   20.1917 H   0  0  0  0  0  0  0  0  0  0  0  0
   17.7634   20.1705   23.4183 N   0  3  0  0  0  0  0  0  0  0  0  0
   18.5813   20.3682   23.9988 H   0  0  0  0  0  0  0  0  0  0  0  0
   17.2139   21.0323   23.3551 H   0  0  0  0  0  0  0  0  0  0  0  0
   17.1932   19.4809   23.9149 H   0  0  0  0  0  0  0  0  0  0  0  0
  1  2  1  0  0  0  0
  1  3  1  0  0  0  0
  1  4  1  0  0  0  0
  1  5  1  0  0  0  0
  5  6  1  0  0  0  0
  5  7  1  0  0  0  0
  5  8  1  0  0  0  0
  8  9  1  0  0  0  0
  8 10  1  0  0  0  0
  8 11  1  0  0  0  0
 11 12  1  0  0  0  0
 11 13  1  0  0  0  0
 11 14  1  0  0  0  0
 14 15  1  0  0  0  0
 14 16  1  0  0  0  0
 14 17  1  0  0  0  0
 17 18  1  0  0  0  0
 17 19  1  0  0  0  0
 19 20  1  0  0  0  0
 19 21  1  0  0  0  0
 19 22  1  0  0  0  0
 17 23  1  0  0  0  0
 23 24  1  0  0  0  0
 23 25  1  0  0  0  0
 23 26  1  0  0  0  0
M  END
> <VConfSearch Rank>
803

> <Conf_Id>
110

> <Delta U+W>
3.764

> <U+W>
-26.535

> <U>
27.400

> <W>
-53.935

> <W(PB)>
-56.238

> <W(SA)>
2.303

> <Valence>
5.205

> <Coulomb>
21.096

> <VdW>
1.098

> <VdW6>
-8.389

> <VdW12>
9.488

> <Bond>
0.270

> <Angle>
1.912

> <Pdih>
3.023

> <Idih>
0.000

> <Tether>
0.000

$$$$
VeraChem MOL file


 26 25  0  0  0  0  0  0  0  0999 V2000     
   21.7804   21.7678   24.6501 C   0  0  0  0  0  0  0  0  0  0  0  0
   22.7298   22.3052   24.7712 H   0  0  0  0  0  0  0  0  0  0  0  0
   21.1645   22.3416   23.9465 H   0  0  0  0  0  0  0  0  0  0  0  0
   21.2734   21.7584   25.6237 H   0  0  0  0  0  0  0  0  0  0  0  0
   22.0337   20.3305   24.1414 C   0  0  0  0  0  0  0  0  0  0  0  0
   22.7505   19.8383   24.8134 H   0  0  0  0  0  0  0  0  0  0  0  0
   22.5141   20.3677   23.1537 H   0  0  0  0  0  0  0  0  0  0  0  0
   20.7505   19.4683   24.0664 C   0  0  0  0  0  0  0  0  0  0  0  0
   21.0392   18.4422   23.8091 H   0  0  0  0  0  0  0  0  0  0  0  0
   20.2904   19.4126   25.0625 H   0  0  0  0  0  0  0  0  0  0  0  0
   19.7111   19.9997   23.0458 C   0  0  0  0  0  0  0  0  0  0  0  0
   20.1884   20.1911   22.0749 H   0  0  0  0  0  0  0  0  0  0  0  0
   19.3414   20.9713   23.3994 H   0  0  0  0  0  0  0  0  0  0  0  0
   18.4921   19.0568   22.8638 C   0  0  0  0  0  0  0  0  0  0  0  0
   18.3292   18.4641   23.7738 H   0  0  0  0  0  0  0  0  0  0  0  0
   17.5975   19.6836   22.7517 H   0  0  0  0  0  0  0  0  0  0  0  0
   18.5678   18.1292   21.6269 C   0  0  1  0  0  0  0  0  0  0  0  0
   18.6843   18.7571   20.7382 H   0  0  0  0  0  0  0  0  0  0  0  0
   19.7557   17.1538   21.6831 C   0  0  0  0  0  0  0  0  0  0  0  0
   19.7346   16.5538   22.6013 H   0  0  0  0  0  0  0  0  0  0  0  0
   20.7095   17.6922   21.6394 H   0  0  0  0  0  0  0  0  0  0  0  0
   19.7335   16.4676   20.8275 H   0  0  0  0  0  0  0  0  0  0  0  0
   17.2822   17.3716   21.4418 N   0  3  0  0  0  0  0  0  0  0  0  0
   16.4812   18.0034   21.3523 H   0  0  0  0  0  0  0  0  0  0  0  0
   17.3077   16.7919   20.5982 H   0  0  0  0  0  0  0  0  0  0  0  0
   17.0966   16.7502   22.2335 H   0  0  0  0  0  0  0  0  0  0  0  0
  1  2  1  0  0  0  0
  1  3  1  0  0  0  0
  1  4  1  0  0  0  0
  1  5  1  0  0  0  0
  5  6  1  0  0  0  0
  5  7  1  0  0  0  0
  5  8  1  0  0  0  0
  8  9  1  0  0  0  0
  8 10  1  0  0  0  0
  8 11  1  0  0  0  0
 11 12  1  0  0  0  0
 11 13  1  0  0  0  0
 11 14  1  0  0  0  0
 14 15  1  0  0  0  0
 14 16  1  0  0  0  0
 14 17  1  0  0  0  0
 17 18  1  0  0  0  0
 17 19  1  0  0  0  0
 19 20  1  0  0  0  0
 19 21  1  0  0  0  0
 19 22  1  0  0  0  0
 17 23  1  0  0  0  0
 23 24  1  0  0  0  0
 23 25  1  0  0  0  0
 23 26  1  0  0  0  0
M  END
> <VConfSearch Rank>
804

> <Conf_Id>
34

> <Delta U+W>
3.568

> <U+W>
-26.731

> <U>
27.221

> <W>
-53.952

> <W(PB)>
-56.213

> <W(SA)>
2.261

> <Valence>
6.368

> <Coulomb>
19.698

> <VdW>
1.155

> <VdW6>
-8.532

> <VdW12>
9.687

> <Bond>
0.272

> <Angle>
1.847

> <Pdih>
4.248

> <Idih>
0.000

> <Tether>
0.000

$$$$
VeraChem MOL file


 26 25  0  0  0  0  0  0  0  0999 V2000     
   15.9915   19.3789   24.2755 C   0  0  0  0  0  0  0  0  0  0  0  0
   16.1507   20.1210   25.0687 H   0  0  0  0  0  0  0  0  0  0  0  0
   15.5596   19.8937   23.4074 H   0  0  0  0  0  0  0  0  0  0  0  0
   15.2532   18.6517   24.6377 H   0  0  0  0  0  0  0  0  0  0  0  0
   17.3128   18.6741   23.9019 C   0  0  0  0  0  0  0  0  0  0  0  0
   17.1158   17.9152   23.1317 H   0  0  0  0  0  0  0  0  0  0  0  0
   17.7023   18.1407   24.7803 H   0  0  0  0  0  0  0  0  0  0  0  0
   18.3704   19.6763   23.3885 C   0  0  0  0  0  0  0  0  0  0  0  0
   17.9749   20.2084   22.5122 H   0  0  0  0  0  0  0  0  0  0  0  0
   18.5616   20.4342   24.1608 H   0  0  0  0  0  0  0  0  0  0  0  0
   19.6953   18.9745   23.0135 C   0  0  0  0  0  0  0  0  0  0  0  0
   19.4964   18.2178   22.2432 H   0  0  0  0  0  0  0  0  0  0  0  0
   20.0791   18.4423   23.8938 H   0  0  0  0  0  0  0  0  0  0  0  0
   20.7534   19.9865   22.5018 C   0  0  0  0  0  0  0  0  0  0  0  0
   20.3372   20.5451   21.6531 H   0  0  0  0  0  0  0  0  0  0  0  0
   20.9520   20.7307   23.2845 H   0  0  0  0  0  0  0  0  0  0  0  0
   22.0969   19.3584   22.0612 C   0  0  1  0  0  0  0  0  0  0  0  0
   22.7323   20.1723   21.6983 H   0  0  0  0  0  0  0  0  0  0  0  0
   22.8314   18.6822   23.2320 C   0  0  0  0  0  0  0  0  0  0  0  0
   22.2973   17.7929   23.5871 H   0  0  0  0  0  0  0  0  0  0  0  0
   22.9437   19.3758   24.0747 H   0  0  0  0  0  0  0  0  0  0  0  0
   23.8362   18.3682   22.9240 H   0  0  0  0  0  0  0  0  0  0  0  0
   21.9358   18.4091   20.9057 N   0  3  0  0  0  0  0  0  0  0  0  0
   22.8406   18.0517   20.5862 H   0  0  0  0  0  0  0  0  0  0  0  0
   21.3615   17.6031   21.1639 H   0  0  0  0  0  0  0  0  0  0  0  0
   21.4873   18.8641   20.1055 H   0  0  0  0  0  0  0  0  0  0  0  0
  1  2  1  0  0  0  0
  1  3  1  0  0  0  0
  1  4  1  0  0  0  0
  1  5  1  0  0  0  0
  5  6  1  0  0  0  0
  5  7  1  0  0  0  0
  5  8  1  0  0  0  0
  8  9  1  0  0  0  0
  8 10  1  0  0  0  0
  8 11  1  0  0  0  0
 11 12  1  0  0  0  0
 11 13  1  0  0  0  0
 11 14  1  0  0  0  0
 14 15  1  0  0  0  0
 14 16  1  0  0  0  0
 14 17  1  0  0  0  0
 17 18  1  0  0  0  0
 17 19  1  0  0  0  0
 19 20  1  0  0  0  0
 19 21  1  0  0  0  0
 19 22  1  0  0  0  0
 17 23  1  0  0  0  0
 23 24  1  0  0  0  0
 23 25  1  0  0  0  0
 23 26  1  0  0  0  0
M  END
> <VConfSearch Rank>
805

> <Conf_Id>
132

> <Delta U+W>
0.363

> <U+W>
-29.936

> <U>
24.060

> <W>
-53.996

> <W(PB)>
-56.327

> <W(SA)>
2.332

> <Valence>
3.249

> <Coulomb>
19.781

> <VdW>
1.030

> <VdW6>
-7.421

> <VdW12>
8.451

> <Bond>
0.207

> <Angle>
1.205

> <Pdih>
1.837

> <Idih>
0.000

> <Tether>
0.000

$$$$
VeraChem MOL file


 26 25  0  0  0  0  0  0  0  0999 V2000     
   15.9286   18.8104   22.8206 C   0  0  0  0  0  0  0  0  0  0  0  0
   15.3863   17.8779   22.6171 H   0  0  0  0  0  0  0  0  0  0  0  0
   15.5242   19.2398   23.7466 H   0  0  0  0  0  0  0  0  0  0  0  0
   15.7186   19.5085   21.9998 H   0  0  0  0  0  0  0  0  0  0  0  0
   17.4435   18.5433   22.9473 C   0  0  0  0  0  0  0  0  0  0  0  0
   17.8006   18.0771   22.0197 H   0  0  0  0  0  0  0  0  0  0  0  0
   17.6190   17.8204   23.7562 H   0  0  0  0  0  0  0  0  0  0  0  0
   18.2298   19.8454   23.2300 C   0  0  0  0  0  0  0  0  0  0  0  0
   18.0983   20.5469   22.3946 H   0  0  0  0  0  0  0  0  0  0  0  0
   17.7990   20.3359   24.1139 H   0  0  0  0  0  0  0  0  0  0  0  0
   19.7402   19.6174   23.4847 C   0  0  0  0  0  0  0  0  0  0  0  0
   19.8632   18.9212   24.3249 H   0  0  0  0  0  0  0  0  0  0  0  0
   20.1752   20.5723   23.8067 H   0  0  0  0  0  0  0  0  0  0  0  0
   20.5034   19.0925   22.2377 C   0  0  0  0  0  0  0  0  0  0  0  0
   20.0902   18.1230   21.9343 H   0  0  0  0  0  0  0  0  0  0  0  0
   20.3319   19.7729   21.3932 H   0  0  0  0  0  0  0  0  0  0  0  0
   22.0281   18.9175   22.4339 C   0  0  1  0  0  0  0  0  0  0  0  0
   22.4274   18.4936   21.5072 H   0  0  0  0  0  0  0  0  0  0  0  0
   22.7416   20.2598   22.6733 C   0  0  0  0  0  0  0  0  0  0  0  0
   22.4686   20.6993   23.6399 H   0  0  0  0  0  0  0  0  0  0  0  0
   22.4922   20.9804   21.8846 H   0  0  0  0  0  0  0  0  0  0  0  0
   23.8297   20.1218   22.6648 H   0  0  0  0  0  0  0  0  0  0  0  0
   22.3578   17.9302   23.5196 N   0  3  0  0  0  0  0  0  0  0  0  0
   21.9246   17.0194   23.3433 H   0  0  0  0  0  0  0  0  0  0  0  0
   23.3678   17.7793   23.5940 H   0  0  0  0  0  0  0  0  0  0  0  0
   22.0285   18.2571   24.4312 H   0  0  0  0  0  0  0  0  0  0  0  0
  1  2  1  0  0  0  0
  1  3  1  0  0  0  0
  1  4  1  0  0  0  0
  1  5  1  0  0  0  0
  5  6  1  0  0  0  0
  5  7  1  0  0  0  0
  5  8  1  0  0  0  0
  8  9  1  0  0  0  0
  8 10  1  0  0  0  0
  8 11  1  0  0  0  0
 11 12  1  0  0  0  0
 11 13  1  0  0  0  0
 11 14  1  0  0  0  0
 14 15  1  0  0  0  0
 14 16  1  0  0  0  0
 14 17  1  0  0  0  0
 17 18  1  0  0  0  0
 17 19  1  0  0  0  0
 19 20  1  0  0  0  0
 19 21  1  0  0  0  0
 19 22  1  0  0  0  0
 17 23  1  0  0  0  0
 23 24  1  0  0  0  0
 23 25  1  0  0  0  0
 23 26  1  0  0  0  0
M  END
> <VConfSearch Rank>
806

> <Conf_Id>
46

> <Delta U+W>
1.114

> <U+W>
-29.185

> <U>
24.990

> <W>
-54.175

> <W(PB)>
-56.455

> <W(SA)>
2.279

> <Valence>
3.862

> <Coulomb>
19.956

> <VdW>
1.172

> <VdW6>
-8.054

> <VdW12>
9.226

> <Bond>
0.258

> <Angle>
1.499

> <Pdih>
2.106

> <Idih>
0.000

> <Tether>
0.000

$$$$
VeraChem MOL file


 26 25  0  0  0  0  0  0  0  0999 V2000     
   20.3591   15.8495   21.4063 C   0  0  0  0  0  0  0  0  0  0  0  0
   20.5281   15.6014   22.4614 H   0  0  0  0  0  0  0  0  0  0  0  0
   19.3031   15.6612   21.1728 H   0  0  0  0  0  0  0  0  0  0  0  0
   20.9639   15.1586   20.8049 H   0  0  0  0  0  0  0  0  0  0  0  0
   20.7442   17.3141   21.0973 C   0  0  0  0  0  0  0  0  0  0  0  0
   20.6797   17.4740   20.0119 H   0  0  0  0  0  0  0  0  0  0  0  0
   21.7946   17.4860   21.3709 H   0  0  0  0  0  0  0  0  0  0  0  0
   19.8412   18.3529   21.8054 C   0  0  0  0  0  0  0  0  0  0  0  0
   20.1062   19.3482   21.4255 H   0  0  0  0  0  0  0  0  0  0  0  0
   18.7939   18.1819   21.5205 H   0  0  0  0  0  0  0  0  0  0  0  0
   19.9724   18.3324   23.3496 C   0  0  0  0  0  0  0  0  0  0  0  0
   21.0229   18.4743   23.6360 H   0  0  0  0  0  0  0  0  0  0  0  0
   19.6855   17.3428   23.7281 H   0  0  0  0  0  0  0  0  0  0  0  0
   19.0822   19.3895   24.0527 C   0  0  0  0  0  0  0  0  0  0  0  0
   18.0301   19.1733   23.8238 H   0  0  0  0  0  0  0  0  0  0  0  0
   19.1877   19.2784   25.1401 H   0  0  0  0  0  0  0  0  0  0  0  0
   19.3933   20.8509   23.6576 C   0  0  1  0  0  0  0  0  0  0  0  0
   19.2589   20.9525   22.5768 H   0  0  0  0  0  0  0  0  0  0  0  0
   18.4160   21.8121   24.3527 C   0  0  0  0  0  0  0  0  0  0  0  0
   18.6058   22.8479   24.0455 H   0  0  0  0  0  0  0  0  0  0  0  0
   18.5124   21.7562   25.4442 H   0  0  0  0  0  0  0  0  0  0  0  0
   17.3787   21.5714   24.0885 H   0  0  0  0  0  0  0  0  0  0  0  0
   20.8167   21.2354   23.9551 N   0  3  0  0  0  0  0  0  0  0  0  0
   21.4764   20.6249   23.4656 H   0  0  0  0  0  0  0  0  0  0  0  0
   21.0139   22.1972   23.6646 H   0  0  0  0  0  0  0  0  0  0  0  0
   21.0194   21.1696   24.9560 H   0  0  0  0  0  0  0  0  0  0  0  0
  1  2  1  0  0  0  0
  1  3  1  0  0  0  0
  1  4  1  0  0  0  0
  1  5  1  0  0  0  0
  5  6  1  0  0  0  0
  5  7  1  0  0  0  0
  5  8  1  0  0  0  0
  8  9  1  0  0  0  0
  8 10  1  0  0  0  0
  8 11  1  0  0  0  0
 11 12  1  0  0  0  0
 11 13  1  0  0  0  0
 11 14  1  0  0  0  0
 14 15  1  0  0  0  0
 14 16  1  0  0  0  0
 14 17  1  0  0  0  0
 17 18  1  0  0  0  0
 17 19  1  0  0  0  0
 19 20  1  0  0  0  0
 19 21  1  0  0  0  0
 19 22  1  0  0  0  0
 17 23  1  0  0  0  0
 23 24  1  0  0  0  0
 23 25  1  0  0  0  0
 23 26  1  0  0  0  0
M  END
> <VConfSearch Rank>
807

> <Conf_Id>
113

> <Delta U+W>
1.137

> <U+W>
-29.162

> <U>
24.833

> <W>
-53.995

> <W(PB)>
-56.288

> <W(SA)>
2.294

> <Valence>
3.589

> <Coulomb>
20.270

> <VdW>
0.974

> <VdW6>
-8.255

> <VdW12>
9.229

> <Bond>
0.244

> <Angle>
1.377

> <Pdih>
1.967

> <Idih>
0.000

> <Tether>
0.000

$$$$
VeraChem MOL file


 26 25  0  0  0  0  0  0  0  0999 V2000     
   16.2340   18.5444   21.4363 C   0  0  0  0  0  0  0  0  0  0  0  0
   15.9077   18.8891   20.4465 H   0  0  0  0  0  0  0  0  0  0  0  0
   16.2280   17.4466   21.4298 H   0  0  0  0  0  0  0  0  0  0  0  0
   15.4947   18.8861   22.1724 H   0  0  0  0  0  0  0  0  0  0  0  0
   17.6398   19.0891   21.7669 C   0  0  0  0  0  0  0  0  0  0  0  0
   17.6210   20.1874   21.7370 H   0  0  0  0  0  0  0  0  0  0  0  0
   18.3407   18.7607   20.9880 H   0  0  0  0  0  0  0  0  0  0  0  0
   18.1233   18.6123   23.1570 C   0  0  0  0  0  0  0  0  0  0  0  0
   17.3679   18.8808   23.9085 H   0  0  0  0  0  0  0  0  0  0  0  0
   18.1929   17.5158   23.1691 H   0  0  0  0  0  0  0  0  0  0  0  0
   19.4799   19.2241   23.5854 C   0  0  0  0  0  0  0  0  0  0  0  0
   19.6767   18.9246   24.6230 H   0  0  0  0  0  0  0  0  0  0  0  0
   19.3939   20.3188   23.5891 H   0  0  0  0  0  0  0  0  0  0  0  0
   20.6657   18.7837   22.6840 C   0  0  0  0  0  0  0  0  0  0  0  0
   20.6716   17.6888   22.6035 H   0  0  0  0  0  0  0  0  0  0  0  0
   20.5161   19.1623   21.6652 H   0  0  0  0  0  0  0  0  0  0  0  0
   22.0589   19.2464   23.1721 C   0  0  1  0  0  0  0  0  0  0  0  0
   22.7962   18.8644   22.4591 H   0  0  0  0  0  0  0  0  0  0  0  0
   22.1833   20.7799   23.1936 C   0  0  0  0  0  0  0  0  0  0  0  0
   21.5359   21.2284   23.9564 H   0  0  0  0  0  0  0  0  0  0  0  0
   21.9140   21.2066   22.2194 H   0  0  0  0  0  0  0  0  0  0  0  0
   23.2158   21.0780   23.4131 H   0  0  0  0  0  0  0  0  0  0  0  0
   22.4269   18.6568   24.5061 N   0  3  0  0  0  0  0  0  0  0  0  0
   22.3880   17.6338   24.4882 H   0  0  0  0  0  0  0  0  0  0  0  0
   23.3764   18.9216   24.7830 H   0  0  0  0  0  0  0  0  0  0  0  0
   21.7926   18.9766   25.2420 H   0  0  0  0  0  0  0  0  0  0  0  0
  1  2  1  0  0  0  0
  1  3  1  0  0  0  0
  1  4  1  0  0  0  0
  1  5  1  0  0  0  0
  5  6  1  0  0  0  0
  5  7  1  0  0  0  0
  5  8  1  0  0  0  0
  8  9  1  0  0  0  0
  8 10  1  0  0  0  0
  8 11  1  0  0  0  0
 11 12  1  0  0  0  0
 11 13  1  0  0  0  0
 11 14  1  0  0  0  0
 14 15  1  0  0  0  0
 14 16  1  0  0  0  0
 14 17  1  0  0  0  0
 17 18  1  0  0  0  0
 17 19  1  0  0  0  0
 19 20  1  0  0  0  0
 19 21  1  0  0  0  0
 19 22  1  0  0  0  0
 17 23  1  0  0  0  0
 23 24  1  0  0  0  0
 23 25  1  0  0  0  0
 23 26  1  0  0  0  0
M  END
> <VConfSearch Rank>
808

> <Conf_Id>
45

> <Delta U+W>
1.035

> <U+W>
-29.264

> <U>
24.725

> <W>
-53.989

> <W(PB)>
-56.298

> <W(SA)>
2.309

> <Valence>
3.780

> <Coulomb>
19.804

> <VdW>
1.141

> <VdW6>
-8.104

> <VdW12>
9.246

> <Bond>
0.254

> <Angle>
1.437

> <Pdih>
2.089

> <Idih>
0.000

> <Tether>
0.000

$$$$
VeraChem MOL file


 26 25  0  0  0  0  0  0  0  0999 V2000     
   16.0910   20.5572   23.1230 C   0  0  0  0  0  0  0  0  0  0  0  0
   15.2960   20.2751   22.4206 H   0  0  0  0  0  0  0  0  0  0  0  0
   15.6793   20.4979   24.1390 H   0  0  0  0  0  0  0  0  0  0  0  0
   16.3612   21.6025   22.9240 H   0  0  0  0  0  0  0  0  0  0  0  0
   17.3137   19.6287   22.9638 C   0  0  0  0  0  0  0  0  0  0  0  0
   17.6692   19.6847   21.9266 H   0  0  0  0  0  0  0  0  0  0  0  0
   17.0059   18.5885   23.1402 H   0  0  0  0  0  0  0  0  0  0  0  0
   18.4502   20.0106   23.9417 C   0  0  0  0  0  0  0  0  0  0  0  0
   18.7962   21.0313   23.7275 H   0  0  0  0  0  0  0  0  0  0  0  0
   18.0475   20.0307   24.9638 H   0  0  0  0  0  0  0  0  0  0  0  0
   19.6537   19.0363   23.9095 C   0  0  0  0  0  0  0  0  0  0  0  0
   19.3062   18.0165   24.1257 H   0  0  0  0  0  0  0  0  0  0  0  0
   20.3335   19.3109   24.7266 H   0  0  0  0  0  0  0  0  0  0  0  0
   20.4267   19.0513   22.5654 C   0  0  0  0  0  0  0  0  0  0  0  0
   19.7505   18.7534   21.7546 H   0  0  0  0  0  0  0  0  0  0  0  0
   20.7589   20.0731   22.3389 H   0  0  0  0  0  0  0  0  0  0  0  0
   21.6415   18.0976   22.5589 C   0  0  1  0  0  0  0  0  0  0  0  0
   21.2915   17.0947   22.8221 H   0  0  0  0  0  0  0  0  0  0  0  0
   22.2658   18.0374   21.1554 C   0  0  0  0  0  0  0  0  0  0  0  0
   22.6346   19.0223   20.8423 H   0  0  0  0  0  0  0  0  0  0  0  0
   21.5307   17.6969   20.4156 H   0  0  0  0  0  0  0  0  0  0  0  0
   23.1079   17.3347   21.1347 H   0  0  0  0  0  0  0  0  0  0  0  0
   22.6797   18.4764   23.5799 N   0  3  0  0  0  0  0  0  0  0  0  0
   22.2919   18.4748   24.5269 H   0  0  0  0  0  0  0  0  0  0  0  0
   23.4682   17.8232   23.5716 H   0  0  0  0  0  0  0  0  0  0  0  0
   23.0549   19.4116   23.4017 H   0  0  0  0  0  0  0  0  0  0  0  0
  1  2  1  0  0  0  0
  1  3  1  0  0  0  0
  1  4  1  0  0  0  0
  1  5  1  0  0  0  0
  5  6  1  0  0  0  0
  5  7  1  0  0  0  0
  5  8  1  0  0  0  0
  8  9  1  0  0  0  0
  8 10  1  0  0  0  0
  8 11  1  0  0  0  0
 11 12  1  0  0  0  0
 11 13  1  0  0  0  0
 11 14  1  0  0  0  0
 14 15  1  0  0  0  0
 14 16  1  0  0  0  0
 14 17  1  0  0  0  0
 17 18  1  0  0  0  0
 17 19  1  0  0  0  0
 19 20  1  0  0  0  0
 19 21  1  0  0  0  0
 19 22  1  0  0  0  0
 17 23  1  0  0  0  0
 23 24  1  0  0  0  0
 23 25  1  0  0  0  0
 23 26  1  0  0  0  0
M  END
> <VConfSearch Rank>
809

> <Conf_Id>
121

> <Delta U+W>
0.736

> <U+W>
-29.562

> <U>
24.282

> <W>
-53.844

> <W(PB)>
-56.205

> <W(SA)>
2.361

> <Valence>
3.311

> <Coulomb>
19.887

> <VdW>
1.083

> <VdW6>
-7.444

> <VdW12>
8.527

> <Bond>
0.219

> <Angle>
1.167

> <Pdih>
1.926

> <Idih>
0.000

> <Tether>
0.000

$$$$
VeraChem MOL file


 26 25  0  0  0  0  0  0  0  0999 V2000     
   20.5348   16.9645   25.8172 C   0  0  0  0  0  0  0  0  0  0  0  0
   20.6458   16.8003   26.8968 H   0  0  0  0  0  0  0  0  0  0  0  0
   20.0732   16.0662   25.3871 H   0  0  0  0  0  0  0  0  0  0  0  0
   21.5418   17.0699   25.3954 H   0  0  0  0  0  0  0  0  0  0  0  0
   19.6705   18.2173   25.5474 C   0  0  0  0  0  0  0  0  0  0  0  0
   20.1697   19.1065   25.9570 H   0  0  0  0  0  0  0  0  0  0  0  0
   18.7234   18.1169   26.0958 H   0  0  0  0  0  0  0  0  0  0  0  0
   19.3537   18.4381   24.0484 C   0  0  0  0  0  0  0  0  0  0  0  0
   18.8475   17.5498   23.6462 H   0  0  0  0  0  0  0  0  0  0  0  0
   18.6360   19.2653   23.9716 H   0  0  0  0  0  0  0  0  0  0  0  0
   20.6069   18.7578   23.1944 C   0  0  0  0  0  0  0  0  0  0  0  0
   21.3172   17.9236   23.2596 H   0  0  0  0  0  0  0  0  0  0  0  0
   21.1277   19.6308   23.6090 H   0  0  0  0  0  0  0  0  0  0  0  0
   20.2823   18.9922   21.6960 C   0  0  0  0  0  0  0  0  0  0  0  0
   21.2185   19.1837   21.1549 H   0  0  0  0  0  0  0  0  0  0  0  0
   19.8761   18.0607   21.2801 H   0  0  0  0  0  0  0  0  0  0  0  0
   19.2850   20.1395   21.4081 C   0  0  1  0  0  0  0  0  0  0  0  0
   18.3536   19.9303   21.9422 H   0  0  0  0  0  0  0  0  0  0  0  0
   19.8203   21.5037   21.8787 C   0  0  0  0  0  0  0  0  0  0  0  0
   20.7862   21.7333   21.4120 H   0  0  0  0  0  0  0  0  0  0  0  0
   19.9500   21.5259   22.9669 H   0  0  0  0  0  0  0  0  0  0  0  0
   19.1177   22.3051   21.6192 H   0  0  0  0  0  0  0  0  0  0  0  0
   18.9291   20.1942   19.9483 N   0  3  0  0  0  0  0  0  0  0  0  0
   18.5305   19.3086   19.6235 H   0  0  0  0  0  0  0  0  0  0  0  0
   18.2386   20.9261   19.7586 H   0  0  0  0  0  0  0  0  0  0  0  0
   19.7499   20.3922   19.3700 H   0  0  0  0  0  0  0  0  0  0  0  0
  1  2  1  0  0  0  0
  1  3  1  0  0  0  0
  1  4  1  0  0  0  0
  1  5  1  0  0  0  0
  5  6  1  0  0  0  0
  5  7  1  0  0  0  0
  5  8  1  0  0  0  0
  8  9  1  0  0  0  0
  8 10  1  0  0  0  0
  8 11  1  0  0  0  0
 11 12  1  0  0  0  0
 11 13  1  0  0  0  0
 11 14  1  0  0  0  0
 14 15  1  0  0  0  0
 14 16  1  0  0  0  0
 14 17  1  0  0  0  0
 17 18  1  0  0  0  0
 17 19  1  0  0  0  0
 19 20  1  0  0  0  0
 19 21  1  0  0  0  0
 19 22  1  0  0  0  0
 17 23  1  0  0  0  0
 23 24  1  0  0  0  0
 23 25  1  0  0  0  0
 23 26  1  0  0  0  0
M  END
> <VConfSearch Rank>
810

> <Conf_Id>
5

> <Delta U+W>
1.233

> <U+W>
-29.065

> <U>
25.023

> <W>
-54.088

> <W(PB)>
-56.383

> <W(SA)>
2.296

> <Valence>
4.083

> <Coulomb>
19.893

> <VdW>
1.047

> <VdW6>
-8.479

> <VdW12>
9.527

> <Bond>
0.256

> <Angle>
1.716

> <Pdih>
2.112

> <Idih>
0.000

> <Tether>
0.000

$$$$
VeraChem MOL file


 26 25  0  0  0  0  0  0  0  0999 V2000     
   19.8635   15.5112   23.4159 C   0  0  0  0  0  0  0  0  0  0  0  0
   19.8229   14.5996   24.0260 H   0  0  0  0  0  0  0  0  0  0  0  0
   18.9086   15.5921   22.8824 H   0  0  0  0  0  0  0  0  0  0  0  0
   20.6627   15.3829   22.6744 H   0  0  0  0  0  0  0  0  0  0  0  0
   20.1252   16.7465   24.3074 C   0  0  0  0  0  0  0  0  0  0  0  0
   21.0221   16.5586   24.9141 H   0  0  0  0  0  0  0  0  0  0  0  0
   19.2957   16.8737   25.0171 H   0  0  0  0  0  0  0  0  0  0  0  0
   20.3352   18.0542   23.5062 C   0  0  0  0  0  0  0  0  0  0  0  0
   20.6508   18.8339   24.2114 H   0  0  0  0  0  0  0  0  0  0  0  0
   21.1619   17.9195   22.7951 H   0  0  0  0  0  0  0  0  0  0  0  0
   19.0665   18.5270   22.7534 C   0  0  0  0  0  0  0  0  0  0  0  0
   18.2527   18.6877   23.4739 H   0  0  0  0  0  0  0  0  0  0  0  0
   18.7252   17.7346   22.0751 H   0  0  0  0  0  0  0  0  0  0  0  0
   19.2722   19.8151   21.9161 C   0  0  0  0  0  0  0  0  0  0  0  0
   20.0236   19.6393   21.1347 H   0  0  0  0  0  0  0  0  0  0  0  0
   18.3333   20.0135   21.3826 H   0  0  0  0  0  0  0  0  0  0  0  0
   19.6494   21.0565   22.7608 C   0  0  1  0  0  0  0  0  0  0  0  0
   19.3906   20.8509   23.8040 H   0  0  0  0  0  0  0  0  0  0  0  0
   21.1561   21.3624   22.6769 C   0  0  0  0  0  0  0  0  0  0  0  0
   21.4486   21.6277   21.6532 H   0  0  0  0  0  0  0  0  0  0  0  0
   21.7590   20.5014   22.9863 H   0  0  0  0  0  0  0  0  0  0  0  0
   21.4168   22.2024   23.3323 H   0  0  0  0  0  0  0  0  0  0  0  0
   18.8539   22.2699   22.3637 N   0  3  0  0  0  0  0  0  0  0  0  0
   17.8471   22.1072   22.4567 H   0  0  0  0  0  0  0  0  0  0  0  0
   19.0866   23.0776   22.9486 H   0  0  0  0  0  0  0  0  0  0  0  0
   19.0348   22.5348   21.3917 H   0  0  0  0  0  0  0  0  0  0  0  0
  1  2  1  0  0  0  0
  1  3  1  0  0  0  0
  1  4  1  0  0  0  0
  1  5  1  0  0  0  0
  5  6  1  0  0  0  0
  5  7  1  0  0  0  0
  5  8  1  0  0  0  0
  8  9  1  0  0  0  0
  8 10  1  0  0  0  0
  8 11  1  0  0  0  0
 11 12  1  0  0  0  0
 11 13  1  0  0  0  0
 11 14  1  0  0  0  0
 14 15  1  0  0  0  0
 14 16  1  0  0  0  0
 14 17  1  0  0  0  0
 17 18  1  0  0  0  0
 17 19  1  0  0  0  0
 19 20  1  0  0  0  0
 19 21  1  0  0  0  0
 19 22  1  0  0  0  0
 17 23  1  0  0  0  0
 23 24  1  0  0  0  0
 23 25  1  0  0  0  0
 23 26  1  0  0  0  0
M  END
> <VConfSearch Rank>
811

> <Conf_Id>
100

> <Delta U+W>
3.818

> <U+W>
-26.481

> <U>
27.496

> <W>
-53.977

> <W(PB)>
-56.267

> <W(SA)>
2.290

> <Valence>
6.472

> <Coulomb>
19.839

> <VdW>
1.185

> <VdW6>
-8.405

> <VdW12>
9.590

> <Bond>
0.248

> <Angle>
1.619

> <Pdih>
4.604

> <Idih>
0.000

> <Tether>
0.000

$$$$
VeraChem MOL file


 26 25  0  0  0  0  0  0  0  0999 V2000     
   22.9803   17.3533   22.0111 C   0  0  0  0  0  0  0  0  0  0  0  0
   23.3828   16.3418   21.8699 H   0  0  0  0  0  0  0  0  0  0  0  0
   22.8045   17.7876   21.0182 H   0  0  0  0  0  0  0  0  0  0  0  0
   23.7479   17.9540   22.5161 H   0  0  0  0  0  0  0  0  0  0  0  0
   21.6770   17.3108   22.8368 C   0  0  0  0  0  0  0  0  0  0  0  0
   21.8771   16.8402   23.8096 H   0  0  0  0  0  0  0  0  0  0  0  0
   20.9410   16.6764   22.3232 H   0  0  0  0  0  0  0  0  0  0  0  0
   21.0889   18.7231   23.0508 C   0  0  0  0  0  0  0  0  0  0  0  0
   21.8303   19.3511   23.5637 H   0  0  0  0  0  0  0  0  0  0  0  0
   20.9067   19.1882   22.0749 H   0  0  0  0  0  0  0  0  0  0  0  0
   19.7849   18.6816   23.8850 C   0  0  0  0  0  0  0  0  0  0  0  0
   20.0198   18.2313   24.8594 H   0  0  0  0  0  0  0  0  0  0  0  0
   19.0539   18.0123   23.4133 H   0  0  0  0  0  0  0  0  0  0  0  0
   19.1630   20.0842   24.1347 C   0  0  0  0  0  0  0  0  0  0  0  0
   18.7244   20.0919   25.1412 H   0  0  0  0  0  0  0  0  0  0  0  0
   19.9543   20.8449   24.1594 H   0  0  0  0  0  0  0  0  0  0  0  0
   18.0568   20.5252   23.1441 C   0  0  1  0  0  0  0  0  0  0  0  0
   17.7355   21.5265   23.4475 H   0  0  0  0  0  0  0  0  0  0  0  0
   18.5551   20.6211   21.6931 C   0  0  0  0  0  0  0  0  0  0  0  0
   18.7784   19.6309   21.2787 H   0  0  0  0  0  0  0  0  0  0  0  0
   19.4597   21.2386   21.6307 H   0  0  0  0  0  0  0  0  0  0  0  0
   17.7918   21.0846   21.0562 H   0  0  0  0  0  0  0  0  0  0  0  0
   16.8324   19.6556   23.2327 N   0  3  0  0  0  0  0  0  0  0  0  0
   16.4585   19.6291   24.1856 H   0  0  0  0  0  0  0  0  0  0  0  0
   16.0857   19.9979   22.6214 H   0  0  0  0  0  0  0  0  0  0  0  0
   17.0381   18.6928   22.9559 H   0  0  0  0  0  0  0  0  0  0  0  0
  1  2  1  0  0  0  0
  1  3  1  0  0  0  0
  1  4  1  0  0  0  0
  1  5  1  0  0  0  0
  5  6  1  0  0  0  0
  5  7  1  0  0  0  0
  5  8  1  0  0  0  0
  8  9  1  0  0  0  0
  8 10  1  0  0  0  0
  8 11  1  0  0  0  0
 11 12  1  0  0  0  0
 11 13  1  0  0  0  0
 11 14  1  0  0  0  0
 14 15  1  0  0  0  0
 14 16  1  0  0  0  0
 14 17  1  0  0  0  0
 17 18  1  0  0  0  0
 17 19  1  0  0  0  0
 19 20  1  0  0  0  0
 19 21  1  0  0  0  0
 19 22  1  0  0  0  0
 17 23  1  0  0  0  0
 23 24  1  0  0  0  0
 23 25  1  0  0  0  0
 23 26  1  0  0  0  0
M  END
> <VConfSearch Rank>
812

> <Conf_Id>
142

> <Delta U+W>
2.978

> <U+W>
-27.320

> <U>
26.848

> <W>
-54.168

> <W(PB)>
-56.427

> <W(SA)>
2.259

> <Valence>
5.823

> <Coulomb>
20.057

> <VdW>
0.968

> <VdW6>
-8.367

> <VdW12>
9.335

> <Bond>
0.267

> <Angle>
1.799

> <Pdih>
3.758

> <Idih>
0.000

> <Tether>
0.000

$$$$
VeraChem MOL file


 26 25  0  0  0  0  0  0  0  0999 V2000     
   19.8880   21.9967   20.9568 C   0  0  0  0  0  0  0  0  0  0  0  0
   19.2376   22.5693   21.6307 H   0  0  0  0  0  0  0  0  0  0  0  0
   20.4385   22.7132   20.3335 H   0  0  0  0  0  0  0  0  0  0  0  0
   19.2533   21.4013   20.2893 H   0  0  0  0  0  0  0  0  0  0  0  0
   20.8706   21.1086   21.7539 C   0  0  0  0  0  0  0  0  0  0  0  0
   21.5657   21.7600   22.3019 H   0  0  0  0  0  0  0  0  0  0  0  0
   21.4855   20.5193   21.0593 H   0  0  0  0  0  0  0  0  0  0  0  0
   20.1736   20.1674   22.7662 C   0  0  0  0  0  0  0  0  0  0  0  0
   20.9560   19.7057   23.3796 H   0  0  0  0  0  0  0  0  0  0  0  0
   19.5438   20.7603   23.4437 H   0  0  0  0  0  0  0  0  0  0  0  0
   19.3269   19.0573   22.0938 C   0  0  0  0  0  0  0  0  0  0  0  0
   19.9735   18.4281   21.4679 H   0  0  0  0  0  0  0  0  0  0  0  0
   18.6084   19.5201   21.4058 H   0  0  0  0  0  0  0  0  0  0  0  0
   18.5141   18.1720   23.0808 C   0  0  0  0  0  0  0  0  0  0  0  0
   17.7867   18.7979   23.6140 H   0  0  0  0  0  0  0  0  0  0  0  0
   17.9131   17.4744   22.4828 H   0  0  0  0  0  0  0  0  0  0  0  0
   19.3085   17.3324   24.1140 C   0  0  1  0  0  0  0  0  0  0  0  0
   18.6029   16.6150   24.5445 H   0  0  0  0  0  0  0  0  0  0  0  0
   20.4455   16.5228   23.4665 C   0  0  0  0  0  0  0  0  0  0  0  0
   21.2435   17.1741   23.0905 H   0  0  0  0  0  0  0  0  0  0  0  0
   20.0673   15.9231   22.6293 H   0  0  0  0  0  0  0  0  0  0  0  0
   20.8899   15.8341   24.1953 H   0  0  0  0  0  0  0  0  0  0  0  0
   19.8058   18.1428   25.2795 N   0  3  0  0  0  0  0  0  0  0  0  0
   19.0378   18.6248   25.7552 H   0  0  0  0  0  0  0  0  0  0  0  0
   20.2708   17.5511   25.9740 H   0  0  0  0  0  0  0  0  0  0  0  0
   20.4771   18.8529   24.9809 H   0  0  0  0  0  0  0  0  0  0  0  0
  1  2  1  0  0  0  0
  1  3  1  0  0  0  0
  1  4  1  0  0  0  0
  1  5  1  0  0  0  0
  5  6  1  0  0  0  0
  5  7  1  0  0  0  0
  5  8  1  0  0  0  0
  8  9  1  0  0  0  0
  8 10  1  0  0  0  0
  8 11  1  0  0  0  0
 11 12  1  0  0  0  0
 11 13  1  0  0  0  0
 11 14  1  0  0  0  0
 14 15  1  0  0  0  0
 14 16  1  0  0  0  0
 14 17  1  0  0  0  0
 17 18  1  0  0  0  0
 17 19  1  0  0  0  0
 19 20  1  0  0  0  0
 19 21  1  0  0  0  0
 19 22  1  0  0  0  0
 17 23  1  0  0  0  0
 23 24  1  0  0  0  0
 23 25  1  0  0  0  0
 23 26  1  0  0  0  0
M  END
> <VConfSearch Rank>
813

> <Conf_Id>
119

> <Delta U+W>
3.538

> <U+W>
-26.761

> <U>
27.482

> <W>
-54.243

> <W(PB)>
-56.494

> <W(SA)>
2.251

> <Valence>
5.284

> <Coulomb>
21.247

> <VdW>
0.951

> <VdW6>
-9.416

> <VdW12>
10.367

> <Bond>
0.323

> <Angle>
2.522

> <Pdih>
2.439

> <Idih>
0.000

> <Tether>
0.000

$$$$
VeraChem MOL file


 26 25  0  0  0  0  0  0  0  0999 V2000     
   16.9202   20.9879   22.4633 C   0  0  0  0  0  0  0  0  0  0  0  0
   17.1525   21.9283   22.9797 H   0  0  0  0  0  0  0  0  0  0  0  0
   17.4247   20.9961   21.4892 H   0  0  0  0  0  0  0  0  0  0  0  0
   15.8391   20.9669   22.2744 H   0  0  0  0  0  0  0  0  0  0  0  0
   17.3445   19.7680   23.3123 C   0  0  0  0  0  0  0  0  0  0  0  0
   17.1303   18.8418   22.7610 H   0  0  0  0  0  0  0  0  0  0  0  0
   16.7250   19.7356   24.2195 H   0  0  0  0  0  0  0  0  0  0  0  0
   18.8347   19.7954   23.7298 C   0  0  0  0  0  0  0  0  0  0  0  0
   19.0355   20.7108   24.3034 H   0  0  0  0  0  0  0  0  0  0  0  0
   19.0135   18.9611   24.4181 H   0  0  0  0  0  0  0  0  0  0  0  0
   19.8119   19.7120   22.5288 C   0  0  0  0  0  0  0  0  0  0  0  0
   19.6923   20.6186   21.9212 H   0  0  0  0  0  0  0  0  0  0  0  0
   19.5393   18.8727   21.8763 H   0  0  0  0  0  0  0  0  0  0  0  0
   21.3040   19.6146   22.9536 C   0  0  0  0  0  0  0  0  0  0  0  0
   21.9046   20.1914   22.2380 H   0  0  0  0  0  0  0  0  0  0  0  0
   21.4505   20.1131   23.9208 H   0  0  0  0  0  0  0  0  0  0  0  0
   21.9010   18.1865   23.0149 C   0  0  1  0  0  0  0  0  0  0  0  0
   22.9428   18.2872   23.3346 H   0  0  0  0  0  0  0  0  0  0  0  0
   21.1901   17.2842   24.0365 C   0  0  0  0  0  0  0  0  0  0  0  0
   20.1662   17.0495   23.7218 H   0  0  0  0  0  0  0  0  0  0  0  0
   21.1514   17.7653   25.0215 H   0  0  0  0  0  0  0  0  0  0  0  0
   21.7297   16.3362   24.1511 H   0  0  0  0  0  0  0  0  0  0  0  0
   21.9473   17.5298   21.6621 N   0  3  0  0  0  0  0  0  0  0  0  0
   22.4669   18.0974   20.9866 H   0  0  0  0  0  0  0  0  0  0  0  0
   22.4035   16.6143   21.7064 H   0  0  0  0  0  0  0  0  0  0  0  0
   21.0074   17.3863   21.2851 H   0  0  0  0  0  0  0  0  0  0  0  0
  1  2  1  0  0  0  0
  1  3  1  0  0  0  0
  1  4  1  0  0  0  0
  1  5  1  0  0  0  0
  5  6  1  0  0  0  0
  5  7  1  0  0  0  0
  5  8  1  0  0  0  0
  8  9  1  0  0  0  0
  8 10  1  0  0  0  0
  8 11  1  0  0  0  0
 11 12  1  0  0  0  0
 11 13  1  0  0  0  0
 11 14  1  0  0  0  0
 14 15  1  0  0  0  0
 14 16  1  0  0  0  0
 14 17  1  0  0  0  0
 17 18  1  0  0  0  0
 17 19  1  0  0  0  0
 19 20  1  0  0  0  0
 19 21  1  0  0  0  0
 19 22  1  0  0  0  0
 17 23  1  0  0  0  0
 23 24  1  0  0  0  0
 23 25  1  0  0  0  0
 23 26  1  0  0  0  0
M  END
> <VConfSearch Rank>
814

> <Conf_Id>
127

> <Delta U+W>
3.544

> <U+W>
-26.754

> <U>
27.509

> <W>
-54.263

> <W(PB)>
-56.496

> <W(SA)>
2.232

> <Valence>
6.375

> <Coulomb>
20.014

> <VdW>
1.120

> <VdW6>
-8.976

> <VdW12>
10.096

> <Bond>
0.304

> <Angle>
1.986

> <Pdih>
4.086

> <Idih>
0.000

> <Tether>
0.000

$$$$
VeraChem MOL file


 26 25  0  0  0  0  0  0  0  0999 V2000     
   18.1954   16.4519   22.5564 C   0  0  0  0  0  0  0  0  0  0  0  0
   17.2465   16.1518   22.0934 H   0  0  0  0  0  0  0  0  0  0  0  0
   18.6330   15.5610   23.0253 H   0  0  0  0  0  0  0  0  0  0  0  0
   17.9648   17.1710   23.3499 H   0  0  0  0  0  0  0  0  0  0  0  0
   19.1524   17.0422   21.4945 C   0  0  0  0  0  0  0  0  0  0  0  0
   18.6761   17.8872   20.9781 H   0  0  0  0  0  0  0  0  0  0  0  0
   19.3194   16.2745   20.7259 H   0  0  0  0  0  0  0  0  0  0  0  0
   20.5262   17.4682   22.0736 C   0  0  0  0  0  0  0  0  0  0  0  0
   20.7782   16.8519   22.9476 H   0  0  0  0  0  0  0  0  0  0  0  0
   21.2970   17.2446   21.3230 H   0  0  0  0  0  0  0  0  0  0  0  0
   20.6457   18.9727   22.4298 C   0  0  0  0  0  0  0  0  0  0  0  0
   20.4955   19.5685   21.5198 H   0  0  0  0  0  0  0  0  0  0  0  0
   21.6784   19.1576   22.7517 H   0  0  0  0  0  0  0  0  0  0  0  0
   19.6623   19.4435   23.5343 C   0  0  0  0  0  0  0  0  0  0  0  0
   18.6340   19.3466   23.1658 H   0  0  0  0  0  0  0  0  0  0  0  0
   19.7432   18.7783   24.4040 H   0  0  0  0  0  0  0  0  0  0  0  0
   19.8589   20.9049   24.0028 C   0  0  1  0  0  0  0  0  0  0  0  0
   19.0592   21.1262   24.7165 H   0  0  0  0  0  0  0  0  0  0  0  0
   21.1982   21.1062   24.7336 C   0  0  0  0  0  0  0  0  0  0  0  0
   21.3129   20.3776   25.5457 H   0  0  0  0  0  0  0  0  0  0  0  0
   21.2448   22.1081   25.1777 H   0  0  0  0  0  0  0  0  0  0  0  0
   22.0528   21.0023   24.0549 H   0  0  0  0  0  0  0  0  0  0  0  0
   19.7020   21.8944   22.8809 N   0  3  0  0  0  0  0  0  0  0  0  0
   18.7927   21.7988   22.4202 H   0  0  0  0  0  0  0  0  0  0  0  0
   19.7739   22.8581   23.2191 H   0  0  0  0  0  0  0  0  0  0  0  0
   20.4242   21.7646   22.1682 H   0  0  0  0  0  0  0  0  0  0  0  0
  1  2  1  0  0  0  0
  1  3  1  0  0  0  0
  1  4  1  0  0  0  0
  1  5  1  0  0  0  0
  5  6  1  0  0  0  0
  5  7  1  0  0  0  0
  5  8  1  0  0  0  0
  8  9  1  0  0  0  0
  8 10  1  0  0  0  0
  8 11  1  0  0  0  0
 11 12  1  0  0  0  0
 11 13  1  0  0  0  0
 11 14  1  0  0  0  0
 14 15  1  0  0  0  0
 14 16  1  0  0  0  0
 14 17  1  0  0  0  0
 17 18  1  0  0  0  0
 17 19  1  0  0  0  0
 19 20  1  0  0  0  0
 19 21  1  0  0  0  0
 19 22  1  0  0  0  0
 17 23  1  0  0  0  0
 23 24  1  0  0  0  0
 23 25  1  0  0  0  0
 23 26  1  0  0  0  0
M  END
> <VConfSearch Rank>
815

> <Conf_Id>
131

> <Delta U+W>
3.589

> <U+W>
-26.710

> <U>
27.573

> <W>
-54.283

> <W(PB)>
-56.537

> <W(SA)>
2.254

> <Valence>
6.363

> <Coulomb>
20.026

> <VdW>
1.184

> <VdW6>
-8.939

> <VdW12>
10.123

> <Bond>
0.298

> <Angle>
2.018

> <Pdih>
4.047

> <Idih>
0.000

> <Tether>
0.000

$$$$
VeraChem MOL file


 26 25  0  0  0  0  0  0  0  0999 V2000     
   18.6085   21.6042   23.5149 C   0  0  0  0  0  0  0  0  0  0  0  0
   17.6959   21.0392   23.7447 H   0  0  0  0  0  0  0  0  0  0  0  0
   19.4493   21.1456   24.0496 H   0  0  0  0  0  0  0  0  0  0  0  0
   18.4837   22.6199   23.9119 H   0  0  0  0  0  0  0  0  0  0  0  0
   18.8690   21.6484   21.9935 C   0  0  0  0  0  0  0  0  0  0  0  0
   19.8248   22.1562   21.8025 H   0  0  0  0  0  0  0  0  0  0  0  0
   18.0952   22.2699   21.5216 H   0  0  0  0  0  0  0  0  0  0  0  0
   18.8712   20.2600   21.3040 C   0  0  0  0  0  0  0  0  0  0  0  0
   17.8810   19.7928   21.3943 H   0  0  0  0  0  0  0  0  0  0  0  0
   19.0220   20.4264   20.2284 H   0  0  0  0  0  0  0  0  0  0  0  0
   19.9746   19.2896   21.8014 C   0  0  0  0  0  0  0  0  0  0  0  0
   20.8476   19.8668   22.1319 H   0  0  0  0  0  0  0  0  0  0  0  0
   20.3137   18.6841   20.9494 H   0  0  0  0  0  0  0  0  0  0  0  0
   19.4892   18.3237   22.9147 C   0  0  0  0  0  0  0  0  0  0  0  0
   19.1599   18.8834   23.7971 H   0  0  0  0  0  0  0  0  0  0  0  0
   18.6058   17.7868   22.5450 H   0  0  0  0  0  0  0  0  0  0  0  0
   20.5502   17.2817   23.3361 C   0  0  1  0  0  0  0  0  0  0  0  0
   20.9059   16.7701   22.4364 H   0  0  0  0  0  0  0  0  0  0  0  0
   21.7560   17.9345   24.0360 C   0  0  0  0  0  0  0  0  0  0  0  0
   21.4404   18.5133   24.9129 H   0  0  0  0  0  0  0  0  0  0  0  0
   22.2969   18.6048   23.3584 H   0  0  0  0  0  0  0  0  0  0  0  0
   22.4679   17.1703   24.3714 H   0  0  0  0  0  0  0  0  0  0  0  0
   19.9500   16.2214   24.2172 N   0  3  0  0  0  0  0  0  0  0  0  0
   19.5917   16.6181   25.0900 H   0  0  0  0  0  0  0  0  0  0  0  0
   19.1720   15.7424   23.7547 H   0  0  0  0  0  0  0  0  0  0  0  0
   20.6405   15.5078   24.4671 H   0  0  0  0  0  0  0  0  0  0  0  0
  1  2  1  0  0  0  0
  1  3  1  0  0  0  0
  1  4  1  0  0  0  0
  1  5  1  0  0  0  0
  5  6  1  0  0  0  0
  5  7  1  0  0  0  0
  5  8  1  0  0  0  0
  8  9  1  0  0  0  0
  8 10  1  0  0  0  0
  8 11  1  0  0  0  0
 11 12  1  0  0  0  0
 11 13  1  0  0  0  0
 11 14  1  0  0  0  0
 14 15  1  0  0  0  0
 14 16  1  0  0  0  0
 14 17  1  0  0  0  0
 17 18  1  0  0  0  0
 17 19  1  0  0  0  0
 19 20  1  0  0  0  0
 19 21  1  0  0  0  0
 19 22  1  0  0  0  0
 17 23  1  0  0  0  0
 23 24  1  0  0  0  0
 23 25  1  0  0  0  0
 23 26  1  0  0  0  0
M  END
> <VConfSearch Rank>
816

> <Conf_Id>
80

> <Delta U+W>
3.351

> <U+W>
-26.948

> <U>
27.261

> <W>
-54.209

> <W(PB)>
-56.471

> <W(SA)>
2.263

> <Valence>
6.230

> <Coulomb>
19.945

> <VdW>
1.087

> <VdW6>
-8.618

> <VdW12>
9.704

> <Bond>
0.277

> <Angle>
1.928

> <Pdih>
4.025

> <Idih>
0.000

> <Tether>
0.000

$$$$
VeraChem MOL file


 26 25  0  0  0  0  0  0  0  0999 V2000     
   19.9576   16.9227   25.4194 C   0  0  0  0  0  0  0  0  0  0  0  0
   20.4538   15.9575   25.5837 H   0  0  0  0  0  0  0  0  0  0  0  0
   19.6111   17.2928   26.3930 H   0  0  0  0  0  0  0  0  0  0  0  0
   19.0798   16.7385   24.7875 H   0  0  0  0  0  0  0  0  0  0  0  0
   20.9298   17.9253   24.7577 C   0  0  0  0  0  0  0  0  0  0  0  0
   21.2404   17.5458   23.7757 H   0  0  0  0  0  0  0  0  0  0  0  0
   21.8478   17.9748   25.3598 H   0  0  0  0  0  0  0  0  0  0  0  0
   20.3523   19.3588   24.6274 C   0  0  0  0  0  0  0  0  0  0  0  0
   20.2028   19.7639   25.6377 H   0  0  0  0  0  0  0  0  0  0  0  0
   21.1120   19.9999   24.1661 H   0  0  0  0  0  0  0  0  0  0  0  0
   19.0080   19.4770   23.8548 C   0  0  0  0  0  0  0  0  0  0  0  0
   18.6575   20.5176   23.8932 H   0  0  0  0  0  0  0  0  0  0  0  0
   18.2460   18.9018   24.3969 H   0  0  0  0  0  0  0  0  0  0  0  0
   19.0311   18.9970   22.3763 C   0  0  0  0  0  0  0  0  0  0  0  0
   19.7355   18.1687   22.2411 H   0  0  0  0  0  0  0  0  0  0  0  0
   18.0415   18.5771   22.1533 H   0  0  0  0  0  0  0  0  0  0  0  0
   19.3046   20.1028   21.3282 C   0  0  1  0  0  0  0  0  0  0  0  0
   18.5447   20.8812   21.4474 H   0  0  0  0  0  0  0  0  0  0  0  0
   20.6875   20.7552   21.4898 C   0  0  0  0  0  0  0  0  0  0  0  0
   20.7343   21.3491   22.4093 H   0  0  0  0  0  0  0  0  0  0  0  0
   20.8933   21.4390   20.6572 H   0  0  0  0  0  0  0  0  0  0  0  0
   21.4837   20.0009   21.5170 H   0  0  0  0  0  0  0  0  0  0  0  0
   19.1439   19.5689   19.9316 N   0  3  0  0  0  0  0  0  0  0  0  0
   18.2118   19.1714   19.7843 H   0  0  0  0  0  0  0  0  0  0  0  0
   19.2742   20.3054   19.2324 H   0  0  0  0  0  0  0  0  0  0  0  0
   19.8271   18.8337   19.7313 H   0  0  0  0  0  0  0  0  0  0  0  0
  1  2  1  0  0  0  0
  1  3  1  0  0  0  0
  1  4  1  0  0  0  0
  1  5  1  0  0  0  0
  5  6  1  0  0  0  0
  5  7  1  0  0  0  0
  5  8  1  0  0  0  0
  8  9  1  0  0  0  0
  8 10  1  0  0  0  0
  8 11  1  0  0  0  0
 11 12  1  0  0  0  0
 11 13  1  0  0  0  0
 11 14  1  0  0  0  0
 14 15  1  0  0  0  0
 14 16  1  0  0  0  0
 14 17  1  0  0  0  0
 17 18  1  0  0  0  0
 17 19  1  0  0  0  0
 19 20  1  0  0  0  0
 19 21  1  0  0  0  0
 19 22  1  0  0  0  0
 17 23  1  0  0  0  0
 23 24  1  0  0  0  0
 23 25  1  0  0  0  0
 23 26  1  0  0  0  0
M  END
> <VConfSearch Rank>
817

> <Conf_Id>
136

> <Delta U+W>
4.272

> <U+W>
-26.026

> <U>
28.262

> <W>
-54.288

> <W(PB)>
-56.488

> <W(SA)>
2.200

> <Valence>
7.096

> <Coulomb>
19.990

> <VdW>
1.175

> <VdW6>
-9.404

> <VdW12>
10.580

> <Bond>
0.360

> <Angle>
2.785

> <Pdih>
3.951

> <Idih>
0.000

> <Tether>
0.000

$$$$
VeraChem MOL file


 26 25  0  0  0  0  0  0  0  0999 V2000     
   22.7361   18.9084   22.6581 C   0  0  0  0  0  0  0  0  0  0  0  0
   21.9995   18.5110   21.9490 H   0  0  0  0  0  0  0  0  0  0  0  0
   23.7295   18.7635   22.2141 H   0  0  0  0  0  0  0  0  0  0  0  0
   22.6909   18.3147   23.5802 H   0  0  0  0  0  0  0  0  0  0  0  0
   22.4873   20.4050   22.9461 C   0  0  0  0  0  0  0  0  0  0  0  0
   22.4832   20.9624   21.9990 H   0  0  0  0  0  0  0  0  0  0  0  0
   23.3344   20.7975   23.5260 H   0  0  0  0  0  0  0  0  0  0  0  0
   21.1800   20.6972   23.7263 C   0  0  0  0  0  0  0  0  0  0  0  0
   21.2185   20.2264   24.7182 H   0  0  0  0  0  0  0  0  0  0  0  0
   21.1426   21.7793   23.9139 H   0  0  0  0  0  0  0  0  0  0  0  0
   19.8794   20.2895   22.9861 C   0  0  0  0  0  0  0  0  0  0  0  0
   20.0370   20.3314   21.8994 H   0  0  0  0  0  0  0  0  0  0  0  0
   19.1092   21.0388   23.2123 H   0  0  0  0  0  0  0  0  0  0  0  0
   19.3494   18.8925   23.4018 C   0  0  0  0  0  0  0  0  0  0  0  0
   20.1419   18.1453   23.2827 H   0  0  0  0  0  0  0  0  0  0  0  0
   19.0917   18.8996   24.4692 H   0  0  0  0  0  0  0  0  0  0  0  0
   18.1228   18.4459   22.5770 C   0  0  1  0  0  0  0  0  0  0  0  0
   18.3954   18.4704   21.5174 H   0  0  0  0  0  0  0  0  0  0  0  0
   17.7301   17.0049   22.9405 C   0  0  0  0  0  0  0  0  0  0  0  0
   17.4456   16.9254   23.9972 H   0  0  0  0  0  0  0  0  0  0  0  0
   18.5641   16.3157   22.7583 H   0  0  0  0  0  0  0  0  0  0  0  0
   16.8818   16.6683   22.3318 H   0  0  0  0  0  0  0  0  0  0  0  0
   16.9478   19.3707   22.7433 N   0  3  0  0  0  0  0  0  0  0  0  0
   16.6337   19.4040   23.7166 H   0  0  0  0  0  0  0  0  0  0  0  0
   17.1814   20.3265   22.4616 H   0  0  0  0  0  0  0  0  0  0  0  0
   16.1515   19.0701   22.1743 H   0  0  0  0  0  0  0  0  0  0  0  0
  1  2  1  0  0  0  0
  1  3  1  0  0  0  0
  1  4  1  0  0  0  0
  1  5  1  0  0  0  0
  5  6  1  0  0  0  0
  5  7  1  0  0  0  0
  5  8  1  0  0  0  0
  8  9  1  0  0  0  0
  8 10  1  0  0  0  0
  8 11  1  0  0  0  0
 11 12  1  0  0  0  0
 11 13  1  0  0  0  0
 11 14  1  0  0  0  0
 14 15  1  0  0  0  0
 14 16  1  0  0  0  0
 14 17  1  0  0  0  0
 17 18  1  0  0  0  0
 17 19  1  0  0  0  0
 19 20  1  0  0  0  0
 19 21  1  0  0  0  0
 19 22  1  0  0  0  0
 17 23  1  0  0  0  0
 23 24  1  0  0  0  0
 23 25  1  0  0  0  0
 23 26  1  0  0  0  0
M  END
> <VConfSearch Rank>
818

> <Conf_Id>
124

> <Delta U+W>
3.001

> <U+W>
-27.298

> <U>
26.787

> <W>
-54.085

> <W(PB)>
-56.347

> <W(SA)>
2.262

> <Valence>
5.742

> <Coulomb>
20.023

> <VdW>
1.022

> <VdW6>
-8.392

> <VdW12>
9.414

> <Bond>
0.261

> <Angle>
1.576

> <Pdih>
3.904

> <Idih>
0.000

> <Tether>
0.000

$$$$
VeraChem MOL file


 26 25  0  0  0  0  0  0  0  0999 V2000     
   22.0359   20.6772   21.2069 C   0  0  0  0  0  0  0  0  0  0  0  0
   21.8563   21.7538   21.0903 H   0  0  0  0  0  0  0  0  0  0  0  0
   22.9251   20.4225   20.6158 H   0  0  0  0  0  0  0  0  0  0  0  0
   21.1843   20.1442   20.7703 H   0  0  0  0  0  0  0  0  0  0  0  0
   22.2527   20.3119   22.6939 C   0  0  0  0  0  0  0  0  0  0  0  0
   23.1370   20.8586   23.0504 H   0  0  0  0  0  0  0  0  0  0  0  0
   22.4970   19.2452   22.7937 H   0  0  0  0  0  0  0  0  0  0  0  0
   21.0491   20.6769   23.6009 C   0  0  0  0  0  0  0  0  0  0  0  0
   21.4420   20.9967   24.5760 H   0  0  0  0  0  0  0  0  0  0  0  0
   20.5185   21.5496   23.1960 H   0  0  0  0  0  0  0  0  0  0  0  0
   20.0522   19.5175   23.8586 C   0  0  0  0  0  0  0  0  0  0  0  0
   19.2996   19.8726   24.5745 H   0  0  0  0  0  0  0  0  0  0  0  0
   20.5841   18.6946   24.3544 H   0  0  0  0  0  0  0  0  0  0  0  0
   19.3453   18.9921   22.5811 C   0  0  0  0  0  0  0  0  0  0  0  0
   18.9435   19.8412   22.0130 H   0  0  0  0  0  0  0  0  0  0  0  0
   20.0839   18.5065   21.9316 H   0  0  0  0  0  0  0  0  0  0  0  0
   18.1982   17.9869   22.8400 C   0  0  1  0  0  0  0  0  0  0  0  0
   17.7942   17.6969   21.8651 H   0  0  0  0  0  0  0  0  0  0  0  0
   18.6969   16.7086   23.5364 C   0  0  0  0  0  0  0  0  0  0  0  0
   19.0352   16.9106   24.5598 H   0  0  0  0  0  0  0  0  0  0  0  0
   19.5305   16.2617   22.9805 H   0  0  0  0  0  0  0  0  0  0  0  0
   17.8947   15.9625   23.5896 H   0  0  0  0  0  0  0  0  0  0  0  0
   17.0535   18.6021   23.5974 N   0  3  0  0  0  0  0  0  0  0  0  0
   16.2776   17.9425   23.7035 H   0  0  0  0  0  0  0  0  0  0  0  0
   17.3404   18.8912   24.5356 H   0  0  0  0  0  0  0  0  0  0  0  0
   16.6876   19.4297   23.1181 H   0  0  0  0  0  0  0  0  0  0  0  0
  1  2  1  0  0  0  0
  1  3  1  0  0  0  0
  1  4  1  0  0  0  0
  1  5  1  0  0  0  0
  5  6  1  0  0  0  0
  5  7  1  0  0  0  0
  5  8  1  0  0  0  0
  8  9  1  0  0  0  0
  8 10  1  0  0  0  0
  8 11  1  0  0  0  0
 11 12  1  0  0  0  0
 11 13  1  0  0  0  0
 11 14  1  0  0  0  0
 14 15  1  0  0  0  0
 14 16  1  0  0  0  0
 14 17  1  0  0  0  0
 17 18  1  0  0  0  0
 17 19  1  0  0  0  0
 19 20  1  0  0  0  0
 19 21  1  0  0  0  0
 19 22  1  0  0  0  0
 17 23  1  0  0  0  0
 23 24  1  0  0  0  0
 23 25  1  0  0  0  0
 23 26  1  0  0  0  0
M  END
> <VConfSearch Rank>
819

> <Conf_Id>
105

> <Delta U+W>
3.442

> <U+W>
-26.857

> <U>
27.313

> <W>
-54.169

> <W(PB)>
-56.414

> <W(SA)>
2.245

> <Valence>
6.229

> <Coulomb>
19.943

> <VdW>
1.140

> <VdW6>
-9.001

> <VdW12>
10.140

> <Bond>
0.294

> <Angle>
1.969

> <Pdih>
3.967

> <Idih>
0.000

> <Tether>
0.000

$$$$
VeraChem MOL file


 26 25  0  0  0  0  0  0  0  0999 V2000     
   19.1620   17.0943   25.2234 C   0  0  0  0  0  0  0  0  0  0  0  0
   19.9360   16.3485   25.4464 H   0  0  0  0  0  0  0  0  0  0  0  0
   18.2675   16.8280   25.8012 H   0  0  0  0  0  0  0  0  0  0  0  0
   18.9074   17.0088   24.1615 H   0  0  0  0  0  0  0  0  0  0  0  0
   19.6422   18.5164   25.5960 C   0  0  0  0  0  0  0  0  0  0  0  0
   19.8436   18.5322   26.6763 H   0  0  0  0  0  0  0  0  0  0  0  0
   18.8389   19.2472   25.4280 H   0  0  0  0  0  0  0  0  0  0  0  0
   20.9300   18.9494   24.8488 C   0  0  0  0  0  0  0  0  0  0  0  0
   21.5252   19.5742   25.5292 H   0  0  0  0  0  0  0  0  0  0  0  0
   21.5555   18.0730   24.6299 H   0  0  0  0  0  0  0  0  0  0  0  0
   20.6880   19.7701   23.5557 C   0  0  0  0  0  0  0  0  0  0  0  0
   21.6643   20.0826   23.1597 H   0  0  0  0  0  0  0  0  0  0  0  0
   20.1503   20.6926   23.8129 H   0  0  0  0  0  0  0  0  0  0  0  0
   19.9197   19.0045   22.4504 C   0  0  0  0  0  0  0  0  0  0  0  0
   20.3861   18.0206   22.3081 H   0  0  0  0  0  0  0  0  0  0  0  0
   18.8854   18.8268   22.7701 H   0  0  0  0  0  0  0  0  0  0  0  0
   19.9103   19.7520   21.0996 C   0  0  1  0  0  0  0  0  0  0  0  0
   20.9474   19.9371   20.8031 H   0  0  0  0  0  0  0  0  0  0  0  0
   19.2454   18.8886   20.0156 C   0  0  0  0  0  0  0  0  0  0  0  0
   18.1983   18.6754   20.2645 H   0  0  0  0  0  0  0  0  0  0  0  0
   19.7711   17.9323   19.9021 H   0  0  0  0  0  0  0  0  0  0  0  0
   19.2690   19.3983   19.0445 H   0  0  0  0  0  0  0  0  0  0  0  0
   19.2398   21.0956   21.1905 N   0  3  0  0  0  0  0  0  0  0  0  0
   19.6995   21.6968   21.8796 H   0  0  0  0  0  0  0  0  0  0  0  0
   19.2625   21.5868   20.2923 H   0  0  0  0  0  0  0  0  0  0  0  0
   18.2583   21.0053   21.4657 H   0  0  0  0  0  0  0  0  0  0  0  0
  1  2  1  0  0  0  0
  1  3  1  0  0  0  0
  1  4  1  0  0  0  0
  1  5  1  0  0  0  0
  5  6  1  0  0  0  0
  5  7  1  0  0  0  0
  5  8  1  0  0  0  0
  8  9  1  0  0  0  0
  8 10  1  0  0  0  0
  8 11  1  0  0  0  0
 11 12  1  0  0  0  0
 11 13  1  0  0  0  0
 11 14  1  0  0  0  0
 14 15  1  0  0  0  0
 14 16  1  0  0  0  0
 14 17  1  0  0  0  0
 17 18  1  0  0  0  0
 17 19  1  0  0  0  0
 19 20  1  0  0  0  0
 19 21  1  0  0  0  0
 19 22  1  0  0  0  0
 17 23  1  0  0  0  0
 23 24  1  0  0  0  0
 23 25  1  0  0  0  0
 23 26  1  0  0  0  0
M  END
> <VConfSearch Rank>
820

> <Conf_Id>
107

> <Delta U+W>
2.995

> <U+W>
-27.304

> <U>
26.796

> <W>
-54.100

> <W(PB)>
-56.404

> <W(SA)>
2.304

> <Valence>
5.706

> <Coulomb>
20.107

> <VdW>
0.982

> <VdW6>
-8.396

> <VdW12>
9.378

> <Bond>
0.254

> <Angle>
1.644

> <Pdih>
3.808

> <Idih>
0.000

> <Tether>
0.000

$$$$
VeraChem MOL file


 26 25  0  0  0  0  0  0  0  0999 V2000     
   16.3673   21.2544   21.9500 C   0  0  0  0  0  0  0  0  0  0  0  0
   16.8578   22.1713   21.5980 H   0  0  0  0  0  0  0  0  0  0  0  0
   15.4652   21.1008   21.3436 H   0  0  0  0  0  0  0  0  0  0  0  0
   16.0517   21.4129   22.9894 H   0  0  0  0  0  0  0  0  0  0  0  0
   17.3135   20.0404   21.8365 C   0  0  0  0  0  0  0  0  0  0  0  0
   17.5844   19.8867   20.7825 H   0  0  0  0  0  0  0  0  0  0  0  0
   16.7844   19.1342   22.1631 H   0  0  0  0  0  0  0  0  0  0  0  0
   18.5926   20.2310   22.6814 C   0  0  0  0  0  0  0  0  0  0  0  0
   19.1157   21.1399   22.3530 H   0  0  0  0  0  0  0  0  0  0  0  0
   18.3166   20.3860   23.7337 H   0  0  0  0  0  0  0  0  0  0  0  0
   19.5432   19.0176   22.5697 C   0  0  0  0  0  0  0  0  0  0  0  0
   19.8212   18.8660   21.5174 H   0  0  0  0  0  0  0  0  0  0  0  0
   19.0110   18.1131   22.8932 H   0  0  0  0  0  0  0  0  0  0  0  0
   20.8233   19.2111   23.4186 C   0  0  0  0  0  0  0  0  0  0  0  0
   21.3106   20.1480   23.1172 H   0  0  0  0  0  0  0  0  0  0  0  0
   20.5536   19.3247   24.4771 H   0  0  0  0  0  0  0  0  0  0  0  0
   21.8321   18.0527   23.2611 C   0  0  1  0  0  0  0  0  0  0  0  0
   22.0663   17.9443   22.1975 H   0  0  0  0  0  0  0  0  0  0  0  0
   23.1348   18.3727   24.0116 C   0  0  0  0  0  0  0  0  0  0  0  0
   22.9547   18.4898   25.0876 H   0  0  0  0  0  0  0  0  0  0  0  0
   23.5825   19.3017   23.6371 H   0  0  0  0  0  0  0  0  0  0  0  0
   23.8698   17.5703   23.8734 H   0  0  0  0  0  0  0  0  0  0  0  0
   21.2710   16.7335   23.7176 N   0  3  0  0  0  0  0  0  0  0  0  0
   21.0229   16.7566   24.7102 H   0  0  0  0  0  0  0  0  0  0  0  0
   20.4274   16.4845   23.1944 H   0  0  0  0  0  0  0  0  0  0  0  0
   21.9462   15.9748   23.5880 H   0  0  0  0  0  0  0  0  0  0  0  0
  1  2  1  0  0  0  0
  1  3  1  0  0  0  0
  1  4  1  0  0  0  0
  1  5  1  0  0  0  0
  5  6  1  0  0  0  0
  5  7  1  0  0  0  0
  5  8  1  0  0  0  0
  8  9  1  0  0  0  0
  8 10  1  0  0  0  0
  8 11  1  0  0  0  0
 11 12  1  0  0  0  0
 11 13  1  0  0  0  0
 11 14  1  0  0  0  0
 14 15  1  0  0  0  0
 14 16  1  0  0  0  0
 14 17  1  0  0  0  0
 17 18  1  0  0  0  0
 17 19  1  0  0  0  0
 19 20  1  0  0  0  0
 19 21  1  0  0  0  0
 19 22  1  0  0  0  0
 17 23  1  0  0  0  0
 23 24  1  0  0  0  0
 23 25  1  0  0  0  0
 23 26  1  0  0  0  0
M  END
> <VConfSearch Rank>
821

> <Conf_Id>
122

> <Delta U+W>
0.000

> <U+W>
-30.299

> <U>
23.517

> <W>
-53.816

> <W(PB)>
-56.162

> <W(SA)>
2.346

> <Valence>
2.737

> <Coulomb>
19.862

> <VdW>
0.919

> <VdW6>
-6.793

> <VdW12>
7.712

> <Bond>
0.171

> <Angle>
0.873

> <Pdih>
1.693

> <Idih>
0.000

> <Tether>
0.000

$$$$
VeraChem MOL file


 26 25  0  0  0  0  0  0  0  0999 V2000     
   23.1431   16.6600   22.3266 C   0  0  0  0  0  0  0  0  0  0  0  0
   24.2363   16.7566   22.3049 H   0  0  0  0  0  0  0  0  0  0  0  0
   22.8872   15.8930   23.0693 H   0  0  0  0  0  0  0  0  0  0  0  0
   22.8167   16.3038   21.3408 H   0  0  0  0  0  0  0  0  0  0  0  0
   22.4833   18.0112   22.6747 C   0  0  0  0  0  0  0  0  0  0  0  0
   22.7848   18.7653   21.9341 H   0  0  0  0  0  0  0  0  0  0  0  0
   22.8547   18.3578   23.6493 H   0  0  0  0  0  0  0  0  0  0  0  0
   20.9428   17.9029   22.7119 C   0  0  0  0  0  0  0  0  0  0  0  0
   20.5765   17.5544   21.7362 H   0  0  0  0  0  0  0  0  0  0  0  0
   20.6474   17.1455   23.4512 H   0  0  0  0  0  0  0  0  0  0  0  0
   20.2784   19.2542   23.0605 C   0  0  0  0  0  0  0  0  0  0  0  0
   20.5870   20.0047   22.3210 H   0  0  0  0  0  0  0  0  0  0  0  0
   20.6416   19.5996   24.0384 H   0  0  0  0  0  0  0  0  0  0  0  0
   18.7341   19.1434   23.0927 C   0  0  0  0  0  0  0  0  0  0  0  0
   18.3621   18.8615   22.0986 H   0  0  0  0  0  0  0  0  0  0  0  0
   18.4566   18.3263   23.7717 H   0  0  0  0  0  0  0  0  0  0  0  0
   18.0263   20.4337   23.5661 C   0  0  1  0  0  0  0  0  0  0  0  0
   18.4431   20.7168   24.5376 H   0  0  0  0  0  0  0  0  0  0  0  0
   18.2350   21.6031   22.5871 C   0  0  0  0  0  0  0  0  0  0  0  0
   17.8896   21.3431   21.5787 H   0  0  0  0  0  0  0  0  0  0  0  0
   19.2914   21.8889   22.5259 H   0  0  0  0  0  0  0  0  0  0  0  0
   17.6790   22.4886   22.9190 H   0  0  0  0  0  0  0  0  0  0  0  0
   16.5581   20.1967   23.7877 N   0  3  0  0  0  0  0  0  0  0  0  0
   16.0871   19.9274   22.9199 H   0  0  0  0  0  0  0  0  0  0  0  0
   16.3949   19.4510   24.4704 H   0  0  0  0  0  0  0  0  0  0  0  0
   16.0923   21.0379   24.1395 H   0  0  0  0  0  0  0  0  0  0  0  0
  1  2  1  0  0  0  0
  1  3  1  0  0  0  0
  1  4  1  0  0  0  0
  1  5  1  0  0  0  0
  5  6  1  0  0  0  0
  5  7  1  0  0  0  0
  5  8  1  0  0  0  0
  8  9  1  0  0  0  0
  8 10  1  0  0  0  0
  8 11  1  0  0  0  0
 11 12  1  0  0  0  0
 11 13  1  0  0  0  0
 11 14  1  0  0  0  0
 14 15  1  0  0  0  0
 14 16  1  0  0  0  0
 14 17  1  0  0  0  0
 17 18  1  0  0  0  0
 17 19  1  0  0  0  0
 19 20  1  0  0  0  0
 19 21  1  0  0  0  0
 19 22  1  0  0  0  0
 17 23  1  0  0  0  0
 23 24  1  0  0  0  0
 23 25  1  0  0  0  0
 23 26  1  0  0  0  0
M  END
> <VConfSearch Rank>
822

> <Conf_Id>
54

> <Delta U+W>
0.453

> <U+W>
-29.845

> <U>
23.817

> <W>
-53.663

> <W(PB)>
-56.021

> <W(SA)>
2.358

> <Valence>
3.277

> <Coulomb>
19.492

> <VdW>
1.049

> <VdW6>
-6.949

> <VdW12>
7.998

> <Bond>
0.183

> <Angle>
1.152

> <Pdih>
1.942

> <Idih>
0.000

> <Tether>
0.000

$$$$
VeraChem MOL file


 26 25  0  0  0  0  0  0  0  0999 V2000     
   20.2360   16.5005   25.4855 C   0  0  0  0  0  0  0  0  0  0  0  0
   19.2900   16.0383   25.1751 H   0  0  0  0  0  0  0  0  0  0  0  0
   21.0228   16.1697   24.7968 H   0  0  0  0  0  0  0  0  0  0  0  0
   20.4872   16.1129   26.4813 H   0  0  0  0  0  0  0  0  0  0  0  0
   20.1168   18.0414   25.5206 C   0  0  0  0  0  0  0  0  0  0  0  0
   21.0838   18.4826   25.8000 H   0  0  0  0  0  0  0  0  0  0  0  0
   19.4115   18.3197   26.3162 H   0  0  0  0  0  0  0  0  0  0  0  0
   19.6246   18.6555   24.1874 C   0  0  0  0  0  0  0  0  0  0  0  0
   18.6728   18.1883   23.8991 H   0  0  0  0  0  0  0  0  0  0  0  0
   19.4192   19.7168   24.3708 H   0  0  0  0  0  0  0  0  0  0  0  0
   20.6503   18.5252   23.0332 C   0  0  0  0  0  0  0  0  0  0  0  0
   20.9539   17.4755   22.9341 H   0  0  0  0  0  0  0  0  0  0  0  0
   21.5617   19.0825   23.2903 H   0  0  0  0  0  0  0  0  0  0  0  0
   20.1342   18.9923   21.6464 C   0  0  0  0  0  0  0  0  0  0  0  0
   20.9167   18.7498   20.9149 H   0  0  0  0  0  0  0  0  0  0  0  0
   19.2566   18.4024   21.3506 H   0  0  0  0  0  0  0  0  0  0  0  0
   19.8137   20.5027   21.5447 C   0  0  1  0  0  0  0  0  0  0  0  0
   20.5615   21.0543   22.1227 H   0  0  0  0  0  0  0  0  0  0  0  0
   19.8953   20.9708   20.0821 C   0  0  0  0  0  0  0  0  0  0  0  0
   19.6837   22.0444   20.0051 H   0  0  0  0  0  0  0  0  0  0  0  0
   19.1742   20.4339   19.4529 H   0  0  0  0  0  0  0  0  0  0  0  0
   20.8991   20.8017   19.6728 H   0  0  0  0  0  0  0  0  0  0  0  0
   18.4650   20.8526   22.1126 N   0  3  0  0  0  0  0  0  0  0  0  0
   18.3818   20.5615   23.0891 H   0  0  0  0  0  0  0  0  0  0  0  0
   18.2942   21.8616   22.0755 H   0  0  0  0  0  0  0  0  0  0  0  0
   17.7124   20.3963   21.5904 H   0  0  0  0  0  0  0  0  0  0  0  0
  1  2  1  0  0  0  0
  1  3  1  0  0  0  0
  1  4  1  0  0  0  0
  1  5  1  0  0  0  0
  5  6  1  0  0  0  0
  5  7  1  0  0  0  0
  5  8  1  0  0  0  0
  8  9  1  0  0  0  0
  8 10  1  0  0  0  0
  8 11  1  0  0  0  0
 11 12  1  0  0  0  0
 11 13  1  0  0  0  0
 11 14  1  0  0  0  0
 14 15  1  0  0  0  0
 14 16  1  0  0  0  0
 14 17  1  0  0  0  0
 17 18  1  0  0  0  0
 17 19  1  0  0  0  0
 19 20  1  0  0  0  0
 19 21  1  0  0  0  0
 19 22  1  0  0  0  0
 17 23  1  0  0  0  0
 23 24  1  0  0  0  0
 23 25  1  0  0  0  0
 23 26  1  0  0  0  0
M  END
> <VConfSearch Rank>
823

> <Conf_Id>
110

> <Delta U+W>
3.764

> <U+W>
-26.535

> <U>
27.400

> <W>
-53.935

> <W(PB)>
-56.238

> <W(SA)>
2.303

> <Valence>
5.205

> <Coulomb>
21.096

> <VdW>
1.098

> <VdW6>
-8.389

> <VdW12>
9.488

> <Bond>
0.270

> <Angle>
1.912

> <Pdih>
3.023

> <Idih>
0.000

> <Tether>
0.000

$$$$
VeraChem MOL file


 26 25  0  0  0  0  0  0  0  0999 V2000     
   17.9151   16.1736   21.9391 C   0  0  0  0  0  0  0  0  0  0  0  0
   16.9483   15.6661   21.8264 H   0  0  0  0  0  0  0  0  0  0  0  0
   18.1500   16.6518   20.9801 H   0  0  0  0  0  0  0  0  0  0  0  0
   18.6755   15.4070   22.1373 H   0  0  0  0  0  0  0  0  0  0  0  0
   17.8535   17.2055   23.0881 C   0  0  0  0  0  0  0  0  0  0  0  0
   17.4973   16.7019   23.9976 H   0  0  0  0  0  0  0  0  0  0  0  0
   17.1074   17.9770   22.8518 H   0  0  0  0  0  0  0  0  0  0  0  0
   19.2170   17.8723   23.3912 C   0  0  0  0  0  0  0  0  0  0  0  0
   19.1041   18.4967   24.2856 H   0  0  0  0  0  0  0  0  0  0  0  0
   19.9509   17.0978   23.6534 H   0  0  0  0  0  0  0  0  0  0  0  0
   19.7610   18.7228   22.2144 C   0  0  0  0  0  0  0  0  0  0  0  0
   18.9881   19.4128   21.8489 H   0  0  0  0  0  0  0  0  0  0  0  0
   19.9898   18.0513   21.3762 H   0  0  0  0  0  0  0  0  0  0  0  0
   21.0515   19.5081   22.5697 C   0  0  0  0  0  0  0  0  0  0  0  0
   21.6049   18.9920   23.3655 H   0  0  0  0  0  0  0  0  0  0  0  0
   21.7077   19.4898   21.6896 H   0  0  0  0  0  0  0  0  0  0  0  0
   20.8250   20.9913   22.9501 C   0  0  1  0  0  0  0  0  0  0  0  0
   20.3129   21.4813   22.1162 H   0  0  0  0  0  0  0  0  0  0  0  0
   19.9584   21.1598   24.2096 C   0  0  0  0  0  0  0  0  0  0  0  0
   20.3842   20.6148   25.0612 H   0  0  0  0  0  0  0  0  0  0  0  0
   18.9386   20.7966   24.0371 H   0  0  0  0  0  0  0  0  0  0  0  0
   19.8809   22.2182   24.4870 H   0  0  0  0  0  0  0  0  0  0  0  0
   22.1346   21.7101   23.1210 N   0  3  0  0  0  0  0  0  0  0  0  0
   22.7096   21.6534   22.2755 H   0  0  0  0  0  0  0  0  0  0  0  0
   21.9924   22.7031   23.3258 H   0  0  0  0  0  0  0  0  0  0  0  0
   22.6806   21.3149   23.8912 H   0  0  0  0  0  0  0  0  0  0  0  0
  1  2  1  0  0  0  0
  1  3  1  0  0  0  0
  1  4  1  0  0  0  0
  1  5  1  0  0  0  0
  5  6  1  0  0  0  0
  5  7  1  0  0  0  0
  5  8  1  0  0  0  0
  8  9  1  0  0  0  0
  8 10  1  0  0  0  0
  8 11  1  0  0  0  0
 11 12  1  0  0  0  0
 11 13  1  0  0  0  0
 11 14  1  0  0  0  0
 14 15  1  0  0  0  0
 14 16  1  0  0  0  0
 14 17  1  0  0  0  0
 17 18  1  0  0  0  0
 17 19  1  0  0  0  0
 19 20  1  0  0  0  0
 19 21  1  0  0  0  0
 19 22  1  0  0  0  0
 17 23  1  0  0  0  0
 23 24  1  0  0  0  0
 23 25  1  0  0  0  0
 23 26  1  0  0  0  0
M  END
> <VConfSearch Rank>
824

> <Conf_Id>
34

> <Delta U+W>
3.568

> <U+W>
-26.731

> <U>
27.221

> <W>
-53.952

> <W(PB)>
-56.213

> <W(SA)>
2.261

> <Valence>
6.368

> <Coulomb>
19.698

> <VdW>
1.155

> <VdW6>
-8.532

> <VdW12>
9.687

> <Bond>
0.272

> <Angle>
1.847

> <Pdih>
4.248

> <Idih>
0.000

> <Tether>
0.000

$$$$
VeraChem MOL file


 26 25  0  0  0  0  0  0  0  0999 V2000     
   21.5207   22.7976   22.5478 C   0  0  0  0  0  0  0  0  0  0  0  0
   21.7084   23.0006   23.6102 H   0  0  0  0  0  0  0  0  0  0  0  0
   22.4677   22.4888   22.0861 H   0  0  0  0  0  0  0  0  0  0  0  0
   21.2063   23.7374   22.0756 H   0  0  0  0  0  0  0  0  0  0  0  0
   20.4384   21.7112   22.3733 C   0  0  0  0  0  0  0  0  0  0  0  0
   20.2485   21.5546   21.3022 H   0  0  0  0  0  0  0  0  0  0  0  0
   19.4950   22.0625   22.8145 H   0  0  0  0  0  0  0  0  0  0  0  0
   20.8563   20.3767   23.0297 C   0  0  0  0  0  0  0  0  0  0  0  0
   21.8009   20.0315   22.5870 H   0  0  0  0  0  0  0  0  0  0  0  0
   21.0475   20.5392   24.0995 H   0  0  0  0  0  0  0  0  0  0  0  0
   19.7749   19.2861   22.8575 C   0  0  0  0  0  0  0  0  0  0  0  0
   19.5879   19.1305   21.7868 H   0  0  0  0  0  0  0  0  0  0  0  0
   18.8348   19.6426   23.2985 H   0  0  0  0  0  0  0  0  0  0  0  0
   20.1996   17.9501   23.5212 C   0  0  0  0  0  0  0  0  0  0  0  0
   21.1647   17.6319   23.1057 H   0  0  0  0  0  0  0  0  0  0  0  0
   20.3725   18.1162   24.5928 H   0  0  0  0  0  0  0  0  0  0  0  0
   19.1900   16.7896   23.3550 C   0  0  1  0  0  0  0  0  0  0  0  0
   19.6244   15.9095   23.8393 H   0  0  0  0  0  0  0  0  0  0  0  0
   17.8482   17.0860   24.0473 C   0  0  0  0  0  0  0  0  0  0  0  0
   17.3065   17.9001   23.5513 H   0  0  0  0  0  0  0  0  0  0  0  0
   18.0041   17.3653   25.0967 H   0  0  0  0  0  0  0  0  0  0  0  0
   17.2046   16.1979   24.0320 H   0  0  0  0  0  0  0  0  0  0  0  0
   18.9812   16.4116   21.9142 N   0  3  0  0  0  0  0  0  0  0  0  0
   18.3603   15.6023   21.8260 H   0  0  0  0  0  0  0  0  0  0  0  0
   18.5609   17.1797   21.3854 H   0  0  0  0  0  0  0  0  0  0  0  0
   19.8652   16.1697   21.4575 H   0  0  0  0  0  0  0  0  0  0  0  0
  1  2  1  0  0  0  0
  1  3  1  0  0  0  0
  1  4  1  0  0  0  0
  1  5  1  0  0  0  0
  5  6  1  0  0  0  0
  5  7  1  0  0  0  0
  5  8  1  0  0  0  0
  8  9  1  0  0  0  0
  8 10  1  0  0  0  0
  8 11  1  0  0  0  0
 11 12  1  0  0  0  0
 11 13  1  0  0  0  0
 11 14  1  0  0  0  0
 14 15  1  0  0  0  0
 14 16  1  0  0  0  0
 14 17  1  0  0  0  0
 17 18  1  0  0  0  0
 17 19  1  0  0  0  0
 19 20  1  0  0  0  0
 19 21  1  0  0  0  0
 19 22  1  0  0  0  0
 17 23  1  0  0  0  0
 23 24  1  0  0  0  0
 23 25  1  0  0  0  0
 23 26  1  0  0  0  0
M  END
> <VConfSearch Rank>
825

> <Conf_Id>
132

> <Delta U+W>
0.363

> <U+W>
-29.936

> <U>
24.060

> <W>
-53.996

> <W(PB)>
-56.327

> <W(SA)>
2.332

> <Valence>
3.249

> <Coulomb>
19.781

> <VdW>
1.030

> <VdW6>
-7.421

> <VdW12>
8.451

> <Bond>
0.207

> <Angle>
1.205

> <Pdih>
1.837

> <Idih>
0.000

> <Tether>
0.000

$$$$
VeraChem MOL file


 26 25  0  0  0  0  0  0  0  0999 V2000     
   17.1760   19.5809   20.0951 C   0  0  0  0  0  0  0  0  0  0  0  0
   16.0901   19.5276   20.2474 H   0  0  0  0  0  0  0  0  0  0  0  0
   17.3967   20.5197   19.5707 H   0  0  0  0  0  0  0  0  0  0  0  0
   17.4659   18.7478   19.4416 H   0  0  0  0  0  0  0  0  0  0  0  0
   17.9197   19.5108   21.4457 C   0  0  0  0  0  0  0  0  0  0  0  0
   17.6411   18.5798   21.9566 H   0  0  0  0  0  0  0  0  0  0  0  0
   17.5876   20.3388   22.0874 H   0  0  0  0  0  0  0  0  0  0  0  0
   19.4536   19.5795   21.2556 C   0  0  0  0  0  0  0  0  0  0  0  0
   19.7923   18.7206   20.6599 H   0  0  0  0  0  0  0  0  0  0  0  0
   19.6992   20.4760   20.6696 H   0  0  0  0  0  0  0  0  0  0  0  0
   20.2438   19.6334   22.5864 C   0  0  0  0  0  0  0  0  0  0  0  0
   19.9046   20.4977   23.1725 H   0  0  0  0  0  0  0  0  0  0  0  0
   21.2985   19.8171   22.3443 H   0  0  0  0  0  0  0  0  0  0  0  0
   20.1223   18.3338   23.4287 C   0  0  0  0  0  0  0  0  0  0  0  0
   19.0724   18.1665   23.6979 H   0  0  0  0  0  0  0  0  0  0  0  0
   20.4188   17.4733   22.8146 H   0  0  0  0  0  0  0  0  0  0  0  0
   20.9537   18.3240   24.7335 C   0  0  1  0  0  0  0  0  0  0  0  0
   20.7339   17.3847   25.2505 H   0  0  0  0  0  0  0  0  0  0  0  0
   22.4675   18.3573   24.4588 C   0  0  0  0  0  0  0  0  0  0  0  0
   22.7829   19.3168   24.0325 H   0  0  0  0  0  0  0  0  0  0  0  0
   22.7554   17.5598   23.7627 H   0  0  0  0  0  0  0  0  0  0  0  0
   23.0287   18.2047   25.3888 H   0  0  0  0  0  0  0  0  0  0  0  0
   20.5526   19.4233   25.6783 N   0  3  0  0  0  0  0  0  0  0  0  0
   19.5547   19.3798   25.9033 H   0  0  0  0  0  0  0  0  0  0  0  0
   21.0680   19.3646   26.5611 H   0  0  0  0  0  0  0  0  0  0  0  0
   20.7380   20.3451   25.2756 H   0  0  0  0  0  0  0  0  0  0  0  0
  1  2  1  0  0  0  0
  1  3  1  0  0  0  0
  1  4  1  0  0  0  0
  1  5  1  0  0  0  0
  5  6  1  0  0  0  0
  5  7  1  0  0  0  0
  5  8  1  0  0  0  0
  8  9  1  0  0  0  0
  8 10  1  0  0  0  0
  8 11  1  0  0  0  0
 11 12  1  0  0  0  0
 11 13  1  0  0  0  0
 11 14  1  0  0  0  0
 14 15  1  0  0  0  0
 14 16  1  0  0  0  0
 14 17  1  0  0  0  0
 17 18  1  0  0  0  0
 17 19  1  0  0  0  0
 19 20  1  0  0  0  0
 19 21  1  0  0  0  0
 19 22  1  0  0  0  0
 17 23  1  0  0  0  0
 23 24  1  0  0  0  0
 23 25  1  0  0  0  0
 23 26  1  0  0  0  0
M  END
> <VConfSearch Rank>
826

> <Conf_Id>
46

> <Delta U+W>
1.114

> <U+W>
-29.185

> <U>
24.990

> <W>
-54.175

> <W(PB)>
-56.455

> <W(SA)>
2.279

> <Valence>
3.862

> <Coulomb>
19.956

> <VdW>
1.172

> <VdW6>
-8.054

> <VdW12>
9.226

> <Bond>
0.258

> <Angle>
1.499

> <Pdih>
2.106

> <Idih>
0.000

> <Tether>
0.000

$$$$
VeraChem MOL file


 26 25  0  0  0  0  0  0  0  0999 V2000     
   22.6480   17.7232   24.8650 C   0  0  0  0  0  0  0  0  0  0  0  0
   22.2370   18.4249   25.6011 H   0  0  0  0  0  0  0  0  0  0  0  0
   22.1936   16.7387   25.0361 H   0  0  0  0  0  0  0  0  0  0  0  0
   23.7245   17.6343   25.0606 H   0  0  0  0  0  0  0  0  0  0  0  0
   22.4000   18.2061   23.4178 C   0  0  0  0  0  0  0  0  0  0  0  0
   22.9382   17.5416   22.7274 H   0  0  0  0  0  0  0  0  0  0  0  0
   22.8343   19.2064   23.2821 H   0  0  0  0  0  0  0  0  0  0  0  0
   20.9040   18.2257   23.0210 C   0  0  0  0  0  0  0  0  0  0  0  0
   20.8399   18.4535   21.9490 H   0  0  0  0  0  0  0  0  0  0  0  0
   20.4781   17.2211   23.1497 H   0  0  0  0  0  0  0  0  0  0  0  0
   20.0672   19.2545   23.8233 C   0  0  0  0  0  0  0  0  0  0  0  0
   20.5079   20.2548   23.7196 H   0  0  0  0  0  0  0  0  0  0  0  0
   20.1152   19.0109   24.8925 H   0  0  0  0  0  0  0  0  0  0  0  0
   18.5739   19.2855   23.4068 C   0  0  0  0  0  0  0  0  0  0  0  0
   18.1323   18.2995   23.6035 H   0  0  0  0  0  0  0  0  0  0  0  0
   18.0384   19.9948   24.0519 H   0  0  0  0  0  0  0  0  0  0  0  0
   18.3314   19.6598   21.9272 C   0  0  1  0  0  0  0  0  0  0  0  0
   18.8488   18.9304   21.2971 H   0  0  0  0  0  0  0  0  0  0  0  0
   16.8314   19.5956   21.5985 C   0  0  0  0  0  0  0  0  0  0  0  0
   16.6560   19.8213   20.5395 H   0  0  0  0  0  0  0  0  0  0  0  0
   16.2616   20.3148   22.2002 H   0  0  0  0  0  0  0  0  0  0  0  0
   16.4320   18.5930   21.7957 H   0  0  0  0  0  0  0  0  0  0  0  0
   18.8934   21.0104   21.5771 N   0  3  0  0  0  0  0  0  0  0  0  0
   19.9004   21.0514   21.7559 H   0  0  0  0  0  0  0  0  0  0  0  0
   18.7472   21.2325   20.5883 H   0  0  0  0  0  0  0  0  0  0  0  0
   18.4517   21.7520   22.1267 H   0  0  0  0  0  0  0  0  0  0  0  0
  1  2  1  0  0  0  0
  1  3  1  0  0  0  0
  1  4  1  0  0  0  0
  1  5  1  0  0  0  0
  5  6  1  0  0  0  0
  5  7  1  0  0  0  0
  5  8  1  0  0  0  0
  8  9  1  0  0  0  0
  8 10  1  0  0  0  0
  8 11  1  0  0  0  0
 11 12  1  0  0  0  0
 11 13  1  0  0  0  0
 11 14  1  0  0  0  0
 14 15  1  0  0  0  0
 14 16  1  0  0  0  0
 14 17  1  0  0  0  0
 17 18  1  0  0  0  0
 17 19  1  0  0  0  0
 19 20  1  0  0  0  0
 19 21  1  0  0  0  0
 19 22  1  0  0  0  0
 17 23  1  0  0  0  0
 23 24  1  0  0  0  0
 23 25  1  0  0  0  0
 23 26  1  0  0  0  0
M  END
> <VConfSearch Rank>
827

> <Conf_Id>
113

> <Delta U+W>
1.137

> <U+W>
-29.162

> <U>
24.833

> <W>
-53.995

> <W(PB)>
-56.288

> <W(SA)>
2.294

> <Valence>
3.589

> <Coulomb>
20.270

> <VdW>
0.974

> <VdW6>
-8.255

> <VdW12>
9.229

> <Bond>
0.244

> <Angle>
1.377

> <Pdih>
1.967

> <Idih>
0.000

> <Tether>
0.000

$$$$
VeraChem MOL file


 26 25  0  0  0  0  0  0  0  0999 V2000     
   22.1332   20.3270   25.8804 C   0  0  0  0  0  0  0  0  0  0  0  0
   21.8189   20.4061   26.9292 H   0  0  0  0  0  0  0  0  0  0  0  0
   22.9061   19.5498   25.8178 H   0  0  0  0  0  0  0  0  0  0  0  0
   22.5865   21.2842   25.5917 H   0  0  0  0  0  0  0  0  0  0  0  0
   20.9303   19.9866   24.9753 C   0  0  0  0  0  0  0  0  0  0  0  0
   20.1627   20.7658   25.0816 H   0  0  0  0  0  0  0  0  0  0  0  0
   20.4803   19.0464   25.3205 H   0  0  0  0  0  0  0  0  0  0  0  0
   21.3500   19.8654   23.4912 C   0  0  0  0  0  0  0  0  0  0  0  0
   21.8696   20.7860   23.1915 H   0  0  0  0  0  0  0  0  0  0  0  0
   22.0781   19.0504   23.3774 H   0  0  0  0  0  0  0  0  0  0  0  0
   20.1601   19.6381   22.5266 C   0  0  0  0  0  0  0  0  0  0  0  0
   20.5407   19.6866   21.4980 H   0  0  0  0  0  0  0  0  0  0  0  0
   19.4486   20.4675   22.6338 H   0  0  0  0  0  0  0  0  0  0  0  0
   19.4377   18.2812   22.7495 C   0  0  0  0  0  0  0  0  0  0  0  0
   20.1795   17.4719   22.7471 H   0  0  0  0  0  0  0  0  0  0  0  0
   18.9762   18.2672   23.7447 H   0  0  0  0  0  0  0  0  0  0  0  0
   18.3458   17.9479   21.7054 C   0  0  1  0  0  0  0  0  0  0  0  0
   17.9287   16.9717   21.9721 H   0  0  0  0  0  0  0  0  0  0  0  0
   17.1942   18.9681   21.7285 C   0  0  0  0  0  0  0  0  0  0  0  0
   17.5203   19.9555   21.3806 H   0  0  0  0  0  0  0  0  0  0  0  0
   16.7897   19.0767   22.7425 H   0  0  0  0  0  0  0  0  0  0  0  0
   16.3755   18.6372   21.0777 H   0  0  0  0  0  0  0  0  0  0  0  0
   18.9039   17.7959   20.3169 N   0  3  0  0  0  0  0  0  0  0  0  0
   19.6424   17.0874   20.2844 H   0  0  0  0  0  0  0  0  0  0  0  0
   18.1791   17.5125   19.6514 H   0  0  0  0  0  0  0  0  0  0  0  0
   19.3041   18.6742   19.9785 H   0  0  0  0  0  0  0  0  0  0  0  0
  1  2  1  0  0  0  0
  1  3  1  0  0  0  0
  1  4  1  0  0  0  0
  1  5  1  0  0  0  0
  5  6  1  0  0  0  0
  5  7  1  0  0  0  0
  5  8  1  0  0  0  0
  8  9  1  0  0  0  0
  8 10  1  0  0  0  0
  8 11  1  0  0  0  0
 11 12  1  0  0  0  0
 11 13  1  0  0  0  0
 11 14  1  0  0  0  0
 14 15  1  0  0  0  0
 14 16  1  0  0  0  0
 14 17  1  0  0  0  0
 17 18  1  0  0  0  0
 17 19  1  0  0  0  0
 19 20  1  0  0  0  0
 19 21  1  0  0  0  0
 19 22  1  0  0  0  0
 17 23  1  0  0  0  0
 23 24  1  0  0  0  0
 23 25  1  0  0  0  0
 23 26  1  0  0  0  0
M  END
> <VConfSearch Rank>
828

> <Conf_Id>
45

> <Delta U+W>
1.035

> <U+W>
-29.264

> <U>
24.725

> <W>
-53.989

> <W(PB)>
-56.298

> <W(SA)>
2.309

> <Valence>
3.780

> <Coulomb>
19.804

> <VdW>
1.141

> <VdW6>
-8.104

> <VdW12>
9.246

> <Bond>
0.254

> <Angle>
1.437

> <Pdih>
2.089

> <Idih>
0.000

> <Tether>
0.000

$$$$
VeraChem MOL file


 26 25  0  0  0  0  0  0  0  0999 V2000     
   21.8176   22.3708   21.7968 C   0  0  0  0  0  0  0  0  0  0  0  0
   22.2281   23.1151   22.4915 H   0  0  0  0  0  0  0  0  0  0  0  0
   22.5997   22.1244   21.0668 H   0  0  0  0  0  0  0  0  0  0  0  0
   20.9820   22.8369   21.2585 H   0  0  0  0  0  0  0  0  0  0  0  0
   21.3526   21.1118   22.5591 C   0  0  0  0  0  0  0  0  0  0  0  0
   20.6034   21.4057   23.3059 H   0  0  0  0  0  0  0  0  0  0  0  0
   22.2025   20.6855   23.1100 H   0  0  0  0  0  0  0  0  0  0  0  0
   20.7654   20.0494   21.5998 C   0  0  0  0  0  0  0  0  0  0  0  0
   19.8812   20.4576   21.0909 H   0  0  0  0  0  0  0  0  0  0  0  0
   21.5019   19.8360   20.8127 H   0  0  0  0  0  0  0  0  0  0  0  0
   20.3950   18.7170   22.2970 C   0  0  0  0  0  0  0  0  0  0  0  0
   21.2807   18.3093   22.8038 H   0  0  0  0  0  0  0  0  0  0  0  0
   20.1231   17.9919   21.5189 H   0  0  0  0  0  0  0  0  0  0  0  0
   19.2288   18.8516   23.3100 C   0  0  0  0  0  0  0  0  0  0  0  0
   19.5132   19.5586   24.0989 H   0  0  0  0  0  0  0  0  0  0  0  0
   18.3485   19.2760   22.8093 H   0  0  0  0  0  0  0  0  0  0  0  0
   18.8507   17.5097   23.9746 C   0  0  1  0  0  0  0  0  0  0  0  0
   19.7503   17.0897   24.4350 H   0  0  0  0  0  0  0  0  0  0  0  0
   17.8052   17.7362   25.0785 C   0  0  0  0  0  0  0  0  0  0  0  0
   16.8793   18.1582   24.6679 H   0  0  0  0  0  0  0  0  0  0  0  0
   18.1864   18.4265   25.8413 H   0  0  0  0  0  0  0  0  0  0  0  0
   17.5579   16.7919   25.5790 H   0  0  0  0  0  0  0  0  0  0  0  0
   18.3556   16.4923   22.9829 N   0  3  0  0  0  0  0  0  0  0  0  0
   19.0592   16.2939   22.2667 H   0  0  0  0  0  0  0  0  0  0  0  0
   18.1265   15.6051   23.4399 H   0  0  0  0  0  0  0  0  0  0  0  0
   17.5114   16.8173   22.5044 H   0  0  0  0  0  0  0  0  0  0  0  0
  1  2  1  0  0  0  0
  1  3  1  0  0  0  0
  1  4  1  0  0  0  0
  1  5  1  0  0  0  0
  5  6  1  0  0  0  0
  5  7  1  0  0  0  0
  5  8  1  0  0  0  0
  8  9  1  0  0  0  0
  8 10  1  0  0  0  0
  8 11  1  0  0  0  0
 11 12  1  0  0  0  0
 11 13  1  0  0  0  0
 11 14  1  0  0  0  0
 14 15  1  0  0  0  0
 14 16  1  0  0  0  0
 14 17  1  0  0  0  0
 17 18  1  0  0  0  0
 17 19  1  0  0  0  0
 19 20  1  0  0  0  0
 19 21  1  0  0  0  0
 19 22  1  0  0  0  0
 17 23  1  0  0  0  0
 23 24  1  0  0  0  0
 23 25  1  0  0  0  0
 23 26  1  0  0  0  0
M  END
> <VConfSearch Rank>
829

> <Conf_Id>
121

> <Delta U+W>
0.736

> <U+W>
-29.562

> <U>
24.282

> <W>
-53.844

> <W(PB)>
-56.205

> <W(SA)>
2.361

> <Valence>
3.311

> <Coulomb>
19.887

> <VdW>
1.083

> <VdW6>
-7.444

> <VdW12>
8.527

> <Bond>
0.219

> <Angle>
1.167

> <Pdih>
1.926

> <Idih>
0.000

> <Tether>
0.000

$$$$
VeraChem MOL file


 26 25  0  0  0  0  0  0  0  0999 V2000     
   16.6781   21.0259   22.6096 C   0  0  0  0  0  0  0  0  0  0  0  0
   15.9486   21.5721   21.9979 H   0  0  0  0  0  0  0  0  0  0  0  0
   16.1218   20.4492   23.3600 H   0  0  0  0  0  0  0  0  0  0  0  0
   17.2915   21.7700   23.1324 H   0  0  0  0  0  0  0  0  0  0  0  0
   17.5403   20.0988   21.7229 C   0  0  0  0  0  0  0  0  0  0  0  0
   18.1125   20.7017   21.0039 H   0  0  0  0  0  0  0  0  0  0  0  0
   16.8730   19.4611   21.1264 H   0  0  0  0  0  0  0  0  0  0  0  0
   18.5019   19.1923   22.5288 C   0  0  0  0  0  0  0  0  0  0  0  0
   17.9241   18.5860   23.2400 H   0  0  0  0  0  0  0  0  0  0  0  0
   18.9699   18.4874   21.8293 H   0  0  0  0  0  0  0  0  0  0  0  0
   19.6019   19.9794   23.2853 C   0  0  0  0  0  0  0  0  0  0  0  0
   19.1334   20.6730   23.9954 H   0  0  0  0  0  0  0  0  0  0  0  0
   20.1650   20.6044   22.5798 H   0  0  0  0  0  0  0  0  0  0  0  0
   20.5712   19.0657   24.0797 C   0  0  0  0  0  0  0  0  0  0  0  0
   21.3000   19.6944   24.6083 H   0  0  0  0  0  0  0  0  0  0  0  0
   19.9971   18.5461   24.8582 H   0  0  0  0  0  0  0  0  0  0  0  0
   21.3267   18.0122   23.2351 C   0  0  1  0  0  0  0  0  0  0  0  0
   20.5899   17.3853   22.7244 H   0  0  0  0  0  0  0  0  0  0  0  0
   22.2323   18.6621   22.1739 C   0  0  0  0  0  0  0  0  0  0  0  0
   22.9545   19.3476   22.6345 H   0  0  0  0  0  0  0  0  0  0  0  0
   21.6439   19.2247   21.4397 H   0  0  0  0  0  0  0  0  0  0  0  0
   22.7928   17.8969   21.6228 H   0  0  0  0  0  0  0  0  0  0  0  0
   22.1284   17.0896   24.1108 N   0  3  0  0  0  0  0  0  0  0  0  0
   21.5374   16.6133   24.7981 H   0  0  0  0  0  0  0  0  0  0  0  0
   22.5985   16.3656   23.5602 H   0  0  0  0  0  0  0  0  0  0  0  0
   22.8514   17.5978   24.6269 H   0  0  0  0  0  0  0  0  0  0  0  0
  1  2  1  0  0  0  0
  1  3  1  0  0  0  0
  1  4  1  0  0  0  0
  1  5  1  0  0  0  0
  5  6  1  0  0  0  0
  5  7  1  0  0  0  0
  5  8  1  0  0  0  0
  8  9  1  0  0  0  0
  8 10  1  0  0  0  0
  8 11  1  0  0  0  0
 11 12  1  0  0  0  0
 11 13  1  0  0  0  0
 11 14  1  0  0  0  0
 14 15  1  0  0  0  0
 14 16  1  0  0  0  0
 14 17  1  0  0  0  0
 17 18  1  0  0  0  0
 17 19  1  0  0  0  0
 19 20  1  0  0  0  0
 19 21  1  0  0  0  0
 19 22  1  0  0  0  0
 17 23  1  0  0  0  0
 23 24  1  0  0  0  0
 23 25  1  0  0  0  0
 23 26  1  0  0  0  0
M  END
> <VConfSearch Rank>
830

> <Conf_Id>
5

> <Delta U+W>
1.233

> <U+W>
-29.065

> <U>
25.023

> <W>
-54.088

> <W(PB)>
-56.383

> <W(SA)>
2.296

> <Valence>
4.083

> <Coulomb>
19.893

> <VdW>
1.047

> <VdW6>
-8.479

> <VdW12>
9.527

> <Bond>
0.256

> <Angle>
1.716

> <Pdih>
2.112

> <Idih>
0.000

> <Tether>
0.000

$$$$
VeraChem MOL file


 26 25  0  0  0  0  0  0  0  0999 V2000     
   18.9853   22.6723   22.2775 C   0  0  0  0  0  0  0  0  0  0  0  0
   18.3255   23.5488   22.3156 H   0  0  0  0  0  0  0  0  0  0  0  0
   19.7903   22.8353   23.0045 H   0  0  0  0  0  0  0  0  0  0  0  0
   19.4298   22.6308   21.2746 H   0  0  0  0  0  0  0  0  0  0  0  0
   18.1897   21.3837   22.5868 C   0  0  0  0  0  0  0  0  0  0  0  0
   17.3221   21.3361   21.9140 H   0  0  0  0  0  0  0  0  0  0  0  0
   17.7845   21.4343   23.6071 H   0  0  0  0  0  0  0  0  0  0  0  0
   19.0198   20.0883   22.4158 C   0  0  0  0  0  0  0  0  0  0  0  0
   18.3369   19.2351   22.5181 H   0  0  0  0  0  0  0  0  0  0  0  0
   19.4264   20.0456   21.3960 H   0  0  0  0  0  0  0  0  0  0  0  0
   20.1688   19.9513   23.4458 C   0  0  0  0  0  0  0  0  0  0  0  0
   19.7520   19.9654   24.4623 H   0  0  0  0  0  0  0  0  0  0  0  0
   20.8329   20.8221   23.3732 H   0  0  0  0  0  0  0  0  0  0  0  0
   21.0322   18.6771   23.2630 C   0  0  0  0  0  0  0  0  0  0  0  0
   21.5242   18.6943   22.2812 H   0  0  0  0  0  0  0  0  0  0  0  0
   21.8446   18.7223   24.0003 H   0  0  0  0  0  0  0  0  0  0  0  0
   20.2464   17.3567   23.4520 C   0  0  1  0  0  0  0  0  0  0  0  0
   19.3167   17.5858   23.9818 H   0  0  0  0  0  0  0  0  0  0  0  0
   19.8975   16.7066   22.1007 C   0  0  0  0  0  0  0  0  0  0  0  0
   20.8047   16.4109   21.5589 H   0  0  0  0  0  0  0  0  0  0  0  0
   19.3311   17.3911   21.4595 H   0  0  0  0  0  0  0  0  0  0  0  0
   19.2848   15.8092   22.2505 H   0  0  0  0  0  0  0  0  0  0  0  0
   20.9911   16.3779   24.3182 N   0  3  0  0  0  0  0  0  0  0  0  0
   21.1937   16.7708   25.2421 H   0  0  0  0  0  0  0  0  0  0  0  0
   20.4503   15.5208   24.4643 H   0  0  0  0  0  0  0  0  0  0  0  0
   21.8835   16.1075   23.8960 H   0  0  0  0  0  0  0  0  0  0  0  0
  1  2  1  0  0  0  0
  1  3  1  0  0  0  0
  1  4  1  0  0  0  0
  1  5  1  0  0  0  0
  5  6  1  0  0  0  0
  5  7  1  0  0  0  0
  5  8  1  0  0  0  0
  8  9  1  0  0  0  0
  8 10  1  0  0  0  0
  8 11  1  0  0  0  0
 11 12  1  0  0  0  0
 11 13  1  0  0  0  0
 11 14  1  0  0  0  0
 14 15  1  0  0  0  0
 14 16  1  0  0  0  0
 14 17  1  0  0  0  0
 17 18  1  0  0  0  0
 17 19  1  0  0  0  0
 19 20  1  0  0  0  0
 19 21  1  0  0  0  0
 19 22  1  0  0  0  0
 17 23  1  0  0  0  0
 23 24  1  0  0  0  0
 23 25  1  0  0  0  0
 23 26  1  0  0  0  0
M  END
> <VConfSearch Rank>
831

> <Conf_Id>
100

> <Delta U+W>
3.818

> <U+W>
-26.481

> <U>
27.496

> <W>
-53.977

> <W(PB)>
-56.267

> <W(SA)>
2.290

> <Valence>
6.472

> <Coulomb>
19.839

> <VdW>
1.185

> <VdW6>
-8.405

> <VdW12>
9.590

> <Bond>
0.248

> <Angle>
1.619

> <Pdih>
4.604

> <Idih>
0.000

> <Tether>
0.000

$$$$
VeraChem MOL file


 26 25  0  0  0  0  0  0  0  0999 V2000     
   22.5910   17.5797   20.9492 C   0  0  0  0  0  0  0  0  0  0  0  0
   23.6511   17.7502   20.7210 H   0  0  0  0  0  0  0  0  0  0  0  0
   22.5314   16.7697   21.6878 H   0  0  0  0  0  0  0  0  0  0  0  0
   22.0985   17.2402   20.0287 H   0  0  0  0  0  0  0  0  0  0  0  0
   21.9350   18.8696   21.4860 C   0  0  0  0  0  0  0  0  0  0  0  0
   22.0412   19.6700   20.7403 H   0  0  0  0  0  0  0  0  0  0  0  0
   22.4696   19.2025   22.3867 H   0  0  0  0  0  0  0  0  0  0  0  0
   20.4407   18.6573   21.8151 C   0  0  0  0  0  0  0  0  0  0  0  0
   19.9135   18.3241   20.9105 H   0  0  0  0  0  0  0  0  0  0  0  0
   20.3457   17.8479   22.5484 H   0  0  0  0  0  0  0  0  0  0  0  0
   19.7804   19.9530   22.3473 C   0  0  0  0  0  0  0  0  0  0  0  0
   19.8784   20.7264   21.5729 H   0  0  0  0  0  0  0  0  0  0  0  0
   20.3313   20.3292   23.2189 H   0  0  0  0  0  0  0  0  0  0  0  0
   18.2713   19.7883   22.6817 C   0  0  0  0  0  0  0  0  0  0  0  0
   17.7569   20.7226   22.4207 H   0  0  0  0  0  0  0  0  0  0  0  0
   17.8258   19.0231   22.0324 H   0  0  0  0  0  0  0  0  0  0  0  0
   17.9316   19.4698   24.1591 C   0  0  1  0  0  0  0  0  0  0  0  0
   16.8432   19.3749   24.2245 H   0  0  0  0  0  0  0  0  0  0  0  0
   18.5397   18.1428   24.6413 C   0  0  0  0  0  0  0  0  0  0  0  0
   19.6313   18.2066   24.7211 H   0  0  0  0  0  0  0  0  0  0  0  0
   18.2861   17.3249   23.9556 H   0  0  0  0  0  0  0  0  0  0  0  0
   18.1479   17.8798   25.6314 H   0  0  0  0  0  0  0  0  0  0  0  0
   18.3029   20.5959   25.0850 N   0  3  0  0  0  0  0  0  0  0  0  0
   17.8579   21.4746   24.8052 H   0  0  0  0  0  0  0  0  0  0  0  0
   18.0128   20.3998   26.0472 H   0  0  0  0  0  0  0  0  0  0  0  0
   19.3135   20.7523   25.0952 H   0  0  0  0  0  0  0  0  0  0  0  0
  1  2  1  0  0  0  0
  1  3  1  0  0  0  0
  1  4  1  0  0  0  0
  1  5  1  0  0  0  0
  5  6  1  0  0  0  0
  5  7  1  0  0  0  0
  5  8  1  0  0  0  0
  8  9  1  0  0  0  0
  8 10  1  0  0  0  0
  8 11  1  0  0  0  0
 11 12  1  0  0  0  0
 11 13  1  0  0  0  0
 11 14  1  0  0  0  0
 14 15  1  0  0  0  0
 14 16  1  0  0  0  0
 14 17  1  0  0  0  0
 17 18  1  0  0  0  0
 17 19  1  0  0  0  0
 19 20  1  0  0  0  0
 19 21  1  0  0  0  0
 19 22  1  0  0  0  0
 17 23  1  0  0  0  0
 23 24  1  0  0  0  0
 23 25  1  0  0  0  0
 23 26  1  0  0  0  0
M  END
> <VConfSearch Rank>
832

> <Conf_Id>
142

> <Delta U+W>
2.978

> <U+W>
-27.320

> <U>
26.848

> <W>
-54.168

> <W(PB)>
-56.427

> <W(SA)>
2.259

> <Valence>
5.823

> <Coulomb>
20.057

> <VdW>
0.968

> <VdW6>
-8.367

> <VdW12>
9.335

> <Bond>
0.267

> <Angle>
1.799

> <Pdih>
3.758

> <Idih>
0.000

> <Tether>
0.000

$$$$
VeraChem MOL file


 26 25  0  0  0  0  0  0  0  0999 V2000     
   22.1866   21.6950   22.8825 C   0  0  0  0  0  0  0  0  0  0  0  0
   21.4704   22.4642   23.1993 H   0  0  0  0  0  0  0  0  0  0  0  0
   23.1961   22.0673   23.0999 H   0  0  0  0  0  0  0  0  0  0  0  0
   22.1075   21.5780   21.7948 H   0  0  0  0  0  0  0  0  0  0  0  0
   21.9328   20.3609   23.6209 C   0  0  0  0  0  0  0  0  0  0  0  0
   22.1532   20.5038   24.6881 H   0  0  0  0  0  0  0  0  0  0  0  0
   22.6375   19.5979   23.2617 H   0  0  0  0  0  0  0  0  0  0  0  0
   20.4809   19.8420   23.4816 C   0  0  0  0  0  0  0  0  0  0  0  0
   20.3690   18.9897   24.1617 H   0  0  0  0  0  0  0  0  0  0  0  0
   19.7808   20.6173   23.8220 H   0  0  0  0  0  0  0  0  0  0  0  0
   20.1199   19.3997   22.0410 C   0  0  0  0  0  0  0  0  0  0  0  0
   20.7815   18.5804   21.7298 H   0  0  0  0  0  0  0  0  0  0  0  0
   20.3259   20.2257   21.3489 H   0  0  0  0  0  0  0  0  0  0  0  0
   18.6331   18.9909   21.8399 C   0  0  0  0  0  0  0  0  0  0  0  0
   17.9890   19.8574   22.0389 H   0  0  0  0  0  0  0  0  0  0  0  0
   18.4926   18.7637   20.7749 H   0  0  0  0  0  0  0  0  0  0  0  0
   18.1063   17.7765   22.6469 C   0  0  1  0  0  0  0  0  0  0  0  0
   17.1431   17.5008   22.2065 H   0  0  0  0  0  0  0  0  0  0  0  0
   19.0280   16.5496   22.5348 C   0  0  0  0  0  0  0  0  0  0  0  0
   19.9876   16.7163   23.0386 H   0  0  0  0  0  0  0  0  0  0  0  0
   19.2283   16.3090   21.4834 H   0  0  0  0  0  0  0  0  0  0  0  0
   18.5565   15.6717   22.9932 H   0  0  0  0  0  0  0  0  0  0  0  0
   17.8022   18.1059   24.0828 N   0  3  0  0  0  0  0  0  0  0  0  0
   17.1319   18.8764   24.1562 H   0  0  0  0  0  0  0  0  0  0  0  0
   17.3978   17.3025   24.5723 H   0  0  0  0  0  0  0  0  0  0  0  0
   18.6458   18.3822   24.5888 H   0  0  0  0  0  0  0  0  0  0  0  0
  1  2  1  0  0  0  0
  1  3  1  0  0  0  0
  1  4  1  0  0  0  0
  1  5  1  0  0  0  0
  5  6  1  0  0  0  0
  5  7  1  0  0  0  0
  5  8  1  0  0  0  0
  8  9  1  0  0  0  0
  8 10  1  0  0  0  0
  8 11  1  0  0  0  0
 11 12  1  0  0  0  0
 11 13  1  0  0  0  0
 11 14  1  0  0  0  0
 14 15  1  0  0  0  0
 14 16  1  0  0  0  0
 14 17  1  0  0  0  0
 17 18  1  0  0  0  0
 17 19  1  0  0  0  0
 19 20  1  0  0  0  0
 19 21  1  0  0  0  0
 19 22  1  0  0  0  0
 17 23  1  0  0  0  0
 23 24  1  0  0  0  0
 23 25  1  0  0  0  0
 23 26  1  0  0  0  0
M  END
> <VConfSearch Rank>
833

> <Conf_Id>
119

> <Delta U+W>
3.538

> <U+W>
-26.761

> <U>
27.482

> <W>
-54.243

> <W(PB)>
-56.494

> <W(SA)>
2.251

> <Valence>
5.284

> <Coulomb>
21.247

> <VdW>
0.951

> <VdW6>
-9.416

> <VdW12>
10.367

> <Bond>
0.323

> <Angle>
2.522

> <Pdih>
2.439

> <Idih>
0.000

> <Tether>
0.000

$$$$
VeraChem MOL file


 26 25  0  0  0  0  0  0  0  0999 V2000     
   16.5299   18.2439   23.7527 C   0  0  0  0  0  0  0  0  0  0  0  0
   15.9435   18.8293   23.0326 H   0  0  0  0  0  0  0  0  0  0  0  0
   16.9293   17.3625   23.2359 H   0  0  0  0  0  0  0  0  0  0  0  0
   15.8444   17.8865   24.5320 H   0  0  0  0  0  0  0  0  0  0  0  0
   17.6583   19.0973   24.3750 C   0  0  0  0  0  0  0  0  0  0  0  0
   18.2486   18.4808   25.0672 H   0  0  0  0  0  0  0  0  0  0  0  0
   17.2057   19.8935   24.9825 H   0  0  0  0  0  0  0  0  0  0  0  0
   18.5927   19.7448   23.3246 C   0  0  0  0  0  0  0  0  0  0  0  0
   17.9999   20.3806   22.6526 H   0  0  0  0  0  0  0  0  0  0  0  0
   19.2828   20.4172   23.8475 H   0  0  0  0  0  0  0  0  0  0  0  0
   19.3899   18.7101   22.4892 C   0  0  0  0  0  0  0  0  0  0  0  0
   18.6790   18.1297   21.8865 H   0  0  0  0  0  0  0  0  0  0  0  0
   19.8842   17.9883   23.1518 H   0  0  0  0  0  0  0  0  0  0  0  0
   20.4182   19.3599   21.5213 C   0  0  0  0  0  0  0  0  0  0  0  0
   20.4377   18.7726   20.5938 H   0  0  0  0  0  0  0  0  0  0  0  0
   20.0716   20.3582   21.2231 H   0  0  0  0  0  0  0  0  0  0  0  0
   21.8744   19.4545   22.0410 C   0  0  1  0  0  0  0  0  0  0  0  0
   22.4647   19.9382   21.2565 H   0  0  0  0  0  0  0  0  0  0  0  0
   22.0023   20.3129   23.3099 C   0  0  0  0  0  0  0  0  0  0  0  0
   21.5234   19.8315   24.1709 H   0  0  0  0  0  0  0  0  0  0  0  0
   21.5448   21.2988   23.1616 H   0  0  0  0  0  0  0  0  0  0  0  0
   23.0583   20.4712   23.5605 H   0  0  0  0  0  0  0  0  0  0  0  0
   22.4950   18.0996   22.2469 N   0  3  0  0  0  0  0  0  0  0  0  0
   22.4649   17.5387   21.3908 H   0  0  0  0  0  0  0  0  0  0  0  0
   23.4768   18.1768   22.5269 H   0  0  0  0  0  0  0  0  0  0  0  0
   22.0083   17.5738   22.9767 H   0  0  0  0  0  0  0  0  0  0  0  0
  1  2  1  0  0  0  0
  1  3  1  0  0  0  0
  1  4  1  0  0  0  0
  1  5  1  0  0  0  0
  5  6  1  0  0  0  0
  5  7  1  0  0  0  0
  5  8  1  0  0  0  0
  8  9  1  0  0  0  0
  8 10  1  0  0  0  0
  8 11  1  0  0  0  0
 11 12  1  0  0  0  0
 11 13  1  0  0  0  0
 11 14  1  0  0  0  0
 14 15  1  0  0  0  0
 14 16  1  0  0  0  0
 14 17  1  0  0  0  0
 17 18  1  0  0  0  0
 17 19  1  0  0  0  0
 19 20  1  0  0  0  0
 19 21  1  0  0  0  0
 19 22  1  0  0  0  0
 17 23  1  0  0  0  0
 23 24  1  0  0  0  0
 23 25  1  0  0  0  0
 23 26  1  0  0  0  0
M  END
> <VConfSearch Rank>
834

> <Conf_Id>
127

> <Delta U+W>
3.544

> <U+W>
-26.754

> <U>
27.509

> <W>
-54.263

> <W(PB)>
-56.496

> <W(SA)>
2.232

> <Valence>
6.375

> <Coulomb>
20.014

> <VdW>
1.120

> <VdW6>
-8.976

> <VdW12>
10.096

> <Bond>
0.304

> <Angle>
1.986

> <Pdih>
4.086

> <Idih>
0.000

> <Tether>
0.000

$$$$
VeraChem MOL file


 26 25  0  0  0  0  0  0  0  0999 V2000     
   17.4819   17.0064   23.0589 C   0  0  0  0  0  0  0  0  0  0  0  0
   17.3153   15.9818   22.7021 H   0  0  0  0  0  0  0  0  0  0  0  0
   16.5480   17.3542   23.5192 H   0  0  0  0  0  0  0  0  0  0  0  0
   17.6801   17.6346   22.1836 H   0  0  0  0  0  0  0  0  0  0  0  0
   18.6451   17.0419   24.0775 C   0  0  0  0  0  0  0  0  0  0  0  0
   19.5573   16.6222   23.6311 H   0  0  0  0  0  0  0  0  0  0  0  0
   18.3840   16.3763   24.9122 H   0  0  0  0  0  0  0  0  0  0  0  0
   18.9236   18.4582   24.6439 C   0  0  0  0  0  0  0  0  0  0  0  0
   18.0015   19.0557   24.6445 H   0  0  0  0  0  0  0  0  0  0  0  0
   19.2076   18.3533   25.7002 H   0  0  0  0  0  0  0  0  0  0  0  0
   20.0612   19.2339   23.9307 C   0  0  0  0  0  0  0  0  0  0  0  0
   20.9977   18.6699   24.0338 H   0  0  0  0  0  0  0  0  0  0  0  0
   20.2095   20.1779   24.4702 H   0  0  0  0  0  0  0  0  0  0  0  0
   19.7866   19.5268   22.4315 C   0  0  0  0  0  0  0  0  0  0  0  0
   19.7374   18.5787   21.8826 H   0  0  0  0  0  0  0  0  0  0  0  0
   18.8003   19.9973   22.3252 H   0  0  0  0  0  0  0  0  0  0  0  0
   20.8432   20.4187   21.7372 C   0  0  1  0  0  0  0  0  0  0  0  0
   20.5711   20.4782   20.6787 H   0  0  0  0  0  0  0  0  0  0  0  0
   20.8492   21.8536   22.2933 C   0  0  0  0  0  0  0  0  0  0  0  0
   19.8412   22.2860   22.2682 H   0  0  0  0  0  0  0  0  0  0  0  0
   21.5008   22.4957   21.6881 H   0  0  0  0  0  0  0  0  0  0  0  0
   21.2130   21.8889   23.3268 H   0  0  0  0  0  0  0  0  0  0  0  0
   22.2211   19.8173   21.7802 N   0  3  0  0  0  0  0  0  0  0  0  0
   22.2350   18.8803   21.3675 H   0  0  0  0  0  0  0  0  0  0  0  0
   22.8953   20.3891   21.2637 H   0  0  0  0  0  0  0  0  0  0  0  0
   22.5605   19.7360   22.7417 H   0  0  0  0  0  0  0  0  0  0  0  0
  1  2  1  0  0  0  0
  1  3  1  0  0  0  0
  1  4  1  0  0  0  0
  1  5  1  0  0  0  0
  5  6  1  0  0  0  0
  5  7  1  0  0  0  0
  5  8  1  0  0  0  0
  8  9  1  0  0  0  0
  8 10  1  0  0  0  0
  8 11  1  0  0  0  0
 11 12  1  0  0  0  0
 11 13  1  0  0  0  0
 11 14  1  0  0  0  0
 14 15  1  0  0  0  0
 14 16  1  0  0  0  0
 14 17  1  0  0  0  0
 17 18  1  0  0  0  0
 17 19  1  0  0  0  0
 19 20  1  0  0  0  0
 19 21  1  0  0  0  0
 19 22  1  0  0  0  0
 17 23  1  0  0  0  0
 23 24  1  0  0  0  0
 23 25  1  0  0  0  0
 23 26  1  0  0  0  0
M  END
> <VConfSearch Rank>
835

> <Conf_Id>
131

> <Delta U+W>
3.589

> <U+W>
-26.710

> <U>
27.573

> <W>
-54.283

> <W(PB)>
-56.537

> <W(SA)>
2.254

> <Valence>
6.363

> <Coulomb>
20.026

> <VdW>
1.184

> <VdW6>
-8.939

> <VdW12>
10.123

> <Bond>
0.298

> <Angle>
2.018

> <Pdih>
4.047

> <Idih>
0.000

> <Tether>
0.000

$$$$
VeraChem MOL file


 26 25  0  0  0  0  0  0  0  0999 V2000     
   19.7875   21.8949   22.7093 C   0  0  0  0  0  0  0  0  0  0  0  0
   19.2761   21.7181   21.7543 H   0  0  0  0  0  0  0  0  0  0  0  0
   19.2793   21.3180   23.4916 H   0  0  0  0  0  0  0  0  0  0  0  0
   19.6730   22.9573   22.9602 H   0  0  0  0  0  0  0  0  0  0  0  0
   21.2829   21.5205   22.6190 C   0  0  0  0  0  0  0  0  0  0  0  0
   21.7481   21.6390   23.6075 H   0  0  0  0  0  0  0  0  0  0  0  0
   21.7866   22.2396   21.9580 H   0  0  0  0  0  0  0  0  0  0  0  0
   21.5535   20.0905   22.0852 C   0  0  0  0  0  0  0  0  0  0  0  0
   21.1899   19.9985   21.0526 H   0  0  0  0  0  0  0  0  0  0  0  0
   22.6431   19.9612   22.0270 H   0  0  0  0  0  0  0  0  0  0  0  0
   20.9785   18.9493   22.9648 C   0  0  0  0  0  0  0  0  0  0  0  0
   20.9556   19.2720   24.0135 H   0  0  0  0  0  0  0  0  0  0  0  0
   21.6705   18.0968   22.9227 H   0  0  0  0  0  0  0  0  0  0  0  0
   19.5817   18.4581   22.5005 C   0  0  0  0  0  0  0  0  0  0  0  0
   18.8496   19.2719   22.5461 H   0  0  0  0  0  0  0  0  0  0  0  0
   19.6515   18.1674   21.4441 H   0  0  0  0  0  0  0  0  0  0  0  0
   19.0526   17.2480   23.3037 C   0  0  1  0  0  0  0  0  0  0  0  0
   19.8184   16.4663   23.2919 H   0  0  0  0  0  0  0  0  0  0  0  0
   18.7499   17.6135   24.7682 C   0  0  0  0  0  0  0  0  0  0  0  0
   18.0303   18.4393   24.8305 H   0  0  0  0  0  0  0  0  0  0  0  0
   19.6597   17.9095   25.3027 H   0  0  0  0  0  0  0  0  0  0  0  0
   18.3269   16.7532   25.3013 H   0  0  0  0  0  0  0  0  0  0  0  0
   17.8328   16.6562   22.6535 N   0  3  0  0  0  0  0  0  0  0  0  0
   17.0604   17.3270   22.6254 H   0  0  0  0  0  0  0  0  0  0  0  0
   18.0225   16.3647   21.6903 H   0  0  0  0  0  0  0  0  0  0  0  0
   17.5019   15.8307   23.1610 H   0  0  0  0  0  0  0  0  0  0  0  0
  1  2  1  0  0  0  0
  1  3  1  0  0  0  0
  1  4  1  0  0  0  0
  1  5  1  0  0  0  0
  5  6  1  0  0  0  0
  5  7  1  0  0  0  0
  5  8  1  0  0  0  0
  8  9  1  0  0  0  0
  8 10  1  0  0  0  0
  8 11  1  0  0  0  0
 11 12  1  0  0  0  0
 11 13  1  0  0  0  0
 11 14  1  0  0  0  0
 14 15  1  0  0  0  0
 14 16  1  0  0  0  0
 14 17  1  0  0  0  0
 17 18  1  0  0  0  0
 17 19  1  0  0  0  0
 19 20  1  0  0  0  0
 19 21  1  0  0  0  0
 19 22  1  0  0  0  0
 17 23  1  0  0  0  0
 23 24  1  0  0  0  0
 23 25  1  0  0  0  0
 23 26  1  0  0  0  0
M  END
> <VConfSearch Rank>
836

> <Conf_Id>
80

> <Delta U+W>
3.351

> <U+W>
-26.948

> <U>
27.261

> <W>
-54.209

> <W(PB)>
-56.471

> <W(SA)>
2.263

> <Valence>
6.230

> <Coulomb>
19.945

> <VdW>
1.087

> <VdW6>
-8.618

> <VdW12>
9.704

> <Bond>
0.277

> <Angle>
1.928

> <Pdih>
4.025

> <Idih>
0.000

> <Tether>
0.000

$$$$
VeraChem MOL file


 26 25  0  0  0  0  0  0  0  0999 V2000     
   18.9298   20.3300   20.0508 C   0  0  0  0  0  0  0  0  0  0  0  0
   19.1792   21.2290   19.4725 H   0  0  0  0  0  0  0  0  0  0  0  0
   18.4270   19.6250   19.3762 H   0  0  0  0  0  0  0  0  0  0  0  0
   18.2189   20.6274   20.8318 H   0  0  0  0  0  0  0  0  0  0  0  0
   20.2065   19.7050   20.6569 C   0  0  0  0  0  0  0  0  0  0  0  0
   20.6754   20.4182   21.3471 H   0  0  0  0  0  0  0  0  0  0  0  0
   20.9377   19.5478   19.8517 H   0  0  0  0  0  0  0  0  0  0  0  0
   19.9592   18.3475   21.3651 C   0  0  0  0  0  0  0  0  0  0  0  0
   19.6411   17.6166   20.6090 H   0  0  0  0  0  0  0  0  0  0  0  0
   20.9163   17.9740   21.7465 H   0  0  0  0  0  0  0  0  0  0  0  0
   18.8970   18.3625   22.5007 C   0  0  0  0  0  0  0  0  0  0  0  0
   18.7496   17.3395   22.8734 H   0  0  0  0  0  0  0  0  0  0  0  0
   17.9299   18.6471   22.0657 H   0  0  0  0  0  0  0  0  0  0  0  0
   19.1979   19.3072   23.6982 C   0  0  0  0  0  0  0  0  0  0  0  0
   19.7455   20.1978   23.3705 H   0  0  0  0  0  0  0  0  0  0  0  0
   18.2346   19.6786   24.0718 H   0  0  0  0  0  0  0  0  0  0  0  0
   19.9266   18.6458   24.8929 C   0  0  1  0  0  0  0  0  0  0  0  0
   19.3208   17.8018   25.2370 H   0  0  0  0  0  0  0  0  0  0  0  0
   21.3224   18.1152   24.5264 C   0  0  0  0  0  0  0  0  0  0  0  0
   21.2489   17.2566   23.8499 H   0  0  0  0  0  0  0  0  0  0  0  0
   21.8539   17.7711   25.4222 H   0  0  0  0  0  0  0  0  0  0  0  0
   21.9306   18.8914   24.0456 H   0  0  0  0  0  0  0  0  0  0  0  0
   20.0223   19.5958   26.0547 N   0  3  0  0  0  0  0  0  0  0  0  0
   19.0989   19.9265   26.3489 H   0  0  0  0  0  0  0  0  0  0  0  0
   20.4586   19.1505   26.8669 H   0  0  0  0  0  0  0  0  0  0  0  0
   20.5835   20.4188   25.8197 H   0  0  0  0  0  0  0  0  0  0  0  0
  1  2  1  0  0  0  0
  1  3  1  0  0  0  0
  1  4  1  0  0  0  0
  1  5  1  0  0  0  0
  5  6  1  0  0  0  0
  5  7  1  0  0  0  0
  5  8  1  0  0  0  0
  8  9  1  0  0  0  0
  8 10  1  0  0  0  0
  8 11  1  0  0  0  0
 11 12  1  0  0  0  0
 11 13  1  0  0  0  0
 11 14  1  0  0  0  0
 14 15  1  0  0  0  0
 14 16  1  0  0  0  0
 14 17  1  0  0  0  0
 17 18  1  0  0  0  0
 17 19  1  0  0  0  0
 19 20  1  0  0  0  0
 19 21  1  0  0  0  0
 19 22  1  0  0  0  0
 17 23  1  0  0  0  0
 23 24  1  0  0  0  0
 23 25  1  0  0  0  0
 23 26  1  0  0  0  0
M  END
> <VConfSearch Rank>
837

> <Conf_Id>
136

> <Delta U+W>
4.272

> <U+W>
-26.026

> <U>
28.262

> <W>
-54.288

> <W(PB)>
-56.488

> <W(SA)>
2.200

> <Valence>
7.096

> <Coulomb>
19.990

> <VdW>
1.175

> <VdW6>
-9.404

> <VdW12>
10.580

> <Bond>
0.360

> <Angle>
2.785

> <Pdih>
3.951

> <Idih>
0.000

> <Tether>
0.000

$$$$
VeraChem MOL file


 26 25  0  0  0  0  0  0  0  0999 V2000     
   21.1465   19.9755   20.4591 C   0  0  0  0  0  0  0  0  0  0  0  0
   21.2976   19.0116   20.9604 H   0  0  0  0  0  0  0  0  0  0  0  0
   21.6718   19.9299   19.4964 H   0  0  0  0  0  0  0  0  0  0  0  0
   21.6183   20.7622   21.0619 H   0  0  0  0  0  0  0  0  0  0  0  0
   19.6454   20.2655   20.2410 C   0  0  0  0  0  0  0  0  0  0  0  0
   19.1911   19.4343   19.6838 H   0  0  0  0  0  0  0  0  0  0  0  0
   19.5477   21.1515   19.5982 H   0  0  0  0  0  0  0  0  0  0  0  0
   18.8462   20.5141   21.5458 C   0  0  0  0  0  0  0  0  0  0  0  0
   19.2294   21.4065   22.0595 H   0  0  0  0  0  0  0  0  0  0  0  0
   17.8140   20.7585   21.2589 H   0  0  0  0  0  0  0  0  0  0  0  0
   18.8046   19.3075   22.5195 C   0  0  0  0  0  0  0  0  0  0  0  0
   18.8977   18.3680   21.9573 H   0  0  0  0  0  0  0  0  0  0  0  0
   17.8134   19.2842   22.9915 H   0  0  0  0  0  0  0  0  0  0  0  0
   19.8822   19.3803   23.6325 C   0  0  0  0  0  0  0  0  0  0  0  0
   20.8722   19.5109   23.1814 H   0  0  0  0  0  0  0  0  0  0  0  0
   19.7086   20.2681   24.2550 H   0  0  0  0  0  0  0  0  0  0  0  0
   19.9095   18.1206   24.5251 C   0  0  1  0  0  0  0  0  0  0  0  0
   20.0586   17.2481   23.8814 H   0  0  0  0  0  0  0  0  0  0  0  0
   21.0814   18.1936   25.5171 C   0  0  0  0  0  0  0  0  0  0  0  0
   20.9793   19.0545   26.1896 H   0  0  0  0  0  0  0  0  0  0  0  0
   22.0369   18.2863   24.9859 H   0  0  0  0  0  0  0  0  0  0  0  0
   21.1286   17.2849   26.1298 H   0  0  0  0  0  0  0  0  0  0  0  0
   18.6125   17.9030   25.2558 N   0  3  0  0  0  0  0  0  0  0  0  0
   18.4006   18.6847   25.8813 H   0  0  0  0  0  0  0  0  0  0  0  0
   17.8283   17.8069   24.6053 H   0  0  0  0  0  0  0  0  0  0  0  0
   18.6425   17.0533   25.8264 H   0  0  0  0  0  0  0  0  0  0  0  0
  1  2  1  0  0  0  0
  1  3  1  0  0  0  0
  1  4  1  0  0  0  0
  1  5  1  0  0  0  0
  5  6  1  0  0  0  0
  5  7  1  0  0  0  0
  5  8  1  0  0  0  0
  8  9  1  0  0  0  0
  8 10  1  0  0  0  0
  8 11  1  0  0  0  0
 11 12  1  0  0  0  0
 11 13  1  0  0  0  0
 11 14  1  0  0  0  0
 14 15  1  0  0  0  0
 14 16  1  0  0  0  0
 14 17  1  0  0  0  0
 17 18  1  0  0  0  0
 17 19  1  0  0  0  0
 19 20  1  0  0  0  0
 19 21  1  0  0  0  0
 19 22  1  0  0  0  0
 17 23  1  0  0  0  0
 23 24  1  0  0  0  0
 23 25  1  0  0  0  0
 23 26  1  0  0  0  0
M  END
> <VConfSearch Rank>
838

> <Conf_Id>
124

> <Delta U+W>
3.001

> <U+W>
-27.298

> <U>
26.787

> <W>
-54.085

> <W(PB)>
-56.347

> <W(SA)>
2.262

> <Valence>
5.742

> <Coulomb>
20.023

> <VdW>
1.022

> <VdW6>
-8.392

> <VdW12>
9.414

> <Bond>
0.261

> <Angle>
1.576

> <Pdih>
3.904

> <Idih>
0.000

> <Tether>
0.000

$$$$
VeraChem MOL file


 26 25  0  0  0  0  0  0  0  0999 V2000     
   22.4138   21.0107   23.4049 C   0  0  0  0  0  0  0  0  0  0  0  0
   23.2169   20.8349   22.6776 H   0  0  0  0  0  0  0  0  0  0  0  0
   22.7732   21.7594   24.1226 H   0  0  0  0  0  0  0  0  0  0  0  0
   22.2469   20.0782   23.9548 H   0  0  0  0  0  0  0  0  0  0  0  0
   21.1309   21.5101   22.7002 C   0  0  0  0  0  0  0  0  0  0  0  0
   21.3684   22.4591   22.1993 H   0  0  0  0  0  0  0  0  0  0  0  0
   20.3548   21.7462   23.4415 H   0  0  0  0  0  0  0  0  0  0  0  0
   20.5822   20.5184   21.6420 C   0  0  0  0  0  0  0  0  0  0  0  0
   20.1594   21.1035   20.8136 H   0  0  0  0  0  0  0  0  0  0  0  0
   21.4046   19.9370   21.2028 H   0  0  0  0  0  0  0  0  0  0  0  0
   19.4700   19.5675   22.1549 C   0  0  0  0  0  0  0  0  0  0  0  0
   19.1085   18.9796   21.3012 H   0  0  0  0  0  0  0  0  0  0  0  0
   18.6174   20.1692   22.4968 H   0  0  0  0  0  0  0  0  0  0  0  0
   19.9256   18.6102   23.2879 C   0  0  0  0  0  0  0  0  0  0  0  0
   20.8645   18.1222   22.9955 H   0  0  0  0  0  0  0  0  0  0  0  0
   20.1479   19.1947   24.1891 H   0  0  0  0  0  0  0  0  0  0  0  0
   18.8996   17.5157   23.6657 C   0  0  1  0  0  0  0  0  0  0  0  0
   19.3414   16.9202   24.4707 H   0  0  0  0  0  0  0  0  0  0  0  0
   17.5856   18.1148   24.1967 C   0  0  0  0  0  0  0  0  0  0  0  0
   17.0400   18.6535   23.4127 H   0  0  0  0  0  0  0  0  0  0  0  0
   17.7801   18.8117   25.0214 H   0  0  0  0  0  0  0  0  0  0  0  0
   16.9293   17.3231   24.5783 H   0  0  0  0  0  0  0  0  0  0  0  0
   18.6377   16.5574   22.5362 N   0  3  0  0  0  0  0  0  0  0  0  0
   18.0069   15.8039   22.8235 H   0  0  0  0  0  0  0  0  0  0  0  0
   18.2064   17.0309   21.7387 H   0  0  0  0  0  0  0  0  0  0  0  0
   19.5032   16.1218   22.2050 H   0  0  0  0  0  0  0  0  0  0  0  0
  1  2  1  0  0  0  0
  1  3  1  0  0  0  0
  1  4  1  0  0  0  0
  1  5  1  0  0  0  0
  5  6  1  0  0  0  0
  5  7  1  0  0  0  0
  5  8  1  0  0  0  0
  8  9  1  0  0  0  0
  8 10  1  0  0  0  0
  8 11  1  0  0  0  0
 11 12  1  0  0  0  0
 11 13  1  0  0  0  0
 11 14  1  0  0  0  0
 14 15  1  0  0  0  0
 14 16  1  0  0  0  0
 14 17  1  0  0  0  0
 17 18  1  0  0  0  0
 17 19  1  0  0  0  0
 19 20  1  0  0  0  0
 19 21  1  0  0  0  0
 19 22  1  0  0  0  0
 17 23  1  0  0  0  0
 23 24  1  0  0  0  0
 23 25  1  0  0  0  0
 23 26  1  0  0  0  0
M  END
> <VConfSearch Rank>
839

> <Conf_Id>
105

> <Delta U+W>
3.442

> <U+W>
-26.857

> <U>
27.313

> <W>
-54.169

> <W(PB)>
-56.414

> <W(SA)>
2.245

> <Valence>
6.229

> <Coulomb>
19.943

> <VdW>
1.140

> <VdW6>
-9.001

> <VdW12>
10.140

> <Bond>
0.294

> <Angle>
1.969

> <Pdih>
3.967

> <Idih>
0.000

> <Tether>
0.000

$$$$
VeraChem MOL file


 26 25  0  0  0  0  0  0  0  0999 V2000     
   17.0556   20.5225   23.1344 C   0  0  0  0  0  0  0  0  0  0  0  0
   16.1821   19.8991   23.3655 H   0  0  0  0  0  0  0  0  0  0  0  0
   16.6895   21.5234   22.8716 H   0  0  0  0  0  0  0  0  0  0  0  0
   17.5428   20.1048   22.2468 H   0  0  0  0  0  0  0  0  0  0  0  0
   18.0147   20.5990   24.3453 C   0  0  0  0  0  0  0  0  0  0  0  0
   17.4675   21.0578   25.1807 H   0  0  0  0  0  0  0  0  0  0  0  0
   18.8532   21.2748   24.1264 H   0  0  0  0  0  0  0  0  0  0  0  0
   18.5429   19.2151   24.8036 C   0  0  0  0  0  0  0  0  0  0  0  0
   18.6495   19.2360   25.8971 H   0  0  0  0  0  0  0  0  0  0  0  0
   17.7976   18.4354   24.5947 H   0  0  0  0  0  0  0  0  0  0  0  0
   19.9179   18.8135   24.2099 C   0  0  0  0  0  0  0  0  0  0  0  0
   20.2214   17.8591   24.6620 H   0  0  0  0  0  0  0  0  0  0  0  0
   20.6698   19.5527   24.5169 H   0  0  0  0  0  0  0  0  0  0  0  0
   19.9263   18.6639   22.6686 C   0  0  0  0  0  0  0  0  0  0  0  0
   19.0771   18.0367   22.3664 H   0  0  0  0  0  0  0  0  0  0  0  0
   19.7850   19.6449   22.1981 H   0  0  0  0  0  0  0  0  0  0  0  0
   21.2291   18.0300   22.1352 C   0  0  1  0  0  0  0  0  0  0  0  0
   21.3650   17.0614   22.6262 H   0  0  0  0  0  0  0  0  0  0  0  0
   21.1266   17.7927   20.6200 C   0  0  0  0  0  0  0  0  0  0  0  0
   20.9915   18.7372   20.0782 H   0  0  0  0  0  0  0  0  0  0  0  0
   20.2773   17.1392   20.3844 H   0  0  0  0  0  0  0  0  0  0  0  0
   22.0345   17.3078   20.2406 H   0  0  0  0  0  0  0  0  0  0  0  0
   22.4448   18.8544   22.4602 N   0  3  0  0  0  0  0  0  0  0  0  0
   22.5488   18.9847   23.4700 H   0  0  0  0  0  0  0  0  0  0  0  0
   23.3013   18.4086   22.1194 H   0  0  0  0  0  0  0  0  0  0  0  0
   22.3916   19.7828   22.0331 H   0  0  0  0  0  0  0  0  0  0  0  0
  1  2  1  0  0  0  0
  1  3  1  0  0  0  0
  1  4  1  0  0  0  0
  1  5  1  0  0  0  0
  5  6  1  0  0  0  0
  5  7  1  0  0  0  0
  5  8  1  0  0  0  0
  8  9  1  0  0  0  0
  8 10  1  0  0  0  0
  8 11  1  0  0  0  0
 11 12  1  0  0  0  0
 11 13  1  0  0  0  0
 11 14  1  0  0  0  0
 14 15  1  0  0  0  0
 14 16  1  0  0  0  0
 14 17  1  0  0  0  0
 17 18  1  0  0  0  0
 17 19  1  0  0  0  0
 19 20  1  0  0  0  0
 19 21  1  0  0  0  0
 19 22  1  0  0  0  0
 17 23  1  0  0  0  0
 23 24  1  0  0  0  0
 23 25  1  0  0  0  0
 23 26  1  0  0  0  0
M  END
> <VConfSearch Rank>
840

> <Conf_Id>
107

> <Delta U+W>
2.995

> <U+W>
-27.304

> <U>
26.796

> <W>
-54.100

> <W(PB)>
-56.404

> <W(SA)>
2.304

> <Valence>
5.706

> <Coulomb>
20.107

> <VdW>
0.982

> <VdW6>
-8.396

> <VdW12>
9.378

> <Bond>
0.254

> <Angle>
1.644

> <Pdih>
3.808

> <Idih>
0.000

> <Tether>
0.000

$$$$
VeraChem MOL file


 26 25  0  0  0  0  0  0  0  0999 V2000     
   15.9098   18.2592   24.1485 C   0  0  0  0  0  0  0  0  0  0  0  0
   16.1498   17.8137   25.1227 H   0  0  0  0  0  0  0  0  0  0  0  0
   14.9552   18.7922   24.2477 H   0  0  0  0  0  0  0  0  0  0  0  0
   15.7677   17.4451   23.4259 H   0  0  0  0  0  0  0  0  0  0  0  0
   17.0257   19.2210   23.6882 C   0  0  0  0  0  0  0  0  0  0  0  0
   17.1211   20.0420   24.4127 H   0  0  0  0  0  0  0  0  0  0  0  0
   16.7418   19.6761   22.7290 H   0  0  0  0  0  0  0  0  0  0  0  0
   18.3814   18.4954   23.5407 C   0  0  0  0  0  0  0  0  0  0  0  0
   18.6586   18.0395   24.5013 H   0  0  0  0  0  0  0  0  0  0  0  0
   18.2806   17.6747   22.8169 H   0  0  0  0  0  0  0  0  0  0  0  0
   19.5018   19.4555   23.0806 C   0  0  0  0  0  0  0  0  0  0  0  0
   19.6039   20.2737   23.8071 H   0  0  0  0  0  0  0  0  0  0  0  0
   19.2140   19.9114   22.1240 H   0  0  0  0  0  0  0  0  0  0  0  0
   20.8587   18.7250   22.9323 C   0  0  0  0  0  0  0  0  0  0  0  0
   21.1012   18.2307   23.8826 H   0  0  0  0  0  0  0  0  0  0  0  0
   20.7727   17.9306   22.1789 H   0  0  0  0  0  0  0  0  0  0  0  0
   22.0167   19.6747   22.5560 C   0  0  1  0  0  0  0  0  0  0  0  0
   22.0665   20.4690   23.3072 H   0  0  0  0  0  0  0  0  0  0  0  0
   23.3540   18.9169   22.5660 C   0  0  0  0  0  0  0  0  0  0  0  0
   23.3571   18.1071   21.8257 H   0  0  0  0  0  0  0  0  0  0  0  0
   23.5462   18.4782   23.5531 H   0  0  0  0  0  0  0  0  0  0  0  0
   24.1858   19.5939   22.3355 H   0  0  0  0  0  0  0  0  0  0  0  0
   21.8018   20.3476   21.2276 N   0  3  0  0  0  0  0  0  0  0  0  0
   21.7413   19.6642   20.4683 H   0  0  0  0  0  0  0  0  0  0  0  0
   20.9367   20.8943   21.2206 H   0  0  0  0  0  0  0  0  0  0  0  0
   22.5694   20.9872   21.0037 H   0  0  0  0  0  0  0  0  0  0  0  0
  1  2  1  0  0  0  0
  1  3  1  0  0  0  0
  1  4  1  0  0  0  0
  1  5  1  0  0  0  0
  5  6  1  0  0  0  0
  5  7  1  0  0  0  0
  5  8  1  0  0  0  0
  8  9  1  0  0  0  0
  8 10  1  0  0  0  0
  8 11  1  0  0  0  0
 11 12  1  0  0  0  0
 11 13  1  0  0  0  0
 11 14  1  0  0  0  0
 14 15  1  0  0  0  0
 14 16  1  0  0  0  0
 14 17  1  0  0  0  0
 17 18  1  0  0  0  0
 17 19  1  0  0  0  0
 19 20  1  0  0  0  0
 19 21  1  0  0  0  0
 19 22  1  0  0  0  0
 17 23  1  0  0  0  0
 23 24  1  0  0  0  0
 23 25  1  0  0  0  0
 23 26  1  0  0  0  0
M  END
> <VConfSearch Rank>
841

> <Conf_Id>
122

> <Delta U+W>
0.000

> <U+W>
-30.299

> <U>
23.517

> <W>
-53.816

> <W(PB)>
-56.162

> <W(SA)>
2.346

> <Valence>
2.737

> <Coulomb>
19.862

> <VdW>
0.919

> <VdW6>
-6.793

> <VdW12>
7.712

> <Bond>
0.171

> <Angle>
0.873

> <Pdih>
1.693

> <Idih>
0.000

> <Tether>
0.000

$$$$
VeraChem MOL file


 26 25  0  0  0  0  0  0  0  0999 V2000     
   15.9130   20.1498   21.7652 C   0  0  0  0  0  0  0  0  0  0  0  0
   15.4254   20.6757   20.9341 H   0  0  0  0  0  0  0  0  0  0  0  0
   15.4826   19.1417   21.8249 H   0  0  0  0  0  0  0  0  0  0  0  0
   15.6656   20.6828   22.6926 H   0  0  0  0  0  0  0  0  0  0  0  0
   17.4402   20.0893   21.5506 C   0  0  0  0  0  0  0  0  0  0  0  0
   17.8363   21.1106   21.4608 H   0  0  0  0  0  0  0  0  0  0  0  0
   17.6549   19.5813   20.5999 H   0  0  0  0  0  0  0  0  0  0  0  0
   18.1518   19.3534   22.7076 C   0  0  0  0  0  0  0  0  0  0  0  0
   17.9328   19.8637   23.6558 H   0  0  0  0  0  0  0  0  0  0  0  0
   17.7496   18.3345   22.7948 H   0  0  0  0  0  0  0  0  0  0  0  0
   19.6816   19.2904   22.4961 C   0  0  0  0  0  0  0  0  0  0  0  0
   20.0710   20.3125   22.4018 H   0  0  0  0  0  0  0  0  0  0  0  0
   19.8998   18.7757   21.5500 H   0  0  0  0  0  0  0  0  0  0  0  0
   20.3923   18.5560   23.6596 C   0  0  0  0  0  0  0  0  0  0  0  0
   20.2306   19.1041   24.5973 H   0  0  0  0  0  0  0  0  0  0  0  0
   19.9233   17.5717   23.7897 H   0  0  0  0  0  0  0  0  0  0  0  0
   21.9075   18.3490   23.4329 C   0  0  1  0  0  0  0  0  0  0  0  0
   22.0444   17.8393   22.4743 H   0  0  0  0  0  0  0  0  0  0  0  0
   22.6757   19.6823   23.3898 C   0  0  0  0  0  0  0  0  0  0  0  0
   22.5170   20.2617   24.3078 H   0  0  0  0  0  0  0  0  0  0  0  0
   22.3627   20.2959   22.5372 H   0  0  0  0  0  0  0  0  0  0  0  0
   23.7527   19.5042   23.2822 H   0  0  0  0  0  0  0  0  0  0  0  0
   22.4940   17.4447   24.4813 N   0  3  0  0  0  0  0  0  0  0  0  0
   22.4090   17.8512   25.4167 H   0  0  0  0  0  0  0  0  0  0  0  0
   22.0266   16.5337   24.4983 H   0  0  0  0  0  0  0  0  0  0  0  0
   23.4891   17.2724   24.3126 H   0  0  0  0  0  0  0  0  0  0  0  0
  1  2  1  0  0  0  0
  1  3  1  0  0  0  0
  1  4  1  0  0  0  0
  1  5  1  0  0  0  0
  5  6  1  0  0  0  0
  5  7  1  0  0  0  0
  5  8  1  0  0  0  0
  8  9  1  0  0  0  0
  8 10  1  0  0  0  0
  8 11  1  0  0  0  0
 11 12  1  0  0  0  0
 11 13  1  0  0  0  0
 11 14  1  0  0  0  0
 14 15  1  0  0  0  0
 14 16  1  0  0  0  0
 14 17  1  0  0  0  0
 17 18  1  0  0  0  0
 17 19  1  0  0  0  0
 19 20  1  0  0  0  0
 19 21  1  0  0  0  0
 19 22  1  0  0  0  0
 17 23  1  0  0  0  0
 23 24  1  0  0  0  0
 23 25  1  0  0  0  0
 23 26  1  0  0  0  0
M  END
> <VConfSearch Rank>
842

> <Conf_Id>
54

> <Delta U+W>
0.453

> <U+W>
-29.845

> <U>
23.817

> <W>
-53.663

> <W(PB)>
-56.021

> <W(SA)>
2.358

> <Valence>
3.277

> <Coulomb>
19.492

> <VdW>
1.049

> <VdW6>
-6.949

> <VdW12>
7.998

> <Bond>
0.183

> <Angle>
1.152

> <Pdih>
1.942

> <Idih>
0.000

> <Tether>
0.000

$$$$
VeraChem MOL file


 26 25  0  0  0  0  0  0  0  0999 V2000     
   18.8960   21.2920   20.1787 C   0  0  0  0  0  0  0  0  0  0  0  0
   19.9299   21.6512   20.0950 H   0  0  0  0  0  0  0  0  0  0  0  0
   18.8217   20.3322   19.6532 H   0  0  0  0  0  0  0  0  0  0  0  0
   18.2498   22.0057   19.6515 H   0  0  0  0  0  0  0  0  0  0  0  0
   18.4684   21.1685   21.6591 C   0  0  0  0  0  0  0  0  0  0  0  0
   17.4438   20.7752   21.7183 H   0  0  0  0  0  0  0  0  0  0  0  0
   18.4363   22.1751   22.0991 H   0  0  0  0  0  0  0  0  0  0  0  0
   19.4188   20.2889   22.5075 C   0  0  0  0  0  0  0  0  0  0  0  0
   20.4456   20.6699   22.4193 H   0  0  0  0  0  0  0  0  0  0  0  0
   19.1225   20.4030   23.5570 H   0  0  0  0  0  0  0  0  0  0  0  0
   19.3755   18.7880   22.1242 C   0  0  0  0  0  0  0  0  0  0  0  0
   19.5456   18.6838   21.0453 H   0  0  0  0  0  0  0  0  0  0  0  0
   18.3681   18.3921   22.3130 H   0  0  0  0  0  0  0  0  0  0  0  0
   20.4224   17.8999   22.8474 C   0  0  0  0  0  0  0  0  0  0  0  0
   20.3480   16.8955   22.4094 H   0  0  0  0  0  0  0  0  0  0  0  0
   21.4379   18.2499   22.6196 H   0  0  0  0  0  0  0  0  0  0  0  0
   20.2345   17.7862   24.3791 C   0  0  1  0  0  0  0  0  0  0  0  0
   19.1621   17.7437   24.5935 H   0  0  0  0  0  0  0  0  0  0  0  0
   20.8813   16.4935   24.9041 C   0  0  0  0  0  0  0  0  0  0  0  0
   20.7384   16.3995   25.9877 H   0  0  0  0  0  0  0  0  0  0  0  0
   21.9590   16.4772   24.6984 H   0  0  0  0  0  0  0  0  0  0  0  0
   20.4298   15.6112   24.4335 H   0  0  0  0  0  0  0  0  0  0  0  0
   20.7911   18.9686   25.1248 N   0  3  0  0  0  0  0  0  0  0  0  0
   20.3738   19.8450   24.8042 H   0  0  0  0  0  0  0  0  0  0  0  0
   20.6153   18.8925   26.1307 H   0  0  0  0  0  0  0  0  0  0  0  0
   21.8036   19.0451   24.9969 H   0  0  0  0  0  0  0  0  0  0  0  0
  1  2  1  0  0  0  0
  1  3  1  0  0  0  0
  1  4  1  0  0  0  0
  1  5  1  0  0  0  0
  5  6  1  0  0  0  0
  5  7  1  0  0  0  0
  5  8  1  0  0  0  0
  8  9  1  0  0  0  0
  8 10  1  0  0  0  0
  8 11  1  0  0  0  0
 11 12  1  0  0  0  0
 11 13  1  0  0  0  0
 11 14  1  0  0  0  0
 14 15  1  0  0  0  0
 14 16  1  0  0  0  0
 14 17  1  0  0  0  0
 17 18  1  0  0  0  0
 17 19  1  0  0  0  0
 19 20  1  0  0  0  0
 19 21  1  0  0  0  0
 19 22  1  0  0  0  0
 17 23  1  0  0  0  0
 23 24  1  0  0  0  0
 23 25  1  0  0  0  0
 23 26  1  0  0  0  0
M  END
> <VConfSearch Rank>
843

> <Conf_Id>
110

> <Delta U+W>
3.764

> <U+W>
-26.535

> <U>
27.400

> <W>
-53.935

> <W(PB)>
-56.238

> <W(SA)>
2.303

> <Valence>
5.205

> <Coulomb>
21.096

> <VdW>
1.098

> <VdW6>
-8.389

> <VdW12>
9.488

> <Bond>
0.270

> <Angle>
1.912

> <Pdih>
3.023

> <Idih>
0.000

> <Tether>
0.000

$$$$
VeraChem MOL file


 26 25  0  0  0  0  0  0  0  0999 V2000     
   22.4423   16.5755   22.8232 C   0  0  0  0  0  0  0  0  0  0  0  0
   23.3500   16.1761   22.3527 H   0  0  0  0  0  0  0  0  0  0  0  0
   22.7570   17.2046   23.6651 H   0  0  0  0  0  0  0  0  0  0  0  0
   21.8700   15.7277   23.2216 H   0  0  0  0  0  0  0  0  0  0  0  0
   21.6085   17.3758   21.7970 C   0  0  0  0  0  0  0  0  0  0  0  0
   21.4224   16.7407   20.9197 H   0  0  0  0  0  0  0  0  0  0  0  0
   22.1920   18.2344   21.4365 H   0  0  0  0  0  0  0  0  0  0  0  0
   20.2496   17.8642   22.3540 C   0  0  0  0  0  0  0  0  0  0  0  0
   19.6828   18.3171   21.5318 H   0  0  0  0  0  0  0  0  0  0  0  0
   19.6603   16.9988   22.6872 H   0  0  0  0  0  0  0  0  0  0  0  0
   20.3906   18.8741   23.5221 C   0  0  0  0  0  0  0  0  0  0  0  0
   21.0879   19.6793   23.2524 H   0  0  0  0  0  0  0  0  0  0  0  0
   20.8420   18.3554   24.3782 H   0  0  0  0  0  0  0  0  0  0  0  0
   19.0353   19.4745   23.9814 C   0  0  0  0  0  0  0  0  0  0  0  0
   18.2159   18.7766   23.7641 H   0  0  0  0  0  0  0  0  0  0  0  0
   19.0645   19.5694   25.0750 H   0  0  0  0  0  0  0  0  0  0  0  0
   18.7152   20.8736   23.4017 C   0  0  1  0  0  0  0  0  0  0  0  0
   19.5304   21.5498   23.6769 H   0  0  0  0  0  0  0  0  0  0  0  0
   18.5919   20.8714   21.8686 C   0  0  0  0  0  0  0  0  0  0  0  0
   17.8426   20.1448   21.5308 H   0  0  0  0  0  0  0  0  0  0  0  0
   19.5512   20.6287   21.3969 H   0  0  0  0  0  0  0  0  0  0  0  0
   18.2946   21.8620   21.5030 H   0  0  0  0  0  0  0  0  0  0  0  0
   17.4689   21.4418   24.0220 N   0  3  0  0  0  0  0  0  0  0  0  0
   17.5468   21.4990   25.0414 H   0  0  0  0  0  0  0  0  0  0  0  0
   17.2775   22.3871   23.6783 H   0  0  0  0  0  0  0  0  0  0  0  0
   16.6491   20.8676   23.8080 H   0  0  0  0  0  0  0  0  0  0  0  0
  1  2  1  0  0  0  0
  1  3  1  0  0  0  0
  1  4  1  0  0  0  0
  1  5  1  0  0  0  0
  5  6  1  0  0  0  0
  5  7  1  0  0  0  0
  5  8  1  0  0  0  0
  8  9  1  0  0  0  0
  8 10  1  0  0  0  0
  8 11  1  0  0  0  0
 11 12  1  0  0  0  0
 11 13  1  0  0  0  0
 11 14  1  0  0  0  0
 14 15  1  0  0  0  0
 14 16  1  0  0  0  0
 14 17  1  0  0  0  0
 17 18  1  0  0  0  0
 17 19  1  0  0  0  0
 19 20  1  0  0  0  0
 19 21  1  0  0  0  0
 19 22  1  0  0  0  0
 17 23  1  0  0  0  0
 23 24  1  0  0  0  0
 23 25  1  0  0  0  0
 23 26  1  0  0  0  0
M  END
> <VConfSearch Rank>
844

> <Conf_Id>
34

> <Delta U+W>
3.568

> <U+W>
-26.731

> <U>
27.221

> <W>
-53.952

> <W(PB)>
-56.213

> <W(SA)>
2.261

> <Valence>
6.368

> <Coulomb>
19.698

> <VdW>
1.155

> <VdW6>
-8.532

> <VdW12>
9.687

> <Bond>
0.272

> <Angle>
1.847

> <Pdih>
4.248

> <Idih>
0.000

> <Tether>
0.000

$$$$
VeraChem MOL file


 26 25  0  0  0  0  0  0  0  0999 V2000     
   16.7682   21.1529   21.1851 C   0  0  0  0  0  0  0  0  0  0  0  0
   17.3235   21.5898   20.3448 H   0  0  0  0  0  0  0  0  0  0  0  0
   16.1999   20.2922   20.8089 H   0  0  0  0  0  0  0  0  0  0  0  0
   16.0489   21.9026   21.5398 H   0  0  0  0  0  0  0  0  0  0  0  0
   17.7231   20.7329   22.3226 C   0  0  0  0  0  0  0  0  0  0  0  0
   17.1368   20.3318   23.1612 H   0  0  0  0  0  0  0  0  0  0  0  0
   18.2516   21.6193   22.7007 H   0  0  0  0  0  0  0  0  0  0  0  0
   18.7469   19.6773   21.8495 C   0  0  0  0  0  0  0  0  0  0  0  0
   18.2134   18.7947   21.4703 H   0  0  0  0  0  0  0  0  0  0  0  0
   19.3284   20.0822   21.0097 H   0  0  0  0  0  0  0  0  0  0  0  0
   19.7054   19.2541   22.9857 C   0  0  0  0  0  0  0  0  0  0  0  0
   19.1176   18.8525   23.8217 H   0  0  0  0  0  0  0  0  0  0  0  0
   20.2294   20.1432   23.3604 H   0  0  0  0  0  0  0  0  0  0  0  0
   20.7322   18.1966   22.5032 C   0  0  0  0  0  0  0  0  0  0  0  0
   20.1938   17.3353   22.0864 H   0  0  0  0  0  0  0  0  0  0  0  0
   21.3210   18.6137   21.6755 H   0  0  0  0  0  0  0  0  0  0  0  0
   21.7024   17.6846   23.5942 C   0  0  1  0  0  0  0  0  0  0  0  0
   22.3445   16.9299   23.1295 H   0  0  0  0  0  0  0  0  0  0  0  0
   22.6131   18.8030   24.1302 C   0  0  0  0  0  0  0  0  0  0  0  0
   22.0464   19.5517   24.6963 H   0  0  0  0  0  0  0  0  0  0  0  0
   23.1306   19.3124   23.3078 H   0  0  0  0  0  0  0  0  0  0  0  0
   23.3782   18.3876   24.7975 H   0  0  0  0  0  0  0  0  0  0  0  0
   20.9866   16.9872   24.7183 N   0  3  0  0  0  0  0  0  0  0  0  0
   21.6464   16.5998   25.3987 H   0  0  0  0  0  0  0  0  0  0  0  0
   20.3693   17.6294   25.2211 H   0  0  0  0  0  0  0  0  0  0  0  0
   20.4121   16.2125   24.3745 H   0  0  0  0  0  0  0  0  0  0  0  0
  1  2  1  0  0  0  0
  1  3  1  0  0  0  0
  1  4  1  0  0  0  0
  1  5  1  0  0  0  0
  5  6  1  0  0  0  0
  5  7  1  0  0  0  0
  5  8  1  0  0  0  0
  8  9  1  0  0  0  0
  8 10  1  0  0  0  0
  8 11  1  0  0  0  0
 11 12  1  0  0  0  0
 11 13  1  0  0  0  0
 11 14  1  0  0  0  0
 14 15  1  0  0  0  0
 14 16  1  0  0  0  0
 14 17  1  0  0  0  0
 17 18  1  0  0  0  0
 17 19  1  0  0  0  0
 19 20  1  0  0  0  0
 19 21  1  0  0  0  0
 19 22  1  0  0  0  0
 17 23  1  0  0  0  0
 23 24  1  0  0  0  0
 23 25  1  0  0  0  0
 23 26  1  0  0  0  0
M  END
> <VConfSearch Rank>
845

> <Conf_Id>
132

> <Delta U+W>
0.363

> <U+W>
-29.936

> <U>
24.060

> <W>
-53.996

> <W(PB)>
-56.327

> <W(SA)>
2.332

> <Valence>
3.249

> <Coulomb>
19.781

> <VdW>
1.030

> <VdW6>
-7.421

> <VdW12>
8.451

> <Bond>
0.207

> <Angle>
1.205

> <Pdih>
1.837

> <Idih>
0.000

> <Tether>
0.000

$$$$
VeraChem MOL file


 26 25  0  0  0  0  0  0  0  0999 V2000     
   20.8493   15.3240   22.9468 C   0  0  0  0  0  0  0  0  0  0  0  0
   21.7192   14.9121   22.4190 H   0  0  0  0  0  0  0  0  0  0  0  0
   20.8977   14.9861   23.9902 H   0  0  0  0  0  0  0  0  0  0  0  0
   19.9458   14.8985   22.4911 H   0  0  0  0  0  0  0  0  0  0  0  0
   20.8399   16.8651   22.8618 C   0  0  0  0  0  0  0  0  0  0  0  0
   20.8335   17.1624   21.8049 H   0  0  0  0  0  0  0  0  0  0  0  0
   21.7680   17.2593   23.2988 H   0  0  0  0  0  0  0  0  0  0  0  0
   19.6189   17.4687   23.5958 C   0  0  0  0  0  0  0  0  0  0  0  0
   18.6913   17.1174   23.1232 H   0  0  0  0  0  0  0  0  0  0  0  0
   19.6012   17.0896   24.6270 H   0  0  0  0  0  0  0  0  0  0  0  0
   19.6243   19.0166   23.6437 C   0  0  0  0  0  0  0  0  0  0  0  0
   20.5507   19.3594   24.1231 H   0  0  0  0  0  0  0  0  0  0  0  0
   18.8010   19.3360   24.2953 H   0  0  0  0  0  0  0  0  0  0  0  0
   19.4679   19.6772   22.2464 C   0  0  0  0  0  0  0  0  0  0  0  0
   20.3073   19.3838   21.6045 H   0  0  0  0  0  0  0  0  0  0  0  0
   18.5636   19.2888   21.7596 H   0  0  0  0  0  0  0  0  0  0  0  0
   19.4002   21.2229   22.2614 C   0  0  1  0  0  0  0  0  0  0  0  0
   19.3477   21.5548   21.2198 H   0  0  0  0  0  0  0  0  0  0  0  0
   18.1407   21.7429   22.9765 C   0  0  0  0  0  0  0  0  0  0  0  0
   18.1697   21.5374   24.0530 H   0  0  0  0  0  0  0  0  0  0  0  0
   17.2370   21.2796   22.5615 H   0  0  0  0  0  0  0  0  0  0  0  0
   18.0472   22.8280   22.8462 H   0  0  0  0  0  0  0  0  0  0  0  0
   20.6427   21.8466   22.8353 N   0  3  0  0  0  0  0  0  0  0  0  0
   21.4819   21.5416   22.3342 H   0  0  0  0  0  0  0  0  0  0  0  0
   20.6081   22.8684   22.7803 H   0  0  0  0  0  0  0  0  0  0  0  0
   20.7631   21.5962   23.8197 H   0  0  0  0  0  0  0  0  0  0  0  0
  1  2  1  0  0  0  0
  1  3  1  0  0  0  0
  1  4  1  0  0  0  0
  1  5  1  0  0  0  0
  5  6  1  0  0  0  0
  5  7  1  0  0  0  0
  5  8  1  0  0  0  0
  8  9  1  0  0  0  0
  8 10  1  0  0  0  0
  8 11  1  0  0  0  0
 11 12  1  0  0  0  0
 11 13  1  0  0  0  0
 11 14  1  0  0  0  0
 14 15  1  0  0  0  0
 14 16  1  0  0  0  0
 14 17  1  0  0  0  0
 17 18  1  0  0  0  0
 17 19  1  0  0  0  0
 19 20  1  0  0  0  0
 19 21  1  0  0  0  0
 19 22  1  0  0  0  0
 17 23  1  0  0  0  0
 23 24  1  0  0  0  0
 23 25  1  0  0  0  0
 23 26  1  0  0  0  0
M  END
> <VConfSearch Rank>
846

> <Conf_Id>
46

> <Delta U+W>
1.114

> <U+W>
-29.185

> <U>
24.990

> <W>
-54.175

> <W(PB)>
-56.455

> <W(SA)>
2.279

> <Valence>
3.862

> <Coulomb>
19.956

> <VdW>
1.172

> <VdW6>
-8.054

> <VdW12>
9.226

> <Bond>
0.258

> <Angle>
1.499

> <Pdih>
2.106

> <Idih>
0.000

> <Tether>
0.000

$$$$
VeraChem MOL file


 26 25  0  0  0  0  0  0  0  0999 V2000     
   21.7707   21.8847   21.4864 C   0  0  0  0  0  0  0  0  0  0  0  0
   20.7470   22.2350   21.3058 H   0  0  0  0  0  0  0  0  0  0  0  0
   22.1182   22.3106   22.4365 H   0  0  0  0  0  0  0  0  0  0  0  0
   22.4030   22.2900   20.6859 H   0  0  0  0  0  0  0  0  0  0  0  0
   21.8487   20.3412   21.5073 C   0  0  0  0  0  0  0  0  0  0  0  0
   22.9049   20.0424   21.5617 H   0  0  0  0  0  0  0  0  0  0  0  0
   21.4642   19.9385   20.5599 H   0  0  0  0  0  0  0  0  0  0  0  0
   21.0911   19.7005   22.6954 C   0  0  0  0  0  0  0  0  0  0  0  0
   21.3115   18.6250   22.6984 H   0  0  0  0  0  0  0  0  0  0  0  0
   21.4863   20.0998   23.6396 H   0  0  0  0  0  0  0  0  0  0  0  0
   19.5576   19.9180   22.6375 C   0  0  0  0  0  0  0  0  0  0  0  0
   19.1645   19.5458   21.6823 H   0  0  0  0  0  0  0  0  0  0  0  0
   19.3397   20.9937   22.6571 H   0  0  0  0  0  0  0  0  0  0  0  0
   18.8014   19.2557   23.8181 C   0  0  0  0  0  0  0  0  0  0  0  0
   19.1477   19.7079   24.7570 H   0  0  0  0  0  0  0  0  0  0  0  0
   17.7332   19.4974   23.7380 H   0  0  0  0  0  0  0  0  0  0  0  0
   18.9713   17.7221   23.9051 C   0  0  1  0  0  0  0  0  0  0  0  0
   20.0367   17.4980   24.0106 H   0  0  0  0  0  0  0  0  0  0  0  0
   18.2432   17.1731   25.1423 C   0  0  0  0  0  0  0  0  0  0  0  0
   18.3931   16.0901   25.2323 H   0  0  0  0  0  0  0  0  0  0  0  0
   17.1644   17.3653   25.0865 H   0  0  0  0  0  0  0  0  0  0  0  0
   18.6263   17.6392   26.0586 H   0  0  0  0  0  0  0  0  0  0  0  0
   18.5025   17.0210   22.6597 N   0  3  0  0  0  0  0  0  0  0  0  0
   19.0090   17.3520   21.8341 H   0  0  0  0  0  0  0  0  0  0  0  0
   18.6450   16.0090   22.7228 H   0  0  0  0  0  0  0  0  0  0  0  0
   17.5052   17.1806   22.4947 H   0  0  0  0  0  0  0  0  0  0  0  0
  1  2  1  0  0  0  0
  1  3  1  0  0  0  0
  1  4  1  0  0  0  0
  1  5  1  0  0  0  0
  5  6  1  0  0  0  0
  5  7  1  0  0  0  0
  5  8  1  0  0  0  0
  8  9  1  0  0  0  0
  8 10  1  0  0  0  0
  8 11  1  0  0  0  0
 11 12  1  0  0  0  0
 11 13  1  0  0  0  0
 11 14  1  0  0  0  0
 14 15  1  0  0  0  0
 14 16  1  0  0  0  0
 14 17  1  0  0  0  0
 17 18  1  0  0  0  0
 17 19  1  0  0  0  0
 19 20  1  0  0  0  0
 19 21  1  0  0  0  0
 19 22  1  0  0  0  0
 17 23  1  0  0  0  0
 23 24  1  0  0  0  0
 23 25  1  0  0  0  0
 23 26  1  0  0  0  0
M  END
> <VConfSearch Rank>
847

> <Conf_Id>
113

> <Delta U+W>
1.137

> <U+W>
-29.162

> <U>
24.833

> <W>
-53.995

> <W(PB)>
-56.288

> <W(SA)>
2.294

> <Valence>
3.589

> <Coulomb>
20.270

> <VdW>
0.974

> <VdW6>
-8.255

> <VdW12>
9.229

> <Bond>
0.244

> <Angle>
1.377

> <Pdih>
1.967

> <Idih>
0.000

> <Tether>
0.000

$$$$
VeraChem MOL file


 26 25  0  0  0  0  0  0  0  0999 V2000     
   20.0270   16.1535   25.4896 C   0  0  0  0  0  0  0  0  0  0  0  0
   19.7047   15.1260   25.2766 H   0  0  0  0  0  0  0  0  0  0  0  0
   21.1129   16.1396   25.6504 H   0  0  0  0  0  0  0  0  0  0  0  0
   19.5469   16.4700   26.4248 H   0  0  0  0  0  0  0  0  0  0  0  0
   19.6509   17.0950   24.3258 C   0  0  0  0  0  0  0  0  0  0  0  0
   18.5635   17.0651   24.1703 H   0  0  0  0  0  0  0  0  0  0  0  0
   20.1154   16.7229   23.4031 H   0  0  0  0  0  0  0  0  0  0  0  0
   20.0997   18.5496   24.6017 C   0  0  0  0  0  0  0  0  0  0  0  0
   19.6890   18.8720   25.5685 H   0  0  0  0  0  0  0  0  0  0  0  0
   21.1931   18.5869   24.7042 H   0  0  0  0  0  0  0  0  0  0  0  0
   19.6447   19.5556   23.5159 C   0  0  0  0  0  0  0  0  0  0  0  0
   19.9025   20.5664   23.8579 H   0  0  0  0  0  0  0  0  0  0  0  0
   18.5500   19.5248   23.4353 H   0  0  0  0  0  0  0  0  0  0  0  0
   20.2909   19.2966   22.1274 C   0  0  0  0  0  0  0  0  0  0  0  0
   21.3801   19.2225   22.2436 H   0  0  0  0  0  0  0  0  0  0  0  0
   19.9598   18.3247   21.7410 H   0  0  0  0  0  0  0  0  0  0  0  0
   19.9846   20.3719   21.0580 C   0  0  1  0  0  0  0  0  0  0  0  0
   20.5028   20.0748   20.1410 H   0  0  0  0  0  0  0  0  0  0  0  0
   18.4820   20.4555   20.7373 C   0  0  0  0  0  0  0  0  0  0  0  0
   17.9065   20.8384   21.5884 H   0  0  0  0  0  0  0  0  0  0  0  0
   18.0849   19.4685   20.4695 H   0  0  0  0  0  0  0  0  0  0  0  0
   18.3081   21.1258   19.8866 H   0  0  0  0  0  0  0  0  0  0  0  0
   20.5334   21.7231   21.4262 N   0  3  0  0  0  0  0  0  0  0  0  0
   21.5417   21.6844   21.5998 H   0  0  0  0  0  0  0  0  0  0  0  0
   20.3780   22.4061   20.6794 H   0  0  0  0  0  0  0  0  0  0  0  0
   20.0887   22.0876   22.2722 H   0  0  0  0  0  0  0  0  0  0  0  0
  1  2  1  0  0  0  0
  1  3  1  0  0  0  0
  1  4  1  0  0  0  0
  1  5  1  0  0  0  0
  5  6  1  0  0  0  0
  5  7  1  0  0  0  0
  5  8  1  0  0  0  0
  8  9  1  0  0  0  0
  8 10  1  0  0  0  0
  8 11  1  0  0  0  0
 11 12  1  0  0  0  0
 11 13  1  0  0  0  0
 11 14  1  0  0  0  0
 14 15  1  0  0  0  0
 14 16  1  0  0  0  0
 14 17  1  0  0  0  0
 17 18  1  0  0  0  0
 17 19  1  0  0  0  0
 19 20  1  0  0  0  0
 19 21  1  0  0  0  0
 19 22  1  0  0  0  0
 17 23  1  0  0  0  0
 23 24  1  0  0  0  0
 23 25  1  0  0  0  0
 23 26  1  0  0  0  0
M  END
> <VConfSearch Rank>
848

> <Conf_Id>
45

> <Delta U+W>
1.035

> <U+W>
-29.264

> <U>
24.725

> <W>
-53.989

> <W(PB)>
-56.298

> <W(SA)>
2.309

> <Valence>
3.780

> <Coulomb>
19.804

> <VdW>
1.141

> <VdW6>
-8.104

> <VdW12>
9.246

> <Bond>
0.254

> <Angle>
1.437

> <Pdih>
2.089

> <Idih>
0.000

> <Tether>
0.000

$$$$
VeraChem MOL file


 26 25  0  0  0  0  0  0  0  0999 V2000     
   17.3016   16.0603   22.6579 C   0  0  0  0  0  0  0  0  0  0  0  0
   17.4528   15.0997   23.1672 H   0  0  0  0  0  0  0  0  0  0  0  0
   16.2594   16.3658   22.8182 H   0  0  0  0  0  0  0  0  0  0  0  0
   17.4488   15.8982   21.5821 H   0  0  0  0  0  0  0  0  0  0  0  0
   18.2817   17.1235   23.1976 C   0  0  0  0  0  0  0  0  0  0  0  0
   19.3091   16.7630   23.0570 H   0  0  0  0  0  0  0  0  0  0  0  0
   18.1301   17.2421   24.2796 H   0  0  0  0  0  0  0  0  0  0  0  0
   18.0900   18.4862   22.4904 C   0  0  0  0  0  0  0  0  0  0  0  0
   18.2970   18.3790   21.4167 H   0  0  0  0  0  0  0  0  0  0  0  0
   17.0352   18.7833   22.5720 H   0  0  0  0  0  0  0  0  0  0  0  0
   18.9645   19.6215   23.0776 C   0  0  0  0  0  0  0  0  0  0  0  0
   18.7549   19.7285   24.1510 H   0  0  0  0  0  0  0  0  0  0  0  0
   18.6562   20.5643   22.6071 H   0  0  0  0  0  0  0  0  0  0  0  0
   20.4848   19.4073   22.8607 C   0  0  0  0  0  0  0  0  0  0  0  0
   20.7939   18.4767   23.3525 H   0  0  0  0  0  0  0  0  0  0  0  0
   20.6936   19.2819   21.7899 H   0  0  0  0  0  0  0  0  0  0  0  0
   21.3421   20.5617   23.4245 C   0  0  1  0  0  0  0  0  0  0  0  0
   21.0906   20.6907   24.4817 H   0  0  0  0  0  0  0  0  0  0  0  0
   22.8365   20.2161   23.3232 C   0  0  0  0  0  0  0  0  0  0  0  0
   23.1417   20.0759   22.2786 H   0  0  0  0  0  0  0  0  0  0  0  0
   23.0616   19.2929   23.8717 H   0  0  0  0  0  0  0  0  0  0  0  0
   23.4503   21.0166   23.7542 H   0  0  0  0  0  0  0  0  0  0  0  0
   21.0596   21.8756   22.7480 N   0  3  0  0  0  0  0  0  0  0  0  0
   20.0772   22.1445   22.8471 H   0  0  0  0  0  0  0  0  0  0  0  0
   21.6247   22.6306   23.1467 H   0  0  0  0  0  0  0  0  0  0  0  0
   21.2683   21.8327   21.7470 H   0  0  0  0  0  0  0  0  0  0  0  0
  1  2  1  0  0  0  0
  1  3  1  0  0  0  0
  1  4  1  0  0  0  0
  1  5  1  0  0  0  0
  5  6  1  0  0  0  0
  5  7  1  0  0  0  0
  5  8  1  0  0  0  0
  8  9  1  0  0  0  0
  8 10  1  0  0  0  0
  8 11  1  0  0  0  0
 11 12  1  0  0  0  0
 11 13  1  0  0  0  0
 11 14  1  0  0  0  0
 14 15  1  0  0  0  0
 14 16  1  0  0  0  0
 14 17  1  0  0  0  0
 17 18  1  0  0  0  0
 17 19  1  0  0  0  0
 19 20  1  0  0  0  0
 19 21  1  0  0  0  0
 19 22  1  0  0  0  0
 17 23  1  0  0  0  0
 23 24  1  0  0  0  0
 23 25  1  0  0  0  0
 23 26  1  0  0  0  0
M  END
> <VConfSearch Rank>
849

> <Conf_Id>
121

> <Delta U+W>
0.736

> <U+W>
-29.562

> <U>
24.282

> <W>
-53.844

> <W(PB)>
-56.205

> <W(SA)>
2.361

> <Valence>
3.311

> <Coulomb>
19.887

> <VdW>
1.083

> <VdW6>
-7.444

> <VdW12>
8.527

> <Bond>
0.219

> <Angle>
1.167

> <Pdih>
1.926

> <Idih>
0.000

> <Tether>
0.000

$$$$
VeraChem MOL file


 26 25  0  0  0  0  0  0  0  0999 V2000     
   18.7668   22.2101   21.2059 C   0  0  0  0  0  0  0  0  0  0  0  0
   18.9939   23.1816   20.7482 H   0  0  0  0  0  0  0  0  0  0  0  0
   17.9877   21.7283   20.6010 H   0  0  0  0  0  0  0  0  0  0  0  0
   18.3565   22.4050   22.2044 H   0  0  0  0  0  0  0  0  0  0  0  0
   20.0387   21.3345   21.2741 C   0  0  0  0  0  0  0  0  0  0  0  0
   20.7895   21.8215   21.9120 H   0  0  0  0  0  0  0  0  0  0  0  0
   20.4807   21.2761   20.2696 H   0  0  0  0  0  0  0  0  0  0  0  0
   19.7725   19.8969   21.7823 C   0  0  0  0  0  0  0  0  0  0  0  0
   19.0277   19.4119   21.1364 H   0  0  0  0  0  0  0  0  0  0  0  0
   20.7005   19.3207   21.6721 H   0  0  0  0  0  0  0  0  0  0  0  0
   19.3004   19.8424   23.2575 C   0  0  0  0  0  0  0  0  0  0  0  0
   18.3645   20.4059   23.3637 H   0  0  0  0  0  0  0  0  0  0  0  0
   20.0318   20.3477   23.9018 H   0  0  0  0  0  0  0  0  0  0  0  0
   19.0488   18.3990   23.7662 C   0  0  0  0  0  0  0  0  0  0  0  0
   18.6918   18.4446   24.8037 H   0  0  0  0  0  0  0  0  0  0  0  0
   18.2276   17.9642   23.1813 H   0  0  0  0  0  0  0  0  0  0  0  0
   20.2683   17.4499   23.6895 C   0  0  1  0  0  0  0  0  0  0  0  0
   20.6058   17.4037   22.6500 H   0  0  0  0  0  0  0  0  0  0  0  0
   21.4391   17.9399   24.5601 C   0  0  0  0  0  0  0  0  0  0  0  0
   21.1329   18.0577   25.6070 H   0  0  0  0  0  0  0  0  0  0  0  0
   21.8238   18.9026   24.2038 H   0  0  0  0  0  0  0  0  0  0  0  0
   22.2709   17.2257   24.5270 H   0  0  0  0  0  0  0  0  0  0  0  0
   19.8870   16.0462   24.0702 N   0  3  0  0  0  0  0  0  0  0  0  0
   19.1370   15.6840   23.4744 H   0  0  0  0  0  0  0  0  0  0  0  0
   20.6811   15.4058   23.9826 H   0  0  0  0  0  0  0  0  0  0  0  0
   19.5608   15.9966   25.0390 H   0  0  0  0  0  0  0  0  0  0  0  0
  1  2  1  0  0  0  0
  1  3  1  0  0  0  0
  1  4  1  0  0  0  0
  1  5  1  0  0  0  0
  5  6  1  0  0  0  0
  5  7  1  0  0  0  0
  5  8  1  0  0  0  0
  8  9  1  0  0  0  0
  8 10  1  0  0  0  0
  8 11  1  0  0  0  0
 11 12  1  0  0  0  0
 11 13  1  0  0  0  0
 11 14  1  0  0  0  0
 14 15  1  0  0  0  0
 14 16  1  0  0  0  0
 14 17  1  0  0  0  0
 17 18  1  0  0  0  0
 17 19  1  0  0  0  0
 19 20  1  0  0  0  0
 19 21  1  0  0  0  0
 19 22  1  0  0  0  0
 17 23  1  0  0  0  0
 23 24  1  0  0  0  0
 23 25  1  0  0  0  0
 23 26  1  0  0  0  0
M  END
> <VConfSearch Rank>
850

> <Conf_Id>
5

> <Delta U+W>
1.233

> <U+W>
-29.065

> <U>
25.023

> <W>
-54.088

> <W(PB)>
-56.383

> <W(SA)>
2.296

> <Valence>
4.083

> <Coulomb>
19.893

> <VdW>
1.047

> <VdW6>
-8.479

> <VdW12>
9.527

> <Bond>
0.256

> <Angle>
1.716

> <Pdih>
2.112

> <Idih>
0.000

> <Tether>
0.000

$$$$
VeraChem MOL file


 26 25  0  0  0  0  0  0  0  0999 V2000     
   16.6394   17.3627   23.4118 C   0  0  0  0  0  0  0  0  0  0  0  0
   15.6132   17.0982   23.1256 H   0  0  0  0  0  0  0  0  0  0  0  0
   17.2776   16.5017   23.1787 H   0  0  0  0  0  0  0  0  0  0  0  0
   16.6547   17.5189   24.4983 H   0  0  0  0  0  0  0  0  0  0  0  0
   17.0990   18.6332   22.6609 C   0  0  0  0  0  0  0  0  0  0  0  0
   16.3565   19.4266   22.8251 H   0  0  0  0  0  0  0  0  0  0  0  0
   17.1085   18.4411   21.5788 H   0  0  0  0  0  0  0  0  0  0  0  0
   18.4854   19.1518   23.1138 C   0  0  0  0  0  0  0  0  0  0  0  0
   18.6558   20.1226   22.6306 H   0  0  0  0  0  0  0  0  0  0  0  0
   18.4714   19.3372   24.1966 H   0  0  0  0  0  0  0  0  0  0  0  0
   19.6488   18.1921   22.7601 C   0  0  0  0  0  0  0  0  0  0  0  0
   19.6748   18.0344   21.6730 H   0  0  0  0  0  0  0  0  0  0  0  0
   19.4630   17.2082   23.2095 H   0  0  0  0  0  0  0  0  0  0  0  0
   21.0390   18.6807   23.2409 C   0  0  0  0  0  0  0  0  0  0  0  0
   21.0515   18.7591   24.3363 H   0  0  0  0  0  0  0  0  0  0  0  0
   21.7664   17.8963   22.9935 H   0  0  0  0  0  0  0  0  0  0  0  0
   21.4903   20.0144   22.5973 C   0  0  1  0  0  0  0  0  0  0  0  0
   20.8826   20.1847   21.7032 H   0  0  0  0  0  0  0  0  0  0  0  0
   21.2973   21.2013   23.5588 C   0  0  0  0  0  0  0  0  0  0  0  0
   21.9324   21.0967   24.4474 H   0  0  0  0  0  0  0  0  0  0  0  0
   20.2579   21.2809   23.8959 H   0  0  0  0  0  0  0  0  0  0  0  0
   21.5588   22.1452   23.0648 H   0  0  0  0  0  0  0  0  0  0  0  0
   22.9183   19.9577   22.1279 N   0  3  0  0  0  0  0  0  0  0  0  0
   23.0621   19.2043   21.4493 H   0  0  0  0  0  0  0  0  0  0  0  0
   23.1982   20.8324   21.6749 H   0  0  0  0  0  0  0  0  0  0  0  0
   23.5626   19.7978   22.9070 H   0  0  0  0  0  0  0  0  0  0  0  0
  1  2  1  0  0  0  0
  1  3  1  0  0  0  0
  1  4  1  0  0  0  0
  1  5  1  0  0  0  0
  5  6  1  0  0  0  0
  5  7  1  0  0  0  0
  5  8  1  0  0  0  0
  8  9  1  0  0  0  0
  8 10  1  0  0  0  0
  8 11  1  0  0  0  0
 11 12  1  0  0  0  0
 11 13  1  0  0  0  0
 11 14  1  0  0  0  0
 14 15  1  0  0  0  0
 14 16  1  0  0  0  0
 14 17  1  0  0  0  0
 17 18  1  0  0  0  0
 17 19  1  0  0  0  0
 19 20  1  0  0  0  0
 19 21  1  0  0  0  0
 19 22  1  0  0  0  0
 17 23  1  0  0  0  0
 23 24  1  0  0  0  0
 23 25  1  0  0  0  0
 23 26  1  0  0  0  0
M  END
> <VConfSearch Rank>
851

> <Conf_Id>
100

> <Delta U+W>
3.818

> <U+W>
-26.481

> <U>
27.496

> <W>
-53.977

> <W(PB)>
-56.267

> <W(SA)>
2.290

> <Valence>
6.472

> <Coulomb>
19.839

> <VdW>
1.185

> <VdW6>
-8.405

> <VdW12>
9.590

> <Bond>
0.248

> <Angle>
1.619

> <Pdih>
4.604

> <Idih>
0.000

> <Tether>
0.000

$$$$
VeraChem MOL file


 26 25  0  0  0  0  0  0  0  0999 V2000     
   18.2424   21.7645   20.8430 C   0  0  0  0  0  0  0  0  0  0  0  0
   17.2537   22.1463   20.5572 H   0  0  0  0  0  0  0  0  0  0  0  0
   18.6584   22.4405   21.6014 H   0  0  0  0  0  0  0  0  0  0  0  0
   18.8887   21.8060   19.9565 H   0  0  0  0  0  0  0  0  0  0  0  0
   18.1344   20.3230   21.3838 C   0  0  0  0  0  0  0  0  0  0  0  0
   17.6834   19.6786   20.6161 H   0  0  0  0  0  0  0  0  0  0  0  0
   17.4562   20.3083   22.2485 H   0  0  0  0  0  0  0  0  0  0  0  0
   19.5136   19.7606   21.7933 C   0  0  0  0  0  0  0  0  0  0  0  0
   20.1858   19.7793   20.9244 H   0  0  0  0  0  0  0  0  0  0  0  0
   19.9601   20.4184   22.5482 H   0  0  0  0  0  0  0  0  0  0  0  0
   19.4067   18.3119   22.3297 C   0  0  0  0  0  0  0  0  0  0  0  0
   18.9778   17.6866   21.5344 H   0  0  0  0  0  0  0  0  0  0  0  0
   18.6942   18.2676   23.1635 H   0  0  0  0  0  0  0  0  0  0  0  0
   20.7746   17.7010   22.7442 C   0  0  0  0  0  0  0  0  0  0  0  0
   20.7661   16.6331   22.4892 H   0  0  0  0  0  0  0  0  0  0  0  0
   21.5782   18.1361   22.1356 H   0  0  0  0  0  0  0  0  0  0  0  0
   21.1459   17.8160   24.2438 C   0  0  1  0  0  0  0  0  0  0  0  0
   22.1302   17.3537   24.3666 H   0  0  0  0  0  0  0  0  0  0  0  0
   21.2576   19.2722   24.7235 C   0  0  0  0  0  0  0  0  0  0  0  0
   20.2780   19.7641   24.7461 H   0  0  0  0  0  0  0  0  0  0  0  0
   21.9238   19.8488   24.0699 H   0  0  0  0  0  0  0  0  0  0  0  0
   21.6730   19.3100   25.7379 H   0  0  0  0  0  0  0  0  0  0  0  0
   20.2105   17.0331   25.1243 N   0  3  0  0  0  0  0  0  0  0  0  0
   20.1709   16.0479   24.8482 H   0  0  0  0  0  0  0  0  0  0  0  0
   20.5061   17.0638   26.1042 H   0  0  0  0  0  0  0  0  0  0  0  0
   19.2584   17.4038   25.0795 H   0  0  0  0  0  0  0  0  0  0  0  0
  1  2  1  0  0  0  0
  1  3  1  0  0  0  0
  1  4  1  0  0  0  0
  1  5  1  0  0  0  0
  5  6  1  0  0  0  0
  5  7  1  0  0  0  0
  5  8  1  0  0  0  0
  8  9  1  0  0  0  0
  8 10  1  0  0  0  0
  8 11  1  0  0  0  0
 11 12  1  0  0  0  0
 11 13  1  0  0  0  0
 11 14  1  0  0  0  0
 14 15  1  0  0  0  0
 14 16  1  0  0  0  0
 14 17  1  0  0  0  0
 17 18  1  0  0  0  0
 17 19  1  0  0  0  0
 19 20  1  0  0  0  0
 19 21  1  0  0  0  0
 19 22  1  0  0  0  0
 17 23  1  0  0  0  0
 23 24  1  0  0  0  0
 23 25  1  0  0  0  0
 23 26  1  0  0  0  0
M  END
> <VConfSearch Rank>
852

> <Conf_Id>
142

> <Delta U+W>
2.978

> <U+W>
-27.320

> <U>
26.848

> <W>
-54.168

> <W(PB)>
-56.427

> <W(SA)>
2.259

> <Valence>
5.823

> <Coulomb>
20.057

> <VdW>
0.968

> <VdW6>
-8.367

> <VdW12>
9.335

> <Bond>
0.267

> <Angle>
1.799

> <Pdih>
3.758

> <Idih>
0.000

> <Tether>
0.000

$$$$
VeraChem MOL file


 26 25  0  0  0  0  0  0  0  0999 V2000     
   22.1440   17.4597   20.8763 C   0  0  0  0  0  0  0  0  0  0  0  0
   21.5631   17.6110   19.9572 H   0  0  0  0  0  0  0  0  0  0  0  0
   23.1829   17.2560   20.5862 H   0  0  0  0  0  0  0  0  0  0  0  0
   21.7627   16.5637   21.3809 H   0  0  0  0  0  0  0  0  0  0  0  0
   22.0730   18.7044   21.7902 C   0  0  0  0  0  0  0  0  0  0  0  0
   22.5849   19.5373   21.2881 H   0  0  0  0  0  0  0  0  0  0  0  0
   22.6312   18.5160   22.7180 H   0  0  0  0  0  0  0  0  0  0  0  0
   20.6275   19.1442   22.1272 C   0  0  0  0  0  0  0  0  0  0  0  0
   20.6884   20.1113   22.6396 H   0  0  0  0  0  0  0  0  0  0  0  0
   20.0688   19.3099   21.1958 H   0  0  0  0  0  0  0  0  0  0  0  0
   19.8696   18.1344   23.0256 C   0  0  0  0  0  0  0  0  0  0  0  0
   20.3984   18.0213   23.9813 H   0  0  0  0  0  0  0  0  0  0  0  0
   19.8950   17.1440   22.5541 H   0  0  0  0  0  0  0  0  0  0  0  0
   18.3759   18.4844   23.2801 C   0  0  0  0  0  0  0  0  0  0  0  0
   17.8338   18.4752   22.3254 H   0  0  0  0  0  0  0  0  0  0  0  0
   17.9393   17.6672   23.8693 H   0  0  0  0  0  0  0  0  0  0  0  0
   18.0648   19.8094   24.0225 C   0  0  1  0  0  0  0  0  0  0  0  0
   17.0107   19.7661   24.3136 H   0  0  0  0  0  0  0  0  0  0  0  0
   18.8889   19.9701   25.3119 C   0  0  0  0  0  0  0  0  0  0  0  0
   19.9545   20.1135   25.0966 H   0  0  0  0  0  0  0  0  0  0  0  0
   18.7830   19.0864   25.9532 H   0  0  0  0  0  0  0  0  0  0  0  0
   18.5422   20.8397   25.8835 H   0  0  0  0  0  0  0  0  0  0  0  0
   18.1801   21.0234   23.1419 N   0  3  0  0  0  0  0  0  0  0  0  0
   17.5756   20.9477   22.3190 H   0  0  0  0  0  0  0  0  0  0  0  0
   17.9083   21.8745   23.6423 H   0  0  0  0  0  0  0  0  0  0  0  0
   19.1375   21.1539   22.8098 H   0  0  0  0  0  0  0  0  0  0  0  0
  1  2  1  0  0  0  0
  1  3  1  0  0  0  0
  1  4  1  0  0  0  0
  1  5  1  0  0  0  0
  5  6  1  0  0  0  0
  5  7  1  0  0  0  0
  5  8  1  0  0  0  0
  8  9  1  0  0  0  0
  8 10  1  0  0  0  0
  8 11  1  0  0  0  0
 11 12  1  0  0  0  0
 11 13  1  0  0  0  0
 11 14  1  0  0  0  0
 14 15  1  0  0  0  0
 14 16  1  0  0  0  0
 14 17  1  0  0  0  0
 17 18  1  0  0  0  0
 17 19  1  0  0  0  0
 19 20  1  0  0  0  0
 19 21  1  0  0  0  0
 19 22  1  0  0  0  0
 17 23  1  0  0  0  0
 23 24  1  0  0  0  0
 23 25  1  0  0  0  0
 23 26  1  0  0  0  0
M  END
> <VConfSearch Rank>
853

> <Conf_Id>
119

> <Delta U+W>
3.538

> <U+W>
-26.761

> <U>
27.482

> <W>
-54.243

> <W(PB)>
-56.494

> <W(SA)>
2.251

> <Valence>
5.284

> <Coulomb>
21.247

> <VdW>
0.951

> <VdW6>
-9.416

> <VdW12>
10.367

> <Bond>
0.323

> <Angle>
2.522

> <Pdih>
2.439

> <Idih>
0.000

> <Tether>
0.000

$$$$
VeraChem MOL file


 26 25  0  0  0  0  0  0  0  0999 V2000     
   19.5075   17.1578   25.8573 C   0  0  0  0  0  0  0  0  0  0  0  0
   18.4341   17.2308   26.0754 H   0  0  0  0  0  0  0  0  0  0  0  0
   19.6459   16.4292   25.0488 H   0  0  0  0  0  0  0  0  0  0  0  0
   20.0049   16.7576   26.7502 H   0  0  0  0  0  0  0  0  0  0  0  0
   20.0942   18.5382   25.4844 C   0  0  0  0  0  0  0  0  0  0  0  0
   21.1606   18.4327   25.2407 H   0  0  0  0  0  0  0  0  0  0  0  0
   20.0438   19.1936   26.3651 H   0  0  0  0  0  0  0  0  0  0  0  0
   19.3552   19.2258   24.3110 C   0  0  0  0  0  0  0  0  0  0  0  0
   18.2955   19.3524   24.5722 H   0  0  0  0  0  0  0  0  0  0  0  0
   19.7616   20.2375   24.1954 H   0  0  0  0  0  0  0  0  0  0  0  0
   19.4699   18.4511   22.9729 C   0  0  0  0  0  0  0  0  0  0  0  0
   18.9508   17.4899   23.0834 H   0  0  0  0  0  0  0  0  0  0  0  0
   20.5195   18.2058   22.7660 H   0  0  0  0  0  0  0  0  0  0  0  0
   18.8345   19.2019   21.7692 C   0  0  0  0  0  0  0  0  0  0  0  0
   18.3595   18.4612   21.1125 H   0  0  0  0  0  0  0  0  0  0  0  0
   18.0155   19.8439   22.1194 H   0  0  0  0  0  0  0  0  0  0  0  0
   19.8071   20.0367   20.8993 C   0  0  1  0  0  0  0  0  0  0  0  0
   19.2109   20.5046   20.1097 H   0  0  0  0  0  0  0  0  0  0  0  0
   20.4966   21.1633   21.6858 C   0  0  0  0  0  0  0  0  0  0  0  0
   21.1987   20.7644   22.4276 H   0  0  0  0  0  0  0  0  0  0  0  0
   19.7572   21.7863   22.2041 H   0  0  0  0  0  0  0  0  0  0  0  0
   21.0616   21.8140   21.0072 H   0  0  0  0  0  0  0  0  0  0  0  0
   20.8216   19.1778   20.1948 N   0  3  0  0  0  0  0  0  0  0  0  0
   20.3716   18.4573   19.6231 H   0  0  0  0  0  0  0  0  0  0  0  0
   21.4153   19.7341   19.5731 H   0  0  0  0  0  0  0  0  0  0  0  0
   21.4352   18.7031   20.8612 H   0  0  0  0  0  0  0  0  0  0  0  0
  1  2  1  0  0  0  0
  1  3  1  0  0  0  0
  1  4  1  0  0  0  0
  1  5  1  0  0  0  0
  5  6  1  0  0  0  0
  5  7  1  0  0  0  0
  5  8  1  0  0  0  0
  8  9  1  0  0  0  0
  8 10  1  0  0  0  0
  8 11  1  0  0  0  0
 11 12  1  0  0  0  0
 11 13  1  0  0  0  0
 11 14  1  0  0  0  0
 14 15  1  0  0  0  0
 14 16  1  0  0  0  0
 14 17  1  0  0  0  0
 17 18  1  0  0  0  0
 17 19  1  0  0  0  0
 19 20  1  0  0  0  0
 19 21  1  0  0  0  0
 19 22  1  0  0  0  0
 17 23  1  0  0  0  0
 23 24  1  0  0  0  0
 23 25  1  0  0  0  0
 23 26  1  0  0  0  0
M  END
> <VConfSearch Rank>
854

> <Conf_Id>
127

> <Delta U+W>
3.544

> <U+W>
-26.754

> <U>
27.509

> <W>
-54.263

> <W(PB)>
-56.496

> <W(SA)>
2.232

> <Valence>
6.375

> <Coulomb>
20.014

> <VdW>
1.120

> <VdW6>
-8.976

> <VdW12>
10.096

> <Bond>
0.304

> <Angle>
1.986

> <Pdih>
4.086

> <Idih>
0.000

> <Tether>
0.000

$$$$
VeraChem MOL file


 26 25  0  0  0  0  0  0  0  0999 V2000     
   19.6314   21.1823   20.4909 C   0  0  0  0  0  0  0  0  0  0  0  0
   18.9400   21.3586   19.6568 H   0  0  0  0  0  0  0  0  0  0  0  0
   20.4765   21.8730   20.3741 H   0  0  0  0  0  0  0  0  0  0  0  0
   20.0155   20.1609   20.3935 H   0  0  0  0  0  0  0  0  0  0  0  0
   18.9163   21.4098   21.8433 C   0  0  0  0  0  0  0  0  0  0  0  0
   18.0282   20.7671   21.9191 H   0  0  0  0  0  0  0  0  0  0  0  0
   18.5429   22.4433   21.8585 H   0  0  0  0  0  0  0  0  0  0  0  0
   19.8406   21.2006   23.0705 C   0  0  0  0  0  0  0  0  0  0  0  0
   20.8821   21.4294   22.8057 H   0  0  0  0  0  0  0  0  0  0  0  0
   19.5624   21.9375   23.8366 H   0  0  0  0  0  0  0  0  0  0  0  0
   19.7522   19.7960   23.7217 C   0  0  0  0  0  0  0  0  0  0  0  0
   18.7261   19.6299   24.0755 H   0  0  0  0  0  0  0  0  0  0  0  0
   20.3886   19.8029   24.6157 H   0  0  0  0  0  0  0  0  0  0  0  0
   20.1797   18.6343   22.7856 C   0  0  0  0  0  0  0  0  0  0  0  0
   19.4786   18.5732   21.9445 H   0  0  0  0  0  0  0  0  0  0  0  0
   21.1638   18.8566   22.3524 H   0  0  0  0  0  0  0  0  0  0  0  0
   20.2323   17.2414   23.4569 C   0  0  1  0  0  0  0  0  0  0  0  0
   20.4676   16.5136   22.6741 H   0  0  0  0  0  0  0  0  0  0  0  0
   21.3410   17.1497   24.5203 C   0  0  0  0  0  0  0  0  0  0  0  0
   22.3073   17.4608   24.1043 H   0  0  0  0  0  0  0  0  0  0  0  0
   21.4486   16.1165   24.8726 H   0  0  0  0  0  0  0  0  0  0  0  0
   21.1232   17.7781   25.3917 H   0  0  0  0  0  0  0  0  0  0  0  0
   18.9031   16.8267   24.0257 N   0  3  0  0  0  0  0  0  0  0  0  0
   18.1690   16.8386   23.3121 H   0  0  0  0  0  0  0  0  0  0  0  0
   18.9402   15.8787   24.4108 H   0  0  0  0  0  0  0  0  0  0  0  0
   18.6106   17.4530   24.7797 H   0  0  0  0  0  0  0  0  0  0  0  0
  1  2  1  0  0  0  0
  1  3  1  0  0  0  0
  1  4  1  0  0  0  0
  1  5  1  0  0  0  0
  5  6  1  0  0  0  0
  5  7  1  0  0  0  0
  5  8  1  0  0  0  0
  8  9  1  0  0  0  0
  8 10  1  0  0  0  0
  8 11  1  0  0  0  0
 11 12  1  0  0  0  0
 11 13  1  0  0  0  0
 11 14  1  0  0  0  0
 14 15  1  0  0  0  0
 14 16  1  0  0  0  0
 14 17  1  0  0  0  0
 17 18  1  0  0  0  0
 17 19  1  0  0  0  0
 19 20  1  0  0  0  0
 19 21  1  0  0  0  0
 19 22  1  0  0  0  0
 17 23  1  0  0  0  0
 23 24  1  0  0  0  0
 23 25  1  0  0  0  0
 23 26  1  0  0  0  0
M  END
> <VConfSearch Rank>
855

> <Conf_Id>
131

> <Delta U+W>
3.589

> <U+W>
-26.710

> <U>
27.573

> <W>
-54.283

> <W(PB)>
-56.537

> <W(SA)>
2.254

> <Valence>
6.363

> <Coulomb>
20.026

> <VdW>
1.184

> <VdW6>
-8.939

> <VdW12>
10.123

> <Bond>
0.298

> <Angle>
2.018

> <Pdih>
4.047

> <Idih>
0.000

> <Tether>
0.000

$$$$
VeraChem MOL file


 26 25  0  0  0  0  0  0  0  0999 V2000     
   21.0695   18.9935   20.4782 C   0  0  0  0  0  0  0  0  0  0  0  0
   20.3763   19.7932   20.1871 H   0  0  0  0  0  0  0  0  0  0  0  0
   21.5234   19.2559   21.4417 H   0  0  0  0  0  0  0  0  0  0  0  0
   21.8765   18.9613   19.7348 H   0  0  0  0  0  0  0  0  0  0  0  0
   20.3490   17.6297   20.5511 C   0  0  0  0  0  0  0  0  0  0  0  0
   21.0508   16.8662   20.9148 H   0  0  0  0  0  0  0  0  0  0  0  0
   20.0689   17.3246   19.5331 H   0  0  0  0  0  0  0  0  0  0  0  0
   19.0740   17.6259   21.4328 C   0  0  0  0  0  0  0  0  0  0  0  0
   18.3216   18.3058   21.0104 H   0  0  0  0  0  0  0  0  0  0  0  0
   18.6327   16.6215   21.3696 H   0  0  0  0  0  0  0  0  0  0  0  0
   19.3185   17.9522   22.9296 C   0  0  0  0  0  0  0  0  0  0  0  0
   20.3241   17.6194   23.2170 H   0  0  0  0  0  0  0  0  0  0  0  0
   18.6168   17.3595   23.5328 H   0  0  0  0  0  0  0  0  0  0  0  0
   19.1049   19.4494   23.2764 C   0  0  0  0  0  0  0  0  0  0  0  0
   19.8004   20.0811   22.7127 H   0  0  0  0  0  0  0  0  0  0  0  0
   18.0966   19.7386   22.9520 H   0  0  0  0  0  0  0  0  0  0  0  0
   19.2383   19.7607   24.7845 C   0  0  1  0  0  0  0  0  0  0  0  0
   18.5767   19.0846   25.3349 H   0  0  0  0  0  0  0  0  0  0  0  0
   20.6772   19.5568   25.2922 C   0  0  0  0  0  0  0  0  0  0  0  0
   21.3887   20.1705   24.7257 H   0  0  0  0  0  0  0  0  0  0  0  0
   20.9857   18.5085   25.2093 H   0  0  0  0  0  0  0  0  0  0  0  0
   20.7563   19.8346   26.3505 H   0  0  0  0  0  0  0  0  0  0  0  0
   18.7712   21.1560   25.0944 N   0  3  0  0  0  0  0  0  0  0  0  0
   19.3434   21.8574   24.6168 H   0  0  0  0  0  0  0  0  0  0  0  0
   17.7999   21.3018   24.8046 H   0  0  0  0  0  0  0  0  0  0  0  0
   18.8215   21.3529   26.0980 H   0  0  0  0  0  0  0  0  0  0  0  0
  1  2  1  0  0  0  0
  1  3  1  0  0  0  0
  1  4  1  0  0  0  0
  1  5  1  0  0  0  0
  5  6  1  0  0  0  0
  5  7  1  0  0  0  0
  5  8  1  0  0  0  0
  8  9  1  0  0  0  0
  8 10  1  0  0  0  0
  8 11  1  0  0  0  0
 11 12  1  0  0  0  0
 11 13  1  0  0  0  0
 11 14  1  0  0  0  0
 14 15  1  0  0  0  0
 14 16  1  0  0  0  0
 14 17  1  0  0  0  0
 17 18  1  0  0  0  0
 17 19  1  0  0  0  0
 19 20  1  0  0  0  0
 19 21  1  0  0  0  0
 19 22  1  0  0  0  0
 17 23  1  0  0  0  0
 23 24  1  0  0  0  0
 23 25  1  0  0  0  0
 23 26  1  0  0  0  0
M  END
> <VConfSearch Rank>
856

> <Conf_Id>
80

> <Delta U+W>
3.351

> <U+W>
-26.948

> <U>
27.261

> <W>
-54.209

> <W(PB)>
-56.471

> <W(SA)>
2.263

> <Valence>
6.230

> <Coulomb>
19.945

> <VdW>
1.087

> <VdW6>
-8.618

> <VdW12>
9.704

> <Bond>
0.277

> <Angle>
1.928

> <Pdih>
4.025

> <Idih>
0.000

> <Tether>
0.000

$$$$
VeraChem MOL file


 26 25  0  0  0  0  0  0  0  0999 V2000     
   18.0529   20.8758   20.8459 C   0  0  0  0  0  0  0  0  0  0  0  0
   18.2739   21.4938   19.9661 H   0  0  0  0  0  0  0  0  0  0  0  0
   16.9738   20.6746   20.8529 H   0  0  0  0  0  0  0  0  0  0  0  0
   18.2995   21.4686   21.7355 H   0  0  0  0  0  0  0  0  0  0  0  0
   18.8632   19.5607   20.8007 C   0  0  0  0  0  0  0  0  0  0  0  0
   19.9370   19.7872   20.8217 H   0  0  0  0  0  0  0  0  0  0  0  0
   18.6830   19.0694   19.8343 H   0  0  0  0  0  0  0  0  0  0  0  0
   18.4967   18.5646   21.9317 C   0  0  0  0  0  0  0  0  0  0  0  0
   17.4579   18.2397   21.7824 H   0  0  0  0  0  0  0  0  0  0  0  0
   19.1047   17.6610   21.8107 H   0  0  0  0  0  0  0  0  0  0  0  0
   18.6291   19.1114   23.3815 C   0  0  0  0  0  0  0  0  0  0  0  0
   18.2713   18.3518   24.0900 H   0  0  0  0  0  0  0  0  0  0  0  0
   17.9360   19.9550   23.4974 H   0  0  0  0  0  0  0  0  0  0  0  0
   20.0509   19.5779   23.8030 C   0  0  0  0  0  0  0  0  0  0  0  0
   20.6009   19.9888   22.9492 H   0  0  0  0  0  0  0  0  0  0  0  0
   19.9265   20.4169   24.5003 H   0  0  0  0  0  0  0  0  0  0  0  0
   20.9090   18.5095   24.5228 C   0  0  1  0  0  0  0  0  0  0  0  0
   20.3597   18.1691   25.4059 H   0  0  0  0  0  0  0  0  0  0  0  0
   21.2062   17.2845   23.6424 C   0  0  0  0  0  0  0  0  0  0  0  0
   20.2950   16.7045   23.4593 H   0  0  0  0  0  0  0  0  0  0  0  0
   21.9175   16.6132   24.1393 H   0  0  0  0  0  0  0  0  0  0  0  0
   21.6344   17.5815   22.6770 H   0  0  0  0  0  0  0  0  0  0  0  0
   22.1927   19.1062   25.0303 N   0  3  0  0  0  0  0  0  0  0  0  0
   22.0195   19.8958   25.6588 H   0  0  0  0  0  0  0  0  0  0  0  0
   22.7444   18.4186   25.5512 H   0  0  0  0  0  0  0  0  0  0  0  0
   22.7765   19.4468   24.2618 H   0  0  0  0  0  0  0  0  0  0  0  0
  1  2  1  0  0  0  0
  1  3  1  0  0  0  0
  1  4  1  0  0  0  0
  1  5  1  0  0  0  0
  5  6  1  0  0  0  0
  5  7  1  0  0  0  0
  5  8  1  0  0  0  0
  8  9  1  0  0  0  0
  8 10  1  0  0  0  0
  8 11  1  0  0  0  0
 11 12  1  0  0  0  0
 11 13  1  0  0  0  0
 11 14  1  0  0  0  0
 14 15  1  0  0  0  0
 14 16  1  0  0  0  0
 14 17  1  0  0  0  0
 17 18  1  0  0  0  0
 17 19  1  0  0  0  0
 19 20  1  0  0  0  0
 19 21  1  0  0  0  0
 19 22  1  0  0  0  0
 17 23  1  0  0  0  0
 23 24  1  0  0  0  0
 23 25  1  0  0  0  0
 23 26  1  0  0  0  0
M  END
> <VConfSearch Rank>
857

> <Conf_Id>
136

> <Delta U+W>
4.272

> <U+W>
-26.026

> <U>
28.262

> <W>
-54.288

> <W(PB)>
-56.488

> <W(SA)>
2.200

> <Valence>
7.096

> <Coulomb>
19.990

> <VdW>
1.175

> <VdW6>
-9.404

> <VdW12>
10.580

> <Bond>
0.360

> <Angle>
2.785

> <Pdih>
3.951

> <Idih>
0.000

> <Tether>
0.000

$$$$
VeraChem MOL file


 26 25  0  0  0  0  0  0  0  0999 V2000     
   22.2004   19.8606   24.6025 C   0  0  0  0  0  0  0  0  0  0  0  0
   21.4923   20.6064   24.2208 H   0  0  0  0  0  0  0  0  0  0  0  0
   22.9060   20.3852   25.2596 H   0  0  0  0  0  0  0  0  0  0  0  0
   22.7691   19.4521   23.7573 H   0  0  0  0  0  0  0  0  0  0  0  0
   21.4725   18.7407   25.3777 C   0  0  0  0  0  0  0  0  0  0  0  0
   20.8690   19.1865   26.1807 H   0  0  0  0  0  0  0  0  0  0  0  0
   22.2235   18.1115   25.8755 H   0  0  0  0  0  0  0  0  0  0  0  0
   20.5759   17.8327   24.4975 C   0  0  0  0  0  0  0  0  0  0  0  0
   21.1880   17.3032   23.7545 H   0  0  0  0  0  0  0  0  0  0  0  0
   20.1585   17.0513   25.1476 H   0  0  0  0  0  0  0  0  0  0  0  0
   19.3976   18.5641   23.8029 C   0  0  0  0  0  0  0  0  0  0  0  0
   19.0918   19.4345   24.3998 H   0  0  0  0  0  0  0  0  0  0  0  0
   18.5350   17.8846   23.7893 H   0  0  0  0  0  0  0  0  0  0  0  0
   19.7146   18.9921   22.3463 C   0  0  0  0  0  0  0  0  0  0  0  0
   20.6357   19.5853   22.3269 H   0  0  0  0  0  0  0  0  0  0  0  0
   19.9102   18.1009   21.7354 H   0  0  0  0  0  0  0  0  0  0  0  0
   18.5811   19.8206   21.7037 C   0  0  1  0  0  0  0  0  0  0  0  0
   18.3875   20.6885   22.3418 H   0  0  0  0  0  0  0  0  0  0  0  0
   19.0095   20.3277   20.3173 C   0  0  0  0  0  0  0  0  0  0  0  0
   19.2156   19.4931   19.6355 H   0  0  0  0  0  0  0  0  0  0  0  0
   19.9158   20.9418   20.3895 H   0  0  0  0  0  0  0  0  0  0  0  0
   18.2226   20.9478   19.8705 H   0  0  0  0  0  0  0  0  0  0  0  0
   17.2892   19.0555   21.6096 N   0  3  0  0  0  0  0  0  0  0  0  0
   17.3912   18.2209   21.0263 H   0  0  0  0  0  0  0  0  0  0  0  0
   16.9674   18.7500   22.5319 H   0  0  0  0  0  0  0  0  0  0  0  0
   16.5449   19.6268   21.1998 H   0  0  0  0  0  0  0  0  0  0  0  0
  1  2  1  0  0  0  0
  1  3  1  0  0  0  0
  1  4  1  0  0  0  0
  1  5  1  0  0  0  0
  5  6  1  0  0  0  0
  5  7  1  0  0  0  0
  5  8  1  0  0  0  0
  8  9  1  0  0  0  0
  8 10  1  0  0  0  0
  8 11  1  0  0  0  0
 11 12  1  0  0  0  0
 11 13  1  0  0  0  0
 11 14  1  0  0  0  0
 14 15  1  0  0  0  0
 14 16  1  0  0  0  0
 14 17  1  0  0  0  0
 17 18  1  0  0  0  0
 17 19  1  0  0  0  0
 19 20  1  0  0  0  0
 19 21  1  0  0  0  0
 19 22  1  0  0  0  0
 17 23  1  0  0  0  0
 23 24  1  0  0  0  0
 23 25  1  0  0  0  0
 23 26  1  0  0  0  0
M  END
> <VConfSearch Rank>
858

> <Conf_Id>
124

> <Delta U+W>
3.001

> <U+W>
-27.298

> <U>
26.787

> <W>
-54.085

> <W(PB)>
-56.347

> <W(SA)>
2.262

> <Valence>
5.742

> <Coulomb>
20.023

> <VdW>
1.022

> <VdW6>
-8.392

> <VdW12>
9.414

> <Bond>
0.261

> <Angle>
1.576

> <Pdih>
3.904

> <Idih>
0.000

> <Tether>
0.000

$$$$
VeraChem MOL file


 26 25  0  0  0  0  0  0  0  0999 V2000     
   17.5201   19.2109   20.7660 C   0  0  0  0  0  0  0  0  0  0  0  0
   17.2495   20.2165   20.4187 H   0  0  0  0  0  0  0  0  0  0  0  0
   16.8513   18.4964   20.2690 H   0  0  0  0  0  0  0  0  0  0  0  0
   17.3187   19.1601   21.8415 H   0  0  0  0  0  0  0  0  0  0  0  0
   18.9961   18.8909   20.4330 C   0  0  0  0  0  0  0  0  0  0  0  0
   19.1122   18.9311   19.3408 H   0  0  0  0  0  0  0  0  0  0  0  0
   19.2387   17.8595   20.7244 H   0  0  0  0  0  0  0  0  0  0  0  0
   20.0020   19.8828   21.0722 C   0  0  0  0  0  0  0  0  0  0  0  0
   20.8350   20.0235   20.3695 H   0  0  0  0  0  0  0  0  0  0  0  0
   19.5403   20.8735   21.1845 H   0  0  0  0  0  0  0  0  0  0  0  0
   20.6062   19.4186   22.4227 C   0  0  0  0  0  0  0  0  0  0  0  0
   21.3581   20.1578   22.7278 H   0  0  0  0  0  0  0  0  0  0  0  0
   21.1476   18.4763   22.2650 H   0  0  0  0  0  0  0  0  0  0  0  0
   19.5629   19.2415   23.5576 C   0  0  0  0  0  0  0  0  0  0  0  0
   18.9265   20.1345   23.6086 H   0  0  0  0  0  0  0  0  0  0  0  0
   18.9001   18.4023   23.3134 H   0  0  0  0  0  0  0  0  0  0  0  0
   20.1650   18.9862   24.9597 C   0  0  1  0  0  0  0  0  0  0  0  0
   19.3288   18.8768   25.6573 H   0  0  0  0  0  0  0  0  0  0  0  0
   20.9850   17.6851   25.0076 C   0  0  0  0  0  0  0  0  0  0  0  0
   21.8936   17.7562   24.3979 H   0  0  0  0  0  0  0  0  0  0  0  0
   20.3919   16.8369   24.6437 H   0  0  0  0  0  0  0  0  0  0  0  0
   21.2890   17.4607   26.0374 H   0  0  0  0  0  0  0  0  0  0  0  0
   20.9733   20.1519   25.4601 N   0  3  0  0  0  0  0  0  0  0  0  0
   21.3099   19.9917   26.4138 H   0  0  0  0  0  0  0  0  0  0  0  0
   21.7920   20.3179   24.8700 H   0  0  0  0  0  0  0  0  0  0  0  0
   20.4214   21.0143   25.4717 H   0  0  0  0  0  0  0  0  0  0  0  0
  1  2  1  0  0  0  0
  1  3  1  0  0  0  0
  1  4  1  0  0  0  0
  1  5  1  0  0  0  0
  5  6  1  0  0  0  0
  5  7  1  0  0  0  0
  5  8  1  0  0  0  0
  8  9  1  0  0  0  0
  8 10  1  0  0  0  0
  8 11  1  0  0  0  0
 11 12  1  0  0  0  0
 11 13  1  0  0  0  0
 11 14  1  0  0  0  0
 14 15  1  0  0  0  0
 14 16  1  0  0  0  0
 14 17  1  0  0  0  0
 17 18  1  0  0  0  0
 17 19  1  0  0  0  0
 19 20  1  0  0  0  0
 19 21  1  0  0  0  0
 19 22  1  0  0  0  0
 17 23  1  0  0  0  0
 23 24  1  0  0  0  0
 23 25  1  0  0  0  0
 23 26  1  0  0  0  0
M  END
> <VConfSearch Rank>
859

> <Conf_Id>
105

> <Delta U+W>
3.442

> <U+W>
-26.857

> <U>
27.313

> <W>
-54.169

> <W(PB)>
-56.414

> <W(SA)>
2.245

> <Valence>
6.229

> <Coulomb>
19.943

> <VdW>
1.140

> <VdW6>
-9.001

> <VdW12>
10.140

> <Bond>
0.294

> <Angle>
1.969

> <Pdih>
3.967

> <Idih>
0.000

> <Tether>
0.000

$$$$
VeraChem MOL file


 26 25  0  0  0  0  0  0  0  0999 V2000     
   19.0070   18.9611   20.0028 C   0  0  0  0  0  0  0  0  0  0  0  0
   19.4606   18.1557   19.4106 H   0  0  0  0  0  0  0  0  0  0  0  0
   18.4761   19.6254   19.3087 H   0  0  0  0  0  0  0  0  0  0  0  0
   19.8163   19.5399   20.4608 H   0  0  0  0  0  0  0  0  0  0  0  0
   18.0301   18.3886   21.0562 C   0  0  0  0  0  0  0  0  0  0  0  0
   17.2322   17.8545   20.5214 H   0  0  0  0  0  0  0  0  0  0  0  0
   17.5346   19.2043   21.6009 H   0  0  0  0  0  0  0  0  0  0  0  0
   18.7001   17.4053   22.0504 C   0  0  0  0  0  0  0  0  0  0  0  0
   17.9687   16.6254   22.3036 H   0  0  0  0  0  0  0  0  0  0  0  0
   19.5337   16.8811   21.5631 H   0  0  0  0  0  0  0  0  0  0  0  0
   19.1755   18.0464   23.3798 C   0  0  0  0  0  0  0  0  0  0  0  0
   19.5597   17.2467   24.0283 H   0  0  0  0  0  0  0  0  0  0  0  0
   18.3087   18.4752   23.9002 H   0  0  0  0  0  0  0  0  0  0  0  0
   20.2732   19.1253   23.2094 C   0  0  0  0  0  0  0  0  0  0  0  0
   21.0671   18.7275   22.5634 H   0  0  0  0  0  0  0  0  0  0  0  0
   19.8563   20.0043   22.7022 H   0  0  0  0  0  0  0  0  0  0  0  0
   20.8959   19.5640   24.5522 C   0  0  1  0  0  0  0  0  0  0  0  0
   21.2912   18.6751   25.0534 H   0  0  0  0  0  0  0  0  0  0  0  0
   22.0596   20.5382   24.3087 C   0  0  0  0  0  0  0  0  0  0  0  0
   21.7148   21.4518   23.8084 H   0  0  0  0  0  0  0  0  0  0  0  0
   22.8308   20.0750   23.6806 H   0  0  0  0  0  0  0  0  0  0  0  0
   22.5310   20.8248   25.2569 H   0  0  0  0  0  0  0  0  0  0  0  0
   19.8835   20.1721   25.4842 N   0  3  0  0  0  0  0  0  0  0  0  0
   19.1235   19.5178   25.6887 H   0  0  0  0  0  0  0  0  0  0  0  0
   20.3084   20.4363   26.3775 H   0  0  0  0  0  0  0  0  0  0  0  0
   19.4652   21.0153   25.0825 H   0  0  0  0  0  0  0  0  0  0  0  0
  1  2  1  0  0  0  0
  1  3  1  0  0  0  0
  1  4  1  0  0  0  0
  1  5  1  0  0  0  0
  5  6  1  0  0  0  0
  5  7  1  0  0  0  0
  5  8  1  0  0  0  0
  8  9  1  0  0  0  0
  8 10  1  0  0  0  0
  8 11  1  0  0  0  0
 11 12  1  0  0  0  0
 11 13  1  0  0  0  0
 11 14  1  0  0  0  0
 14 15  1  0  0  0  0
 14 16  1  0  0  0  0
 14 17  1  0  0  0  0
 17 18  1  0  0  0  0
 17 19  1  0  0  0  0
 19 20  1  0  0  0  0
 19 21  1  0  0  0  0
 19 22  1  0  0  0  0
 17 23  1  0  0  0  0
 23 24  1  0  0  0  0
 23 25  1  0  0  0  0
 23 26  1  0  0  0  0
M  END
> <VConfSearch Rank>
860

> <Conf_Id>
107

> <Delta U+W>
2.995

> <U+W>
-27.304

> <U>
26.796

> <W>
-54.100

> <W(PB)>
-56.404

> <W(SA)>
2.304

> <Valence>
5.706

> <Coulomb>
20.107

> <VdW>
0.982

> <VdW6>
-8.396

> <VdW12>
9.378

> <Bond>
0.254

> <Angle>
1.644

> <Pdih>
3.808

> <Idih>
0.000

> <Tether>
0.000

$$$$
VeraChem MOL file


 26 25  0  0  0  0  0  0  0  0999 V2000     
   21.9773   16.1327   24.9574 C   0  0  0  0  0  0  0  0  0  0  0  0
   22.2903   15.5602   24.0745 H   0  0  0  0  0  0  0  0  0  0  0  0
   22.7821   16.0714   25.7014 H   0  0  0  0  0  0  0  0  0  0  0  0
   21.0884   15.6480   25.3817 H   0  0  0  0  0  0  0  0  0  0  0  0
   21.6855   17.6032   24.5902 C   0  0  0  0  0  0  0  0  0  0  0  0
   22.6010   18.0702   24.2008 H   0  0  0  0  0  0  0  0  0  0  0  0
   21.4083   18.1573   25.4980 H   0  0  0  0  0  0  0  0  0  0  0  0
   20.5553   17.7179   23.5433 C   0  0  0  0  0  0  0  0  0  0  0  0
   20.8361   17.1595   22.6395 H   0  0  0  0  0  0  0  0  0  0  0  0
   19.6430   17.2482   23.9364 H   0  0  0  0  0  0  0  0  0  0  0  0
   20.2606   19.1890   23.1724 C   0  0  0  0  0  0  0  0  0  0  0  0
   21.1729   19.6564   22.7762 H   0  0  0  0  0  0  0  0  0  0  0  0
   19.9875   19.7411   24.0815 H   0  0  0  0  0  0  0  0  0  0  0  0
   19.1268   19.3006   22.1242 C   0  0  0  0  0  0  0  0  0  0  0  0
   19.3948   18.6979   21.2461 H   0  0  0  0  0  0  0  0  0  0  0  0
   18.2019   18.8693   22.5299 H   0  0  0  0  0  0  0  0  0  0  0  0
   18.8668   20.7533   21.6697 C   0  0  1  0  0  0  0  0  0  0  0  0
   19.8067   21.1680   21.2925 H   0  0  0  0  0  0  0  0  0  0  0  0
   17.8359   20.7802   20.5298 C   0  0  0  0  0  0  0  0  0  0  0  0
   16.8705   20.3748   20.8578 H   0  0  0  0  0  0  0  0  0  0  0  0
   18.1835   20.1859   19.6756 H   0  0  0  0  0  0  0  0  0  0  0  0
   17.6738   21.8061   20.1769 H   0  0  0  0  0  0  0  0  0  0  0  0
   18.4250   21.6410   22.8012 N   0  3  0  0  0  0  0  0  0  0  0  0
   17.5464   21.3138   23.2115 H   0  0  0  0  0  0  0  0  0  0  0  0
   19.1231   21.6695   23.5490 H   0  0  0  0  0  0  0  0  0  0  0  0
   18.2759   22.6035   22.4854 H   0  0  0  0  0  0  0  0  0  0  0  0
  1  2  1  0  0  0  0
  1  3  1  0  0  0  0
  1  4  1  0  0  0  0
  1  5  1  0  0  0  0
  5  6  1  0  0  0  0
  5  7  1  0  0  0  0
  5  8  1  0  0  0  0
  8  9  1  0  0  0  0
  8 10  1  0  0  0  0
  8 11  1  0  0  0  0
 11 12  1  0  0  0  0
 11 13  1  0  0  0  0
 11 14  1  0  0  0  0
 14 15  1  0  0  0  0
 14 16  1  0  0  0  0
 14 17  1  0  0  0  0
 17 18  1  0  0  0  0
 17 19  1  0  0  0  0
 19 20  1  0  0  0  0
 19 21  1  0  0  0  0
 19 22  1  0  0  0  0
 17 23  1  0  0  0  0
 23 24  1  0  0  0  0
 23 25  1  0  0  0  0
 23 26  1  0  0  0  0
M  END
> <VConfSearch Rank>
861

> <Conf_Id>
122

> <Delta U+W>
0.000

> <U+W>
-30.299

> <U>
23.517

> <W>
-53.816

> <W(PB)>
-56.162

> <W(SA)>
2.346

> <Valence>
2.737

> <Coulomb>
19.862

> <VdW>
0.919

> <VdW6>
-6.793

> <VdW12>
7.712

> <Bond>
0.171

> <Angle>
0.873

> <Pdih>
1.693

> <Idih>
0.000

> <Tether>
0.000

$$$$
VeraChem MOL file


 26 25  0  0  0  0  0  0  0  0999 V2000     
   18.2823   21.4511   19.7941 C   0  0  0  0  0  0  0  0  0  0  0  0
   18.3054   21.4468   18.6966 H   0  0  0  0  0  0  0  0  0  0  0  0
   17.2307   21.4393   20.1090 H   0  0  0  0  0  0  0  0  0  0  0  0
   18.7315   22.3923   20.1369 H   0  0  0  0  0  0  0  0  0  0  0  0
   19.0446   20.2341   20.3599 C   0  0  0  0  0  0  0  0  0  0  0  0
   20.0829   20.2552   20.0003 H   0  0  0  0  0  0  0  0  0  0  0  0
   18.5938   19.3095   19.9728 H   0  0  0  0  0  0  0  0  0  0  0  0
   19.0274   20.2159   21.9045 C   0  0  0  0  0  0  0  0  0  0  0  0
   19.4772   21.1428   22.2867 H   0  0  0  0  0  0  0  0  0  0  0  0
   17.9871   20.1982   22.2582 H   0  0  0  0  0  0  0  0  0  0  0  0
   19.7895   18.9983   22.4750 C   0  0  0  0  0  0  0  0  0  0  0  0
   20.8242   19.0215   22.1085 H   0  0  0  0  0  0  0  0  0  0  0  0
   19.3361   18.0718   22.0961 H   0  0  0  0  0  0  0  0  0  0  0  0
   19.7742   18.9853   24.0234 C   0  0  0  0  0  0  0  0  0  0  0  0
   20.2849   19.8789   24.4065 H   0  0  0  0  0  0  0  0  0  0  0  0
   18.7322   19.0531   24.3630 H   0  0  0  0  0  0  0  0  0  0  0  0
   20.4083   17.7185   24.6424 C   0  0  1  0  0  0  0  0  0  0  0  0
   19.9117   16.8422   24.2145 H   0  0  0  0  0  0  0  0  0  0  0  0
   21.9152   17.6185   24.3444 C   0  0  0  0  0  0  0  0  0  0  0  0
   22.4500   18.5083   24.6993 H   0  0  0  0  0  0  0  0  0  0  0  0
   22.1033   17.5097   23.2701 H   0  0  0  0  0  0  0  0  0  0  0  0
   22.3494   16.7411   24.8393 H   0  0  0  0  0  0  0  0  0  0  0  0
   20.1666   17.6605   26.1254 N   0  3  0  0  0  0  0  0  0  0  0  0
   20.6040   18.4503   26.6074 H   0  0  0  0  0  0  0  0  0  0  0  0
   19.1668   17.6810   26.3459 H   0  0  0  0  0  0  0  0  0  0  0  0
   20.5502   16.8034   26.5337 H   0  0  0  0  0  0  0  0  0  0  0  0
  1  2  1  0  0  0  0
  1  3  1  0  0  0  0
  1  4  1  0  0  0  0
  1  5  1  0  0  0  0
  5  6  1  0  0  0  0
  5  7  1  0  0  0  0
  5  8  1  0  0  0  0
  8  9  1  0  0  0  0
  8 10  1  0  0  0  0
  8 11  1  0  0  0  0
 11 12  1  0  0  0  0
 11 13  1  0  0  0  0
 11 14  1  0  0  0  0
 14 15  1  0  0  0  0
 14 16  1  0  0  0  0
 14 17  1  0  0  0  0
 17 18  1  0  0  0  0
 17 19  1  0  0  0  0
 19 20  1  0  0  0  0
 19 21  1  0  0  0  0
 19 22  1  0  0  0  0
 17 23  1  0  0  0  0
 23 24  1  0  0  0  0
 23 25  1  0  0  0  0
 23 26  1  0  0  0  0
M  END
> <VConfSearch Rank>
862

> <Conf_Id>
54

> <Delta U+W>
0.453

> <U+W>
-29.845

> <U>
23.817

> <W>
-53.663

> <W(PB)>
-56.021

> <W(SA)>
2.358

> <Valence>
3.277

> <Coulomb>
19.492

> <VdW>
1.049

> <VdW6>
-6.949

> <VdW12>
7.998

> <Bond>
0.183

> <Angle>
1.152

> <Pdih>
1.942

> <Idih>
0.000

> <Tether>
0.000

$$$$
VeraChem MOL file


 26 25  0  0  0  0  0  0  0  0999 V2000     
   19.6810   22.6931   22.2369 C   0  0  0  0  0  0  0  0  0  0  0  0
   20.7738   22.7332   22.1406 H   0  0  0  0  0  0  0  0  0  0  0  0
   19.2654   22.3276   21.2901 H   0  0  0  0  0  0  0  0  0  0  0  0
   19.3196   23.7197   22.3794 H   0  0  0  0  0  0  0  0  0  0  0  0
   19.2601   21.8026   23.4284 C   0  0  0  0  0  0  0  0  0  0  0  0
   18.1637   21.7500   23.4838 H   0  0  0  0  0  0  0  0  0  0  0  0
   19.5913   22.2842   24.3591 H   0  0  0  0  0  0  0  0  0  0  0  0
   19.8527   20.3734   23.3738 C   0  0  0  0  0  0  0  0  0  0  0  0
   20.9465   20.4343   23.2881 H   0  0  0  0  0  0  0  0  0  0  0  0
   19.6318   19.8895   24.3325 H   0  0  0  0  0  0  0  0  0  0  0  0
   19.2778   19.5116   22.2214 C   0  0  0  0  0  0  0  0  0  0  0  0
   19.3838   20.0549   21.2740 H   0  0  0  0  0  0  0  0  0  0  0  0
   18.1985   19.3725   22.3732 H   0  0  0  0  0  0  0  0  0  0  0  0
   19.9558   18.1275   22.0414 C   0  0  0  0  0  0  0  0  0  0  0  0
   19.5258   17.6750   21.1378 H   0  0  0  0  0  0  0  0  0  0  0  0
   21.0259   18.2547   21.8306 H   0  0  0  0  0  0  0  0  0  0  0  0
   19.7634   17.1483   23.2240 C   0  0  1  0  0  0  0  0  0  0  0  0
   18.7483   17.2722   23.6135 H   0  0  0  0  0  0  0  0  0  0  0  0
   19.9216   15.6948   22.7476 C   0  0  0  0  0  0  0  0  0  0  0  0
   19.7714   14.9947   23.5787 H   0  0  0  0  0  0  0  0  0  0  0  0
   20.9212   15.5206   22.3299 H   0  0  0  0  0  0  0  0  0  0  0  0
   19.1811   15.4538   21.9746 H   0  0  0  0  0  0  0  0  0  0  0  0
   20.7122   17.4132   24.3614 N   0  3  0  0  0  0  0  0  0  0  0  0
   20.6254   18.3713   24.7073 H   0  0  0  0  0  0  0  0  0  0  0  0
   20.5363   16.7832   25.1492 H   0  0  0  0  0  0  0  0  0  0  0  0
   21.6847   17.2773   24.0731 H   0  0  0  0  0  0  0  0  0  0  0  0
  1  2  1  0  0  0  0
  1  3  1  0  0  0  0
  1  4  1  0  0  0  0
  1  5  1  0  0  0  0
  5  6  1  0  0  0  0
  5  7  1  0  0  0  0
  5  8  1  0  0  0  0
  8  9  1  0  0  0  0
  8 10  1  0  0  0  0
  8 11  1  0  0  0  0
 11 12  1  0  0  0  0
 11 13  1  0  0  0  0
 11 14  1  0  0  0  0
 14 15  1  0  0  0  0
 14 16  1  0  0  0  0
 14 17  1  0  0  0  0
 17 18  1  0  0  0  0
 17 19  1  0  0  0  0
 19 20  1  0  0  0  0
 19 21  1  0  0  0  0
 19 22  1  0  0  0  0
 17 23  1  0  0  0  0
 23 24  1  0  0  0  0
 23 25  1  0  0  0  0
 23 26  1  0  0  0  0
M  END
> <VConfSearch Rank>
863

> <Conf_Id>
110

> <Delta U+W>
3.764

> <U+W>
-26.535

> <U>
27.400

> <W>
-53.935

> <W(PB)>
-56.238

> <W(SA)>
2.303

> <Valence>
5.205

> <Coulomb>
21.096

> <VdW>
1.098

> <VdW6>
-8.389

> <VdW12>
9.488

> <Bond>
0.270

> <Angle>
1.912

> <Pdih>
3.023

> <Idih>
0.000

> <Tether>
0.000

$$$$
VeraChem MOL file


 26 25  0  0  0  0  0  0  0  0999 V2000     
   21.7781   17.3140   20.4348 C   0  0  0  0  0  0  0  0  0  0  0  0
   21.8659   16.9140   19.4164 H   0  0  0  0  0  0  0  0  0  0  0  0
   22.2561   18.3014   20.4434 H   0  0  0  0  0  0  0  0  0  0  0  0
   22.3420   16.6523   21.1051 H   0  0  0  0  0  0  0  0  0  0  0  0
   20.2936   17.3983   20.8566 C   0  0  0  0  0  0  0  0  0  0  0  0
   19.8288   16.4125   20.7152 H   0  0  0  0  0  0  0  0  0  0  0  0
   19.7588   18.0886   20.1894 H   0  0  0  0  0  0  0  0  0  0  0  0
   20.0950   17.8346   22.3282 C   0  0  0  0  0  0  0  0  0  0  0  0
   19.0283   17.7558   22.5702 H   0  0  0  0  0  0  0  0  0  0  0  0
   20.6089   17.1249   22.9911 H   0  0  0  0  0  0  0  0  0  0  0  0
   20.6010   19.2714   22.6175 C   0  0  0  0  0  0  0  0  0  0  0  0
   20.2014   19.9767   21.8758 H   0  0  0  0  0  0  0  0  0  0  0  0
   21.6921   19.2875   22.4951 H   0  0  0  0  0  0  0  0  0  0  0  0
   20.2690   19.7619   24.0519 C   0  0  0  0  0  0  0  0  0  0  0  0
   20.1807   18.9076   24.7362 H   0  0  0  0  0  0  0  0  0  0  0  0
   21.1259   20.3461   24.4129 H   0  0  0  0  0  0  0  0  0  0  0  0
   19.0150   20.6633   24.1560 C   0  0  1  0  0  0  0  0  0  0  0  0
   19.1599   21.5242   23.4961 H   0  0  0  0  0  0  0  0  0  0  0  0
   17.7246   19.9439   23.7279 C   0  0  0  0  0  0  0  0  0  0  0  0
   17.5733   19.0225   24.3037 H   0  0  0  0  0  0  0  0  0  0  0  0
   17.7510   19.6894   22.6621 H   0  0  0  0  0  0  0  0  0  0  0  0
   16.8518   20.5898   23.8836 H   0  0  0  0  0  0  0  0  0  0  0  0
   18.8637   21.2182   25.5453 N   0  3  0  0  0  0  0  0  0  0  0  0
   19.6933   21.7445   25.8340 H   0  0  0  0  0  0  0  0  0  0  0  0
   18.0632   21.8534   25.6093 H   0  0  0  0  0  0  0  0  0  0  0  0
   18.7177   20.4734   26.2319 H   0  0  0  0  0  0  0  0  0  0  0  0
  1  2  1  0  0  0  0
  1  3  1  0  0  0  0
  1  4  1  0  0  0  0
  1  5  1  0  0  0  0
  5  6  1  0  0  0  0
  5  7  1  0  0  0  0
  5  8  1  0  0  0  0
  8  9  1  0  0  0  0
  8 10  1  0  0  0  0
  8 11  1  0  0  0  0
 11 12  1  0  0  0  0
 11 13  1  0  0  0  0
 11 14  1  0  0  0  0
 14 15  1  0  0  0  0
 14 16  1  0  0  0  0
 14 17  1  0  0  0  0
 17 18  1  0  0  0  0
 17 19  1  0  0  0  0
 19 20  1  0  0  0  0
 19 21  1  0  0  0  0
 19 22  1  0  0  0  0
 17 23  1  0  0  0  0
 23 24  1  0  0  0  0
 23 25  1  0  0  0  0
 23 26  1  0  0  0  0
M  END
> <VConfSearch Rank>
864

> <Conf_Id>
34

> <Delta U+W>
3.568

> <U+W>
-26.731

> <U>
27.221

> <W>
-53.952

> <W(PB)>
-56.213

> <W(SA)>
2.261

> <Valence>
6.368

> <Coulomb>
19.698

> <VdW>
1.155

> <VdW6>
-8.532

> <VdW12>
9.687

> <Bond>
0.272

> <Angle>
1.847

> <Pdih>
4.248

> <Idih>
0.000

> <Tether>
0.000

$$$$
VeraChem MOL file


 26 25  0  0  0  0  0  0  0  0999 V2000     
   19.3449   18.7177   26.9628 C   0  0  0  0  0  0  0  0  0  0  0  0
   18.6251   19.5322   27.1170 H   0  0  0  0  0  0  0  0  0  0  0  0
   18.7926   17.7689   26.9624 H   0  0  0  0  0  0  0  0  0  0  0  0
   20.0312   18.7078   27.8194 H   0  0  0  0  0  0  0  0  0  0  0  0
   20.1228   18.9073   25.6433 C   0  0  0  0  0  0  0  0  0  0  0  0
   20.8574   18.0972   25.5337 H   0  0  0  0  0  0  0  0  0  0  0  0
   20.6912   19.8469   25.6872 H   0  0  0  0  0  0  0  0  0  0  0  0
   19.1791   18.9249   24.4203 C   0  0  0  0  0  0  0  0  0  0  0  0
   18.6116   17.9847   24.3827 H   0  0  0  0  0  0  0  0  0  0  0  0
   18.4452   19.7346   24.5360 H   0  0  0  0  0  0  0  0  0  0  0  0
   19.9542   19.1149   23.0968 C   0  0  0  0  0  0  0  0  0  0  0  0
   20.6865   18.3039   22.9889 H   0  0  0  0  0  0  0  0  0  0  0  0
   20.5211   20.0539   23.1466 H   0  0  0  0  0  0  0  0  0  0  0  0
   19.0007   19.1346   21.8737 C   0  0  0  0  0  0  0  0  0  0  0  0
   18.4060   18.2117   21.8653 H   0  0  0  0  0  0  0  0  0  0  0  0
   18.2812   19.9562   21.9877 H   0  0  0  0  0  0  0  0  0  0  0  0
   19.7025   19.2757   20.5021 C   0  0  1  0  0  0  0  0  0  0  0  0
   18.9233   19.2452   19.7341 H   0  0  0  0  0  0  0  0  0  0  0  0
   20.4384   20.6200   20.3640 C   0  0  0  0  0  0  0  0  0  0  0  0
   21.2988   20.6832   21.0407 H   0  0  0  0  0  0  0  0  0  0  0  0
   19.7650   21.4577   20.5840 H   0  0  0  0  0  0  0  0  0  0  0  0
   20.8081   20.7511   19.3396 H   0  0  0  0  0  0  0  0  0  0  0  0
   20.6237   18.1241   20.2068 N   0  3  0  0  0  0  0  0  0  0  0  0
   21.0306   18.2011   19.2703 H   0  0  0  0  0  0  0  0  0  0  0  0
   21.3972   18.0858   20.8750 H   0  0  0  0  0  0  0  0  0  0  0  0
   20.1311   17.2276   20.2531 H   0  0  0  0  0  0  0  0  0  0  0  0
  1  2  1  0  0  0  0
  1  3  1  0  0  0  0
  1  4  1  0  0  0  0
  1  5  1  0  0  0  0
  5  6  1  0  0  0  0
  5  7  1  0  0  0  0
  5  8  1  0  0  0  0
  8  9  1  0  0  0  0
  8 10  1  0  0  0  0
  8 11  1  0  0  0  0
 11 12  1  0  0  0  0
 11 13  1  0  0  0  0
 11 14  1  0  0  0  0
 14 15  1  0  0  0  0
 14 16  1  0  0  0  0
 14 17  1  0  0  0  0
 17 18  1  0  0  0  0
 17 19  1  0  0  0  0
 19 20  1  0  0  0  0
 19 21  1  0  0  0  0
 19 22  1  0  0  0  0
 17 23  1  0  0  0  0
 23 24  1  0  0  0  0
 23 25  1  0  0  0  0
 23 26  1  0  0  0  0
M  END
> <VConfSearch Rank>
865

> <Conf_Id>
132

> <Delta U+W>
0.363

> <U+W>
-29.936

> <U>
24.060

> <W>
-53.996

> <W(PB)>
-56.327

> <W(SA)>
2.332

> <Valence>
3.249

> <Coulomb>
19.781

> <VdW>
1.030

> <VdW6>
-7.421

> <VdW12>
8.451

> <Bond>
0.207

> <Angle>
1.205

> <Pdih>
1.837

> <Idih>
0.000

> <Tether>
0.000

$$$$
VeraChem MOL file


 26 25  0  0  0  0  0  0  0  0999 V2000     
   19.3686   17.4963   26.4881 C   0  0  0  0  0  0  0  0  0  0  0  0
   18.6449   16.7027   26.7151 H   0  0  0  0  0  0  0  0  0  0  0  0
   20.3528   17.1665   26.8455 H   0  0  0  0  0  0  0  0  0  0  0  0
   19.0794   18.3891   27.0577 H   0  0  0  0  0  0  0  0  0  0  0  0
   19.3975   17.7904   24.9732 C   0  0  0  0  0  0  0  0  0  0  0  0
   18.3885   18.0757   24.6476 H   0  0  0  0  0  0  0  0  0  0  0  0
   19.6610   16.8726   24.4293 H   0  0  0  0  0  0  0  0  0  0  0  0
   20.4082   18.9102   24.6296 C   0  0  0  0  0  0  0  0  0  0  0  0
   20.1130   19.8428   25.1301 H   0  0  0  0  0  0  0  0  0  0  0  0
   21.3913   18.6395   25.0391 H   0  0  0  0  0  0  0  0  0  0  0  0
   20.5643   19.1627   23.1096 C   0  0  0  0  0  0  0  0  0  0  0  0
   20.8660   18.2285   22.6180 H   0  0  0  0  0  0  0  0  0  0  0  0
   21.3926   19.8690   22.9691 H   0  0  0  0  0  0  0  0  0  0  0  0
   19.2800   19.7284   22.4436 C   0  0  0  0  0  0  0  0  0  0  0  0
   18.4597   19.0091   22.5559 H   0  0  0  0  0  0  0  0  0  0  0  0
   18.9633   20.6351   22.9757 H   0  0  0  0  0  0  0  0  0  0  0  0
   19.4188   20.0578   20.9382 C   0  0  1  0  0  0  0  0  0  0  0  0
   18.4368   20.3901   20.5875 H   0  0  0  0  0  0  0  0  0  0  0  0
   20.4132   21.2042   20.6830 C   0  0  0  0  0  0  0  0  0  0  0  0
   21.4432   20.9090   20.9150 H   0  0  0  0  0  0  0  0  0  0  0  0
   20.1612   22.0819   21.2911 H   0  0  0  0  0  0  0  0  0  0  0  0
   20.3827   21.5100   19.6301 H   0  0  0  0  0  0  0  0  0  0  0  0
   19.7676   18.8481   20.1154 N   0  3  0  0  0  0  0  0  0  0  0  0
   19.0840   18.0967   20.2437 H   0  0  0  0  0  0  0  0  0  0  0  0
   19.7940   19.0701   19.1162 H   0  0  0  0  0  0  0  0  0  0  0  0
   20.6857   18.4769   20.3715 H   0  0  0  0  0  0  0  0  0  0  0  0
  1  2  1  0  0  0  0
  1  3  1  0  0  0  0
  1  4  1  0  0  0  0
  1  5  1  0  0  0  0
  5  6  1  0  0  0  0
  5  7  1  0  0  0  0
  5  8  1  0  0  0  0
  8  9  1  0  0  0  0
  8 10  1  0  0  0  0
  8 11  1  0  0  0  0
 11 12  1  0  0  0  0
 11 13  1  0  0  0  0
 11 14  1  0  0  0  0
 14 15  1  0  0  0  0
 14 16  1  0  0  0  0
 14 17  1  0  0  0  0
 17 18  1  0  0  0  0
 17 19  1  0  0  0  0
 19 20  1  0  0  0  0
 19 21  1  0  0  0  0
 19 22  1  0  0  0  0
 17 23  1  0  0  0  0
 23 24  1  0  0  0  0
 23 25  1  0  0  0  0
 23 26  1  0  0  0  0
M  END
> <VConfSearch Rank>
866

> <Conf_Id>
46

> <Delta U+W>
1.114

> <U+W>
-29.185

> <U>
24.990

> <W>
-54.175

> <W(PB)>
-56.455

> <W(SA)>
2.279

> <Valence>
3.862

> <Coulomb>
19.956

> <VdW>
1.172

> <VdW6>
-8.054

> <VdW12>
9.226

> <Bond>
0.258

> <Angle>
1.499

> <Pdih>
2.106

> <Idih>
0.000

> <Tether>
0.000

$$$$
VeraChem MOL file


 26 25  0  0  0  0  0  0  0  0999 V2000     
   19.8341   22.0616   20.7534 C   0  0  0  0  0  0  0  0  0  0  0  0
   19.0478   22.3423   21.4649 H   0  0  0  0  0  0  0  0  0  0  0  0
   20.7847   22.4818   21.1068 H   0  0  0  0  0  0  0  0  0  0  0  0
   19.5938   22.5364   19.7933 H   0  0  0  0  0  0  0  0  0  0  0  0
   19.9313   20.5279   20.5882 C   0  0  0  0  0  0  0  0  0  0  0  0
   20.6381   20.3048   19.7768 H   0  0  0  0  0  0  0  0  0  0  0  0
   18.9593   20.1281   20.2671 H   0  0  0  0  0  0  0  0  0  0  0  0
   20.4014   19.7972   21.8693 C   0  0  0  0  0  0  0  0  0  0  0  0
   20.5635   18.7410   21.6178 H   0  0  0  0  0  0  0  0  0  0  0  0
   21.3776   20.1945   22.1798 H   0  0  0  0  0  0  0  0  0  0  0  0
   19.3961   19.9048   23.0441 C   0  0  0  0  0  0  0  0  0  0  0  0
   18.4120   19.5350   22.7271 H   0  0  0  0  0  0  0  0  0  0  0  0
   19.2532   20.9607   23.3078 H   0  0  0  0  0  0  0  0  0  0  0  0
   19.8616   19.1530   24.3177 C   0  0  0  0  0  0  0  0  0  0  0  0
   20.8021   19.5995   24.6670 H   0  0  0  0  0  0  0  0  0  0  0  0
   19.1283   19.3191   25.1181 H   0  0  0  0  0  0  0  0  0  0  0  0
   20.0675   17.6337   24.1230 C   0  0  1  0  0  0  0  0  0  0  0  0
   20.8185   17.4843   23.3418 H   0  0  0  0  0  0  0  0  0  0  0  0
   20.5925   16.9951   25.4186 C   0  0  0  0  0  0  0  0  0  0  0  0
   20.7788   15.9235   25.2754 H   0  0  0  0  0  0  0  0  0  0  0  0
   19.8726   17.1103   26.2385 H   0  0  0  0  0  0  0  0  0  0  0  0
   21.5380   17.4590   25.7262 H   0  0  0  0  0  0  0  0  0  0  0  0
   18.8162   16.9397   23.6592 N   0  3  0  0  0  0  0  0  0  0  0  0
   18.4795   17.3322   22.7758 H   0  0  0  0  0  0  0  0  0  0  0  0
   18.9755   15.9393   23.5105 H   0  0  0  0  0  0  0  0  0  0  0  0
   18.0625   17.0317   24.3452 H   0  0  0  0  0  0  0  0  0  0  0  0
  1  2  1  0  0  0  0
  1  3  1  0  0  0  0
  1  4  1  0  0  0  0
  1  5  1  0  0  0  0
  5  6  1  0  0  0  0
  5  7  1  0  0  0  0
  5  8  1  0  0  0  0
  8  9  1  0  0  0  0
  8 10  1  0  0  0  0
  8 11  1  0  0  0  0
 11 12  1  0  0  0  0
 11 13  1  0  0  0  0
 11 14  1  0  0  0  0
 14 15  1  0  0  0  0
 14 16  1  0  0  0  0
 14 17  1  0  0  0  0
 17 18  1  0  0  0  0
 17 19  1  0  0  0  0
 19 20  1  0  0  0  0
 19 21  1  0  0  0  0
 19 22  1  0  0  0  0
 17 23  1  0  0  0  0
 23 24  1  0  0  0  0
 23 25  1  0  0  0  0
 23 26  1  0  0  0  0
M  END
> <VConfSearch Rank>
867

> <Conf_Id>
113

> <Delta U+W>
1.137

> <U+W>
-29.162

> <U>
24.833

> <W>
-53.995

> <W(PB)>
-56.288

> <W(SA)>
2.294

> <Valence>
3.589

> <Coulomb>
20.270

> <VdW>
0.974

> <VdW6>
-8.255

> <VdW12>
9.229

> <Bond>
0.244

> <Angle>
1.377

> <Pdih>
1.967

> <Idih>
0.000

> <Tether>
0.000

$$$$
VeraChem MOL file


 26 25  0  0  0  0  0  0  0  0999 V2000     
   20.2452   15.6512   24.7054 C   0  0  0  0  0  0  0  0  0  0  0  0
   20.6920   15.5054   25.6975 H   0  0  0  0  0  0  0  0  0  0  0  0
   19.1893   15.3564   24.7646 H   0  0  0  0  0  0  0  0  0  0  0  0
   20.7509   14.9732   24.0055 H   0  0  0  0  0  0  0  0  0  0  0  0
   20.3859   17.1207   24.2549 C   0  0  0  0  0  0  0  0  0  0  0  0
   21.4500   17.3946   24.2337 H   0  0  0  0  0  0  0  0  0  0  0  0
   19.9047   17.7686   24.9994 H   0  0  0  0  0  0  0  0  0  0  0  0
   19.7588   17.3517   22.8596 C   0  0  0  0  0  0  0  0  0  0  0  0
   20.1977   16.6377   22.1490 H   0  0  0  0  0  0  0  0  0  0  0  0
   18.6835   17.1284   22.8952 H   0  0  0  0  0  0  0  0  0  0  0  0
   19.9747   18.7839   22.3119 C   0  0  0  0  0  0  0  0  0  0  0  0
   19.6046   18.8134   21.2788 H   0  0  0  0  0  0  0  0  0  0  0  0
   21.0521   18.9896   22.2617 H   0  0  0  0  0  0  0  0  0  0  0  0
   19.2596   19.8780   23.1510 C   0  0  0  0  0  0  0  0  0  0  0  0
   18.2054   19.6012   23.2831 H   0  0  0  0  0  0  0  0  0  0  0  0
   19.6928   19.9134   24.1584 H   0  0  0  0  0  0  0  0  0  0  0  0
   19.3203   21.3016   22.5483 C   0  0  1  0  0  0  0  0  0  0  0  0
   18.7758   21.9652   23.2273 H   0  0  0  0  0  0  0  0  0  0  0  0
   20.7640   21.8239   22.4454 C   0  0  0  0  0  0  0  0  0  0  0  0
   21.3473   21.2604   21.7076 H   0  0  0  0  0  0  0  0  0  0  0  0
   21.2741   21.7534   23.4141 H   0  0  0  0  0  0  0  0  0  0  0  0
   20.7698   22.8782   22.1427 H   0  0  0  0  0  0  0  0  0  0  0  0
   18.6168   21.3961   21.2222 N   0  3  0  0  0  0  0  0  0  0  0  0
   17.6421   21.0903   21.2914 H   0  0  0  0  0  0  0  0  0  0  0  0
   18.6111   22.3573   20.8694 H   0  0  0  0  0  0  0  0  0  0  0  0
   19.0733   20.8133   20.5164 H   0  0  0  0  0  0  0  0  0  0  0  0
  1  2  1  0  0  0  0
  1  3  1  0  0  0  0
  1  4  1  0  0  0  0
  1  5  1  0  0  0  0
  5  6  1  0  0  0  0
  5  7  1  0  0  0  0
  5  8  1  0  0  0  0
  8  9  1  0  0  0  0
  8 10  1  0  0  0  0
  8 11  1  0  0  0  0
 11 12  1  0  0  0  0
 11 13  1  0  0  0  0
 11 14  1  0  0  0  0
 14 15  1  0  0  0  0
 14 16  1  0  0  0  0
 14 17  1  0  0  0  0
 17 18  1  0  0  0  0
 17 19  1  0  0  0  0
 19 20  1  0  0  0  0
 19 21  1  0  0  0  0
 19 22  1  0  0  0  0
 17 23  1  0  0  0  0
 23 24  1  0  0  0  0
 23 25  1  0  0  0  0
 23 26  1  0  0  0  0
M  END
> <VConfSearch Rank>
868

> <Conf_Id>
45

> <Delta U+W>
1.035

> <U+W>
-29.264

> <U>
24.725

> <W>
-53.989

> <W(PB)>
-56.298

> <W(SA)>
2.309

> <Valence>
3.780

> <Coulomb>
19.804

> <VdW>
1.141

> <VdW6>
-8.104

> <VdW12>
9.246

> <Bond>
0.254

> <Angle>
1.437

> <Pdih>
2.089

> <Idih>
0.000

> <Tether>
0.000

$$$$
VeraChem MOL file


 26 25  0  0  0  0  0  0  0  0999 V2000     
   18.1142   22.3376   21.2942 C   0  0  0  0  0  0  0  0  0  0  0  0
   18.5422   23.3474   21.3401 H   0  0  0  0  0  0  0  0  0  0  0  0
   17.8118   22.1471   20.2562 H   0  0  0  0  0  0  0  0  0  0  0  0
   17.2128   22.3248   21.9209 H   0  0  0  0  0  0  0  0  0  0  0  0
   19.1391   21.2888   21.7758 C   0  0  0  0  0  0  0  0  0  0  0  0
   19.4470   21.5377   22.7999 H   0  0  0  0  0  0  0  0  0  0  0  0
   20.0398   21.3458   21.1488 H   0  0  0  0  0  0  0  0  0  0  0  0
   18.5558   19.8568   21.7242 C   0  0  0  0  0  0  0  0  0  0  0  0
   17.6886   19.7852   22.3952 H   0  0  0  0  0  0  0  0  0  0  0  0
   18.1772   19.6639   20.7108 H   0  0  0  0  0  0  0  0  0  0  0  0
   19.5817   18.7528   22.0811 C   0  0  0  0  0  0  0  0  0  0  0  0
   20.4473   18.8246   21.4080 H   0  0  0  0  0  0  0  0  0  0  0  0
   19.1148   17.7794   21.8813 H   0  0  0  0  0  0  0  0  0  0  0  0
   20.0599   18.8051   23.5552 C   0  0  0  0  0  0  0  0  0  0  0  0
   20.5470   19.7695   23.7445 H   0  0  0  0  0  0  0  0  0  0  0  0
   19.1945   18.7518   24.2289 H   0  0  0  0  0  0  0  0  0  0  0  0
   21.0590   17.6802   23.9043 C   0  0  1  0  0  0  0  0  0  0  0  0
   21.8934   17.7314   23.1980 H   0  0  0  0  0  0  0  0  0  0  0  0
   21.6154   17.8814   25.3231 C   0  0  0  0  0  0  0  0  0  0  0  0
   20.8155   17.8385   26.0730 H   0  0  0  0  0  0  0  0  0  0  0  0
   22.1153   18.8539   25.4120 H   0  0  0  0  0  0  0  0  0  0  0  0
   22.3525   17.1057   25.5648 H   0  0  0  0  0  0  0  0  0  0  0  0
   20.4570   16.3083   23.7655 N   0  3  0  0  0  0  0  0  0  0  0  0
   20.1241   16.1399   22.8126 H   0  0  0  0  0  0  0  0  0  0  0  0
   21.1390   15.5767   23.9847 H   0  0  0  0  0  0  0  0  0  0  0  0
   19.6612   16.1841   24.3969 H   0  0  0  0  0  0  0  0  0  0  0  0
  1  2  1  0  0  0  0
  1  3  1  0  0  0  0
  1  4  1  0  0  0  0
  1  5  1  0  0  0  0
  5  6  1  0  0  0  0
  5  7  1  0  0  0  0
  5  8  1  0  0  0  0
  8  9  1  0  0  0  0
  8 10  1  0  0  0  0
  8 11  1  0  0  0  0
 11 12  1  0  0  0  0
 11 13  1  0  0  0  0
 11 14  1  0  0  0  0
 14 15  1  0  0  0  0
 14 16  1  0  0  0  0
 14 17  1  0  0  0  0
 17 18  1  0  0  0  0
 17 19  1  0  0  0  0
 19 20  1  0  0  0  0
 19 21  1  0  0  0  0
 19 22  1  0  0  0  0
 17 23  1  0  0  0  0
 23 24  1  0  0  0  0
 23 25  1  0  0  0  0
 23 26  1  0  0  0  0
M  END
> <VConfSearch Rank>
869

> <Conf_Id>
121

> <Delta U+W>
0.736

> <U+W>
-29.562

> <U>
24.282

> <W>
-53.844

> <W(PB)>
-56.205

> <W(SA)>
2.361

> <Valence>
3.311

> <Coulomb>
19.887

> <VdW>
1.083

> <VdW6>
-7.444

> <VdW12>
8.527

> <Bond>
0.219

> <Angle>
1.167

> <Pdih>
1.926

> <Idih>
0.000

> <Tether>
0.000

$$$$
VeraChem MOL file


 26 25  0  0  0  0  0  0  0  0999 V2000     
   22.1152   21.4748   21.2620 C   0  0  0  0  0  0  0  0  0  0  0  0
   22.3490   22.4659   20.8522 H   0  0  0  0  0  0  0  0  0  0  0  0
   23.0328   21.0722   21.7102 H   0  0  0  0  0  0  0  0  0  0  0  0
   21.8309   20.8301   20.4213 H   0  0  0  0  0  0  0  0  0  0  0  0
   20.9831   21.5767   22.3095 C   0  0  0  0  0  0  0  0  0  0  0  0
   20.0673   21.9491   21.8296 H   0  0  0  0  0  0  0  0  0  0  0  0
   21.2640   22.3287   23.0601 H   0  0  0  0  0  0  0  0  0  0  0  0
   20.6891   20.2404   23.0333 C   0  0  0  0  0  0  0  0  0  0  0  0
   21.6056   19.8769   23.5181 H   0  0  0  0  0  0  0  0  0  0  0  0
   19.9711   20.4418   23.8391 H   0  0  0  0  0  0  0  0  0  0  0  0
   20.1226   19.1436   22.0961 C   0  0  0  0  0  0  0  0  0  0  0  0
   20.8476   18.9321   21.2997 H   0  0  0  0  0  0  0  0  0  0  0  0
   19.2201   19.5136   21.5923 H   0  0  0  0  0  0  0  0  0  0  0  0
   19.8165   17.8114   22.8288 C   0  0  0  0  0  0  0  0  0  0  0  0
   19.4478   17.0798   22.0977 H   0  0  0  0  0  0  0  0  0  0  0  0
   20.7599   17.4048   23.2163 H   0  0  0  0  0  0  0  0  0  0  0  0
   18.8062   17.9169   23.9959 C   0  0  1  0  0  0  0  0  0  0  0  0
   19.1909   18.6386   24.7224 H   0  0  0  0  0  0  0  0  0  0  0  0
   17.4218   18.3941   23.5220 C   0  0  0  0  0  0  0  0  0  0  0  0
   17.0173   17.7310   22.7472 H   0  0  0  0  0  0  0  0  0  0  0  0
   17.4697   19.4105   23.1142 H   0  0  0  0  0  0  0  0  0  0  0  0
   16.7122   18.4131   24.3583 H   0  0  0  0  0  0  0  0  0  0  0  0
   18.6848   16.6088   24.7272 N   0  3  0  0  0  0  0  0  0  0  0  0
   19.5894   16.2932   25.0888 H   0  0  0  0  0  0  0  0  0  0  0  0
   18.0477   16.6837   25.5252 H   0  0  0  0  0  0  0  0  0  0  0  0
   18.3235   15.8709   24.1169 H   0  0  0  0  0  0  0  0  0  0  0  0
  1  2  1  0  0  0  0
  1  3  1  0  0  0  0
  1  4  1  0  0  0  0
  1  5  1  0  0  0  0
  5  6  1  0  0  0  0
  5  7  1  0  0  0  0
  5  8  1  0  0  0  0
  8  9  1  0  0  0  0
  8 10  1  0  0  0  0
  8 11  1  0  0  0  0
 11 12  1  0  0  0  0
 11 13  1  0  0  0  0
 11 14  1  0  0  0  0
 14 15  1  0  0  0  0
 14 16  1  0  0  0  0
 14 17  1  0  0  0  0
 17 18  1  0  0  0  0
 17 19  1  0  0  0  0
 19 20  1  0  0  0  0
 19 21  1  0  0  0  0
 19 22  1  0  0  0  0
 17 23  1  0  0  0  0
 23 24  1  0  0  0  0
 23 25  1  0  0  0  0
 23 26  1  0  0  0  0
M  END
> <VConfSearch Rank>
870

> <Conf_Id>
5

> <Delta U+W>
1.233

> <U+W>
-29.065

> <U>
25.023

> <W>
-54.088

> <W(PB)>
-56.383

> <W(SA)>
2.296

> <Valence>
4.083

> <Coulomb>
19.893

> <VdW>
1.047

> <VdW6>
-8.479

> <VdW12>
9.527

> <Bond>
0.256

> <Angle>
1.716

> <Pdih>
2.112

> <Idih>
0.000

> <Tether>
0.000

$$$$
VeraChem MOL file


 26 25  0  0  0  0  0  0  0  0999 V2000     
   21.8955   16.1757   23.4898 C   0  0  0  0  0  0  0  0  0  0  0  0
   22.5862   15.5543   24.0745 H   0  0  0  0  0  0  0  0  0  0  0  0
   20.9118   15.6914   23.5208 H   0  0  0  0  0  0  0  0  0  0  0  0
   22.2458   16.1782   22.4495 H   0  0  0  0  0  0  0  0  0  0  0  0
   21.8432   17.6104   24.0625 C   0  0  0  0  0  0  0  0  0  0  0  0
   22.8687   18.0000   24.1290 H   0  0  0  0  0  0  0  0  0  0  0  0
   21.4572   17.5850   25.0912 H   0  0  0  0  0  0  0  0  0  0  0  0
   20.9977   18.5866   23.2090 C   0  0  0  0  0  0  0  0  0  0  0  0
   21.1379   19.5967   23.6150 H   0  0  0  0  0  0  0  0  0  0  0  0
   21.3848   18.6040   22.1809 H   0  0  0  0  0  0  0  0  0  0  0  0
   19.4868   18.2447   23.1958 C   0  0  0  0  0  0  0  0  0  0  0  0
   19.1001   18.2578   24.2242 H   0  0  0  0  0  0  0  0  0  0  0  0
   19.3450   17.2209   22.8266 H   0  0  0  0  0  0  0  0  0  0  0  0
   18.6327   19.1915   22.3145 C   0  0  0  0  0  0  0  0  0  0  0  0
   18.9543   19.1216   21.2668 H   0  0  0  0  0  0  0  0  0  0  0  0
   17.6014   18.8150   22.3318 H   0  0  0  0  0  0  0  0  0  0  0  0
   18.6441   20.6657   22.7873 C   0  0  1  0  0  0  0  0  0  0  0  0
   18.9965   20.6892   23.8231 H   0  0  0  0  0  0  0  0  0  0  0  0
   19.5837   21.5296   21.9263 C   0  0  0  0  0  0  0  0  0  0  0  0
   19.2346   21.5773   20.8873 H   0  0  0  0  0  0  0  0  0  0  0  0
   20.6040   21.1303   21.9202 H   0  0  0  0  0  0  0  0  0  0  0  0
   19.6311   22.5542   22.3152 H   0  0  0  0  0  0  0  0  0  0  0  0
   17.2634   21.2626   22.8016 N   0  3  0  0  0  0  0  0  0  0  0  0
   16.6299   20.7320   23.4067 H   0  0  0  0  0  0  0  0  0  0  0  0
   17.2762   22.2268   23.1460 H   0  0  0  0  0  0  0  0  0  0  0  0
   16.8526   21.2788   21.8642 H   0  0  0  0  0  0  0  0  0  0  0  0
  1  2  1  0  0  0  0
  1  3  1  0  0  0  0
  1  4  1  0  0  0  0
  1  5  1  0  0  0  0
  5  6  1  0  0  0  0
  5  7  1  0  0  0  0
  5  8  1  0  0  0  0
  8  9  1  0  0  0  0
  8 10  1  0  0  0  0
  8 11  1  0  0  0  0
 11 12  1  0  0  0  0
 11 13  1  0  0  0  0
 11 14  1  0  0  0  0
 14 15  1  0  0  0  0
 14 16  1  0  0  0  0
 14 17  1  0  0  0  0
 17 18  1  0  0  0  0
 17 19  1  0  0  0  0
 19 20  1  0  0  0  0
 19 21  1  0  0  0  0
 19 22  1  0  0  0  0
 17 23  1  0  0  0  0
 23 24  1  0  0  0  0
 23 25  1  0  0  0  0
 23 26  1  0  0  0  0
M  END
> <VConfSearch Rank>
871

> <Conf_Id>
100

> <Delta U+W>
3.818

> <U+W>
-26.481

> <U>
27.496

> <W>
-53.977

> <W(PB)>
-56.267

> <W(SA)>
2.290

> <Valence>
6.472

> <Coulomb>
19.839

> <VdW>
1.185

> <VdW6>
-8.405

> <VdW12>
9.590

> <Bond>
0.248

> <Angle>
1.619

> <Pdih>
4.604

> <Idih>
0.000

> <Tether>
0.000

$$$$
VeraChem MOL file


 26 25  0  0  0  0  0  0  0  0999 V2000     
   20.8978   22.2835   24.4893 C   0  0  0  0  0  0  0  0  0  0  0  0
   21.6070   22.6576   25.2389 H   0  0  0  0  0  0  0  0  0  0  0  0
   21.3114   22.5010   23.4959 H   0  0  0  0  0  0  0  0  0  0  0  0
   19.9617   22.8462   24.6007 H   0  0  0  0  0  0  0  0  0  0  0  0
   20.6600   20.7694   24.6720 C   0  0  0  0  0  0  0  0  0  0  0  0
   20.2797   20.5800   25.6856 H   0  0  0  0  0  0  0  0  0  0  0  0
   21.6182   20.2376   24.5883 H   0  0  0  0  0  0  0  0  0  0  0  0
   19.6640   20.2166   23.6287 C   0  0  0  0  0  0  0  0  0  0  0  0
   18.7095   20.7535   23.7180 H   0  0  0  0  0  0  0  0  0  0  0  0
   20.0461   20.4237   22.6222 H   0  0  0  0  0  0  0  0  0  0  0  0
   19.4199   18.6989   23.8158 C   0  0  0  0  0  0  0  0  0  0  0  0
   19.0166   18.5423   24.8259 H   0  0  0  0  0  0  0  0  0  0  0  0
   20.3727   18.1548   23.7852 H   0  0  0  0  0  0  0  0  0  0  0  0
   18.4140   18.1013   22.7925 C   0  0  0  0  0  0  0  0  0  0  0  0
   17.8223   17.3294   23.3021 H   0  0  0  0  0  0  0  0  0  0  0  0
   17.6883   18.8678   22.4903 H   0  0  0  0  0  0  0  0  0  0  0  0
   19.0320   17.4522   21.5291 C   0  0  1  0  0  0  0  0  0  0  0  0
   18.2009   17.0945   20.9133 H   0  0  0  0  0  0  0  0  0  0  0  0
   19.8407   18.4457   20.6794 C   0  0  0  0  0  0  0  0  0  0  0  0
   20.7619   18.7528   21.1884 H   0  0  0  0  0  0  0  0  0  0  0  0
   19.2484   19.3418   20.4567 H   0  0  0  0  0  0  0  0  0  0  0  0
   20.1246   17.9890   19.7234 H   0  0  0  0  0  0  0  0  0  0  0  0
   19.8543   16.2359   21.8572 N   0  3  0  0  0  0  0  0  0  0  0  0
   19.3084   15.5420   22.3758 H   0  0  0  0  0  0  0  0  0  0  0  0
   20.2014   15.7793   21.0090 H   0  0  0  0  0  0  0  0  0  0  0  0
   20.6668   16.4784   22.4293 H   0  0  0  0  0  0  0  0  0  0  0  0
  1  2  1  0  0  0  0
  1  3  1  0  0  0  0
  1  4  1  0  0  0  0
  1  5  1  0  0  0  0
  5  6  1  0  0  0  0
  5  7  1  0  0  0  0
  5  8  1  0  0  0  0
  8  9  1  0  0  0  0
  8 10  1  0  0  0  0
  8 11  1  0  0  0  0
 11 12  1  0  0  0  0
 11 13  1  0  0  0  0
 11 14  1  0  0  0  0
 14 15  1  0  0  0  0
 14 16  1  0  0  0  0
 14 17  1  0  0  0  0
 17 18  1  0  0  0  0
 17 19  1  0  0  0  0
 19 20  1  0  0  0  0
 19 21  1  0  0  0  0
 19 22  1  0  0  0  0
 17 23  1  0  0  0  0
 23 24  1  0  0  0  0
 23 25  1  0  0  0  0
 23 26  1  0  0  0  0
M  END
> <VConfSearch Rank>
872

> <Conf_Id>
142

> <Delta U+W>
2.978

> <U+W>
-27.320

> <U>
26.848

> <W>
-54.168

> <W(PB)>
-56.427

> <W(SA)>
2.259

> <Valence>
5.823

> <Coulomb>
20.057

> <VdW>
0.968

> <VdW6>
-8.367

> <VdW12>
9.335

> <Bond>
0.267

> <Angle>
1.799

> <Pdih>
3.758

> <Idih>
0.000

> <Tether>
0.000

$$$$
VeraChem MOL file


 26 25  0  0  0  0  0  0  0  0999 V2000     
   23.2676   19.7190   22.6460 C   0  0  0  0  0  0  0  0  0  0  0  0
   23.5607   18.7306   23.0229 H   0  0  0  0  0  0  0  0  0  0  0  0
   24.1182   20.1300   22.0868 H   0  0  0  0  0  0  0  0  0  0  0  0
   23.0916   20.3770   23.5057 H   0  0  0  0  0  0  0  0  0  0  0  0
   22.0212   19.6204   21.7370 C   0  0  0  0  0  0  0  0  0  0  0  0
   22.2923   19.0615   20.8304 H   0  0  0  0  0  0  0  0  0  0  0  0
   21.7261   20.6245   21.4016 H   0  0  0  0  0  0  0  0  0  0  0  0
   20.8177   18.9166   22.4098 C   0  0  0  0  0  0  0  0  0  0  0  0
   20.0543   18.7604   21.6389 H   0  0  0  0  0  0  0  0  0  0  0  0
   21.1252   17.9223   22.7620 H   0  0  0  0  0  0  0  0  0  0  0  0
   20.2060   19.7262   23.5809 C   0  0  0  0  0  0  0  0  0  0  0  0
   19.8420   20.6936   23.2103 H   0  0  0  0  0  0  0  0  0  0  0  0
   20.9956   19.9645   24.3045 H   0  0  0  0  0  0  0  0  0  0  0  0
   19.0762   18.9927   24.3580 C   0  0  0  0  0  0  0  0  0  0  0  0
   19.4860   18.0874   24.8245 H   0  0  0  0  0  0  0  0  0  0  0  0
   18.7750   19.6383   25.1934 H   0  0  0  0  0  0  0  0  0  0  0  0
   17.7919   18.6179   23.5747 C   0  0  1  0  0  0  0  0  0  0  0  0
   17.0407   18.3369   24.3194 H   0  0  0  0  0  0  0  0  0  0  0  0
   17.2221   19.8026   22.7752 C   0  0  0  0  0  0  0  0  0  0  0  0
   17.8804   20.0854   21.9451 H   0  0  0  0  0  0  0  0  0  0  0  0
   17.0874   20.6786   23.4218 H   0  0  0  0  0  0  0  0  0  0  0  0
   16.2424   19.5461   22.3540 H   0  0  0  0  0  0  0  0  0  0  0  0
   17.9605   17.4004   22.7076 N   0  3  0  0  0  0  0  0  0  0  0  0
   18.2708   16.5918   23.2539 H   0  0  0  0  0  0  0  0  0  0  0  0
   17.0804   17.1412   22.2530 H   0  0  0  0  0  0  0  0  0  0  0  0
   18.6520   17.5589   21.9723 H   0  0  0  0  0  0  0  0  0  0  0  0
  1  2  1  0  0  0  0
  1  3  1  0  0  0  0
  1  4  1  0  0  0  0
  1  5  1  0  0  0  0
  5  6  1  0  0  0  0
  5  7  1  0  0  0  0
  5  8  1  0  0  0  0
  8  9  1  0  0  0  0
  8 10  1  0  0  0  0
  8 11  1  0  0  0  0
 11 12  1  0  0  0  0
 11 13  1  0  0  0  0
 11 14  1  0  0  0  0
 14 15  1  0  0  0  0
 14 16  1  0  0  0  0
 14 17  1  0  0  0  0
 17 18  1  0  0  0  0
 17 19  1  0  0  0  0
 19 20  1  0  0  0  0
 19 21  1  0  0  0  0
 19 22  1  0  0  0  0
 17 23  1  0  0  0  0
 23 24  1  0  0  0  0
 23 25  1  0  0  0  0
 23 26  1  0  0  0  0
M  END
> <VConfSearch Rank>
873

> <Conf_Id>
119

> <Delta U+W>
3.538

> <U+W>
-26.761

> <U>
27.482

> <W>
-54.243

> <W(PB)>
-56.494

> <W(SA)>
2.251

> <Valence>
5.284

> <Coulomb>
21.247

> <VdW>
0.951

> <VdW6>
-9.416

> <VdW12>
10.367

> <Bond>
0.323

> <Angle>
2.522

> <Pdih>
2.439

> <Idih>
0.000

> <Tether>
0.000

$$$$
VeraChem MOL file


 26 25  0  0  0  0  0  0  0  0999 V2000     
   17.3861   21.5955   23.1743 C   0  0  0  0  0  0  0  0  0  0  0  0
   16.9970   21.4597   24.1918 H   0  0  0  0  0  0  0  0  0  0  0  0
   18.3424   22.1291   23.2396 H   0  0  0  0  0  0  0  0  0  0  0  0
   16.6848   22.2414   22.6303 H   0  0  0  0  0  0  0  0  0  0  0  0
   17.5415   20.2376   22.4528 C   0  0  0  0  0  0  0  0  0  0  0  0
   17.9610   20.3982   21.4498 H   0  0  0  0  0  0  0  0  0  0  0  0
   16.5443   19.8008   22.3022 H   0  0  0  0  0  0  0  0  0  0  0  0
   18.4155   19.2232   23.2291 C   0  0  0  0  0  0  0  0  0  0  0  0
   17.9756   19.0470   24.2203 H   0  0  0  0  0  0  0  0  0  0  0  0
   18.3737   18.2618   22.7038 H   0  0  0  0  0  0  0  0  0  0  0  0
   19.8894   19.6770   23.3897 C   0  0  0  0  0  0  0  0  0  0  0  0
   19.9083   20.5763   24.0193 H   0  0  0  0  0  0  0  0  0  0  0  0
   20.3006   19.9795   22.4181 H   0  0  0  0  0  0  0  0  0  0  0  0
   20.7950   18.6056   24.0592 C   0  0  0  0  0  0  0  0  0  0  0  0
   21.5143   19.1199   24.7101 H   0  0  0  0  0  0  0  0  0  0  0  0
   20.1960   17.9772   24.7315 H   0  0  0  0  0  0  0  0  0  0  0  0
   21.6048   17.7025   23.0957 C   0  0  1  0  0  0  0  0  0  0  0  0
   22.1769   17.0042   23.7146 H   0  0  0  0  0  0  0  0  0  0  0  0
   20.7107   16.8678   22.1646 C   0  0  0  0  0  0  0  0  0  0  0  0
   20.1861   17.4998   21.4380 H   0  0  0  0  0  0  0  0  0  0  0  0
   19.9657   16.3051   22.7404 H   0  0  0  0  0  0  0  0  0  0  0  0
   21.3131   16.1431   21.6034 H   0  0  0  0  0  0  0  0  0  0  0  0
   22.6216   18.4802   22.3054 N   0  3  0  0  0  0  0  0  0  0  0  0
   23.2584   18.9972   22.9184 H   0  0  0  0  0  0  0  0  0  0  0  0
   23.1935   17.8629   21.7221 H   0  0  0  0  0  0  0  0  0  0  0  0
   22.1725   19.1586   21.6857 H   0  0  0  0  0  0  0  0  0  0  0  0
  1  2  1  0  0  0  0
  1  3  1  0  0  0  0
  1  4  1  0  0  0  0
  1  5  1  0  0  0  0
  5  6  1  0  0  0  0
  5  7  1  0  0  0  0
  5  8  1  0  0  0  0
  8  9  1  0  0  0  0
  8 10  1  0  0  0  0
  8 11  1  0  0  0  0
 11 12  1  0  0  0  0
 11 13  1  0  0  0  0
 11 14  1  0  0  0  0
 14 15  1  0  0  0  0
 14 16  1  0  0  0  0
 14 17  1  0  0  0  0
 17 18  1  0  0  0  0
 17 19  1  0  0  0  0
 19 20  1  0  0  0  0
 19 21  1  0  0  0  0
 19 22  1  0  0  0  0
 17 23  1  0  0  0  0
 23 24  1  0  0  0  0
 23 25  1  0  0  0  0
 23 26  1  0  0  0  0
M  END
> <VConfSearch Rank>
874

> <Conf_Id>
127

> <Delta U+W>
3.544

> <U+W>
-26.754

> <U>
27.509

> <W>
-54.263

> <W(PB)>
-56.496

> <W(SA)>
2.232

> <Valence>
6.375

> <Coulomb>
20.014

> <VdW>
1.120

> <VdW6>
-8.976

> <VdW12>
10.096

> <Bond>
0.304

> <Angle>
1.986

> <Pdih>
4.086

> <Idih>
0.000

> <Tether>
0.000

$$$$
VeraChem MOL file


 26 25  0  0  0  0  0  0  0  0999 V2000     
   19.7277   19.7026   26.1303 C   0  0  0  0  0  0  0  0  0  0  0  0
   19.9084   20.5456   26.8098 H   0  0  0  0  0  0  0  0  0  0  0  0
   19.4902   18.8248   26.7452 H   0  0  0  0  0  0  0  0  0  0  0  0
   20.6636   19.4981   25.5989 H   0  0  0  0  0  0  0  0  0  0  0  0
   18.5665   20.0280   25.1621 C   0  0  0  0  0  0  0  0  0  0  0  0
   18.7804   20.9505   24.6046 H   0  0  0  0  0  0  0  0  0  0  0  0
   17.6728   20.2406   25.7654 H   0  0  0  0  0  0  0  0  0  0  0  0
   18.2382   18.8701   24.1844 C   0  0  0  0  0  0  0  0  0  0  0  0
   18.4914   17.9034   24.6410 H   0  0  0  0  0  0  0  0  0  0  0  0
   17.1499   18.8490   24.0339 H   0  0  0  0  0  0  0  0  0  0  0  0
   18.8993   18.9892   22.7868 C   0  0  0  0  0  0  0  0  0  0  0  0
   18.5494   19.9109   22.3032 H   0  0  0  0  0  0  0  0  0  0  0  0
   18.5291   18.1594   22.1716 H   0  0  0  0  0  0  0  0  0  0  0  0
   20.4508   18.9669   22.8147 C   0  0  0  0  0  0  0  0  0  0  0  0
   20.8141   19.8535   23.3482 H   0  0  0  0  0  0  0  0  0  0  0  0
   20.7940   18.0973   23.3903 H   0  0  0  0  0  0  0  0  0  0  0  0
   21.1278   18.9442   21.4236 C   0  0  1  0  0  0  0  0  0  0  0  0
   22.2079   19.0093   21.5883 H   0  0  0  0  0  0  0  0  0  0  0  0
   20.8551   17.6331   20.6653 C   0  0  0  0  0  0  0  0  0  0  0  0
   21.1158   16.7642   21.2822 H   0  0  0  0  0  0  0  0  0  0  0  0
   21.4614   17.5859   19.7525 H   0  0  0  0  0  0  0  0  0  0  0  0
   19.8028   17.5432   20.3716 H   0  0  0  0  0  0  0  0  0  0  0  0
   20.7611   20.1385   20.5861 N   0  3  0  0  0  0  0  0  0  0  0  0
   20.9846   21.0157   21.0647 H   0  0  0  0  0  0  0  0  0  0  0  0
   21.2648   20.1394   19.6947 H   0  0  0  0  0  0  0  0  0  0  0  0
   19.7607   20.1493   20.3733 H   0  0  0  0  0  0  0  0  0  0  0  0
  1  2  1  0  0  0  0
  1  3  1  0  0  0  0
  1  4  1  0  0  0  0
  1  5  1  0  0  0  0
  5  6  1  0  0  0  0
  5  7  1  0  0  0  0
  5  8  1  0  0  0  0
  8  9  1  0  0  0  0
  8 10  1  0  0  0  0
  8 11  1  0  0  0  0
 11 12  1  0  0  0  0
 11 13  1  0  0  0  0
 11 14  1  0  0  0  0
 14 15  1  0  0  0  0
 14 16  1  0  0  0  0
 14 17  1  0  0  0  0
 17 18  1  0  0  0  0
 17 19  1  0  0  0  0
 19 20  1  0  0  0  0
 19 21  1  0  0  0  0
 19 22  1  0  0  0  0
 17 23  1  0  0  0  0
 23 24  1  0  0  0  0
 23 25  1  0  0  0  0
 23 26  1  0  0  0  0
M  END
> <VConfSearch Rank>
875

> <Conf_Id>
131

> <Delta U+W>
3.589

> <U+W>
-26.710

> <U>
27.573

> <W>
-54.283

> <W(PB)>
-56.537

> <W(SA)>
2.254

> <Valence>
6.363

> <Coulomb>
20.026

> <VdW>
1.184

> <VdW6>
-8.939

> <VdW12>
10.123

> <Bond>
0.298

> <Angle>
2.018

> <Pdih>
4.047

> <Idih>
0.000

> <Tether>
0.000

$$$$
VeraChem MOL file


 26 25  0  0  0  0  0  0  0  0999 V2000     
   20.7344   20.9609   24.8605 C   0  0  0  0  0  0  0  0  0  0  0  0
   19.8254   20.7290   25.4305 H   0  0  0  0  0  0  0  0  0  0  0  0
   21.2164   20.0194   24.5701 H   0  0  0  0  0  0  0  0  0  0  0  0
   21.4255   21.4888   25.5303 H   0  0  0  0  0  0  0  0  0  0  0  0
   20.4119   21.8297   23.6253 C   0  0  0  0  0  0  0  0  0  0  0  0
   21.3283   21.9822   23.0383 H   0  0  0  0  0  0  0  0  0  0  0  0
   20.1009   22.8266   23.9675 H   0  0  0  0  0  0  0  0  0  0  0  0
   19.2991   21.2551   22.7118 C   0  0  0  0  0  0  0  0  0  0  0  0
   18.3490   21.2047   23.2612 H   0  0  0  0  0  0  0  0  0  0  0  0
   19.1329   21.9775   21.9006 H   0  0  0  0  0  0  0  0  0  0  0  0
   19.6283   19.8801   22.0734 C   0  0  0  0  0  0  0  0  0  0  0  0
   20.7131   19.7932   21.9312 H   0  0  0  0  0  0  0  0  0  0  0  0
   19.1854   19.8495   21.0682 H   0  0  0  0  0  0  0  0  0  0  0  0
   19.0723   18.6773   22.8807 C   0  0  0  0  0  0  0  0  0  0  0  0
   19.5039   18.6533   23.8874 H   0  0  0  0  0  0  0  0  0  0  0  0
   17.9919   18.8205   23.0137 H   0  0  0  0  0  0  0  0  0  0  0  0
   19.3006   17.3118   22.1933 C   0  0  1  0  0  0  0  0  0  0  0  0
   18.9115   17.3717   21.1722 H   0  0  0  0  0  0  0  0  0  0  0  0
   20.7930   16.9401   22.1265 C   0  0  0  0  0  0  0  0  0  0  0  0
   21.2442   16.9284   23.1265 H   0  0  0  0  0  0  0  0  0  0  0  0
   21.3538   17.6472   21.5048 H   0  0  0  0  0  0  0  0  0  0  0  0
   20.9236   15.9453   21.6831 H   0  0  0  0  0  0  0  0  0  0  0  0
   18.5243   16.2220   22.8793 N   0  3  0  0  0  0  0  0  0  0  0  0
   18.8299   16.0971   23.8480 H   0  0  0  0  0  0  0  0  0  0  0  0
   17.5211   16.4271   22.8970 H   0  0  0  0  0  0  0  0  0  0  0  0
   18.6420   15.3228   22.4038 H   0  0  0  0  0  0  0  0  0  0  0  0
  1  2  1  0  0  0  0
  1  3  1  0  0  0  0
  1  4  1  0  0  0  0
  1  5  1  0  0  0  0
  5  6  1  0  0  0  0
  5  7  1  0  0  0  0
  5  8  1  0  0  0  0
  8  9  1  0  0  0  0
  8 10  1  0  0  0  0
  8 11  1  0  0  0  0
 11 12  1  0  0  0  0
 11 13  1  0  0  0  0
 11 14  1  0  0  0  0
 14 15  1  0  0  0  0
 14 16  1  0  0  0  0
 14 17  1  0  0  0  0
 17 18  1  0  0  0  0
 17 19  1  0  0  0  0
 19 20  1  0  0  0  0
 19 21  1  0  0  0  0
 19 22  1  0  0  0  0
 17 23  1  0  0  0  0
 23 24  1  0  0  0  0
 23 25  1  0  0  0  0
 23 26  1  0  0  0  0
M  END
> <VConfSearch Rank>
876

> <Conf_Id>
80

> <Delta U+W>
3.351

> <U+W>
-26.948

> <U>
27.261

> <W>
-54.209

> <W(PB)>
-56.471

> <W(SA)>
2.263

> <Valence>
6.230

> <Coulomb>
19.945

> <VdW>
1.087

> <VdW6>
-8.618

> <VdW12>
9.704

> <Bond>
0.277

> <Angle>
1.928

> <Pdih>
4.025

> <Idih>
0.000

> <Tether>
0.000

$$$$
VeraChem MOL file


 26 25  0  0  0  0  0  0  0  0999 V2000     
   19.5338   21.1472   20.4096 C   0  0  0  0  0  0  0  0  0  0  0  0
   19.1172   21.0780   19.3964 H   0  0  0  0  0  0  0  0  0  0  0  0
   19.6819   22.2101   20.6404 H   0  0  0  0  0  0  0  0  0  0  0  0
   20.5150   20.6566   20.3966 H   0  0  0  0  0  0  0  0  0  0  0  0
   18.5836   20.4836   21.4318 C   0  0  0  0  0  0  0  0  0  0  0  0
   18.4732   19.4173   21.1958 H   0  0  0  0  0  0  0  0  0  0  0  0
   17.5812   20.9183   21.3141 H   0  0  0  0  0  0  0  0  0  0  0  0
   19.0276   20.6696   22.9062 C   0  0  0  0  0  0  0  0  0  0  0  0
   18.9728   21.7393   23.1509 H   0  0  0  0  0  0  0  0  0  0  0  0
   18.2906   20.1842   23.5559 H   0  0  0  0  0  0  0  0  0  0  0  0
   20.4591   20.1676   23.2483 C   0  0  0  0  0  0  0  0  0  0  0  0
   20.6926   20.4202   24.2917 H   0  0  0  0  0  0  0  0  0  0  0  0
   21.1789   20.7419   22.6504 H   0  0  0  0  0  0  0  0  0  0  0  0
   20.7200   18.6528   23.0157 C   0  0  0  0  0  0  0  0  0  0  0  0
   20.1330   18.2762   22.1707 H   0  0  0  0  0  0  0  0  0  0  0  0
   21.7697   18.5445   22.7123 H   0  0  0  0  0  0  0  0  0  0  0  0
   20.5073   17.7492   24.2544 C   0  0  1  0  0  0  0  0  0  0  0  0
   21.1565   18.1124   25.0570 H   0  0  0  0  0  0  0  0  0  0  0  0
   19.0579   17.7641   24.7673 C   0  0  0  0  0  0  0  0  0  0  0  0
   18.8058   18.7394   25.1980 H   0  0  0  0  0  0  0  0  0  0  0  0
   18.9197   17.0193   25.5607 H   0  0  0  0  0  0  0  0  0  0  0  0
   18.3474   17.5407   23.9618 H   0  0  0  0  0  0  0  0  0  0  0  0
   20.9412   16.3379   23.9690 N   0  3  0  0  0  0  0  0  0  0  0  0
   21.9200   16.2968   23.6711 H   0  0  0  0  0  0  0  0  0  0  0  0
   20.8506   15.7440   24.7981 H   0  0  0  0  0  0  0  0  0  0  0  0
   20.3759   15.9154   23.2278 H   0  0  0  0  0  0  0  0  0  0  0  0
  1  2  1  0  0  0  0
  1  3  1  0  0  0  0
  1  4  1  0  0  0  0
  1  5  1  0  0  0  0
  5  6  1  0  0  0  0
  5  7  1  0  0  0  0
  5  8  1  0  0  0  0
  8  9  1  0  0  0  0
  8 10  1  0  0  0  0
  8 11  1  0  0  0  0
 11 12  1  0  0  0  0
 11 13  1  0  0  0  0
 11 14  1  0  0  0  0
 14 15  1  0  0  0  0
 14 16  1  0  0  0  0
 14 17  1  0  0  0  0
 17 18  1  0  0  0  0
 17 19  1  0  0  0  0
 19 20  1  0  0  0  0
 19 21  1  0  0  0  0
 19 22  1  0  0  0  0
 17 23  1  0  0  0  0
 23 24  1  0  0  0  0
 23 25  1  0  0  0  0
 23 26  1  0  0  0  0
M  END
> <VConfSearch Rank>
877

> <Conf_Id>
136

> <Delta U+W>
4.272

> <U+W>
-26.026

> <U>
28.262

> <W>
-54.288

> <W(PB)>
-56.488

> <W(SA)>
2.200

> <Valence>
7.096

> <Coulomb>
19.990

> <VdW>
1.175

> <VdW6>
-9.404

> <VdW12>
10.580

> <Bond>
0.360

> <Angle>
2.785

> <Pdih>
3.951

> <Idih>
0.000

> <Tether>
0.000

$$$$
VeraChem MOL file


 26 25  0  0  0  0  0  0  0  0999 V2000     
   18.1550   21.5641   22.2675 C   0  0  0  0  0  0  0  0  0  0  0  0
   18.1561   20.6254   21.6999 H   0  0  0  0  0  0  0  0  0  0  0  0
   17.3695   22.2026   21.8431 H   0  0  0  0  0  0  0  0  0  0  0  0
   19.1176   22.0685   22.1129 H   0  0  0  0  0  0  0  0  0  0  0  0
   17.8926   21.3120   23.7684 C   0  0  0  0  0  0  0  0  0  0  0  0
   16.9511   20.7574   23.8854 H   0  0  0  0  0  0  0  0  0  0  0  0
   17.7391   22.2797   24.2663 H   0  0  0  0  0  0  0  0  0  0  0  0
   19.0334   20.5586   24.4991 C   0  0  0  0  0  0  0  0  0  0  0  0
   19.9561   21.1545   24.4749 H   0  0  0  0  0  0  0  0  0  0  0  0
   18.7553   20.4872   25.5597 H   0  0  0  0  0  0  0  0  0  0  0  0
   19.3036   19.1249   23.9725 C   0  0  0  0  0  0  0  0  0  0  0  0
   18.3831   18.7013   23.5475 H   0  0  0  0  0  0  0  0  0  0  0  0
   19.5646   18.4903   24.8299 H   0  0  0  0  0  0  0  0  0  0  0  0
   20.4568   19.0588   22.9376 C   0  0  0  0  0  0  0  0  0  0  0  0
   20.2647   19.7666   22.1235 H   0  0  0  0  0  0  0  0  0  0  0  0
   21.3941   19.3813   23.4102 H   0  0  0  0  0  0  0  0  0  0  0  0
   20.6409   17.6501   22.3329 C   0  0  1  0  0  0  0  0  0  0  0  0
   19.6891   17.3404   21.8904 H   0  0  0  0  0  0  0  0  0  0  0  0
   21.7021   17.6799   21.2213 C   0  0  0  0  0  0  0  0  0  0  0  0
   22.6802   17.9848   21.6141 H   0  0  0  0  0  0  0  0  0  0  0  0
   21.4176   18.3837   20.4292 H   0  0  0  0  0  0  0  0  0  0  0  0
   21.8117   16.6896   20.7623 H   0  0  0  0  0  0  0  0  0  0  0  0
   20.9922   16.6183   23.3700 N   0  3  0  0  0  0  0  0  0  0  0  0
   21.8765   16.8415   23.8341 H   0  0  0  0  0  0  0  0  0  0  0  0
   20.2713   16.5549   24.0936 H   0  0  0  0  0  0  0  0  0  0  0  0
   21.0906   15.6879   22.9539 H   0  0  0  0  0  0  0  0  0  0  0  0
  1  2  1  0  0  0  0
  1  3  1  0  0  0  0
  1  4  1  0  0  0  0
  1  5  1  0  0  0  0
  5  6  1  0  0  0  0
  5  7  1  0  0  0  0
  5  8  1  0  0  0  0
  8  9  1  0  0  0  0
  8 10  1  0  0  0  0
  8 11  1  0  0  0  0
 11 12  1  0  0  0  0
 11 13  1  0  0  0  0
 11 14  1  0  0  0  0
 14 15  1  0  0  0  0
 14 16  1  0  0  0  0
 14 17  1  0  0  0  0
 17 18  1  0  0  0  0
 17 19  1  0  0  0  0
 19 20  1  0  0  0  0
 19 21  1  0  0  0  0
 19 22  1  0  0  0  0
 17 23  1  0  0  0  0
 23 24  1  0  0  0  0
 23 25  1  0  0  0  0
 23 26  1  0  0  0  0
M  END
> <VConfSearch Rank>
878

> <Conf_Id>
124

> <Delta U+W>
3.001

> <U+W>
-27.298

> <U>
26.787

> <W>
-54.085

> <W(PB)>
-56.347

> <W(SA)>
2.262

> <Valence>
5.742

> <Coulomb>
20.023

> <VdW>
1.022

> <VdW6>
-8.392

> <VdW12>
9.414

> <Bond>
0.261

> <Angle>
1.576

> <Pdih>
3.904

> <Idih>
0.000

> <Tether>
0.000

$$$$
VeraChem MOL file


 26 25  0  0  0  0  0  0  0  0999 V2000     
   17.8722   16.6487   23.0343 C   0  0  0  0  0  0  0  0  0  0  0  0
   18.3437   15.7064   22.7264 H   0  0  0  0  0  0  0  0  0  0  0  0
   16.8121   16.4416   23.2299 H   0  0  0  0  0  0  0  0  0  0  0  0
   17.9234   17.3433   22.1889 H   0  0  0  0  0  0  0  0  0  0  0  0
   18.5538   17.2189   24.3001 C   0  0  0  0  0  0  0  0  0  0  0  0
   18.4348   16.4833   25.1080 H   0  0  0  0  0  0  0  0  0  0  0  0
   18.0336   18.1257   24.6387 H   0  0  0  0  0  0  0  0  0  0  0  0
   20.0663   17.5032   24.1115 C   0  0  0  0  0  0  0  0  0  0  0  0
   20.5759   17.2788   25.0588 H   0  0  0  0  0  0  0  0  0  0  0  0
   20.4949   16.8100   23.3746 H   0  0  0  0  0  0  0  0  0  0  0  0
   20.4121   18.9666   23.7327 C   0  0  0  0  0  0  0  0  0  0  0  0
   21.5056   19.0602   23.7114 H   0  0  0  0  0  0  0  0  0  0  0  0
   20.0620   19.6331   24.5321 H   0  0  0  0  0  0  0  0  0  0  0  0
   19.8258   19.4256   22.3714 C   0  0  0  0  0  0  0  0  0  0  0  0
   20.0554   18.6739   21.6050 H   0  0  0  0  0  0  0  0  0  0  0  0
   18.7321   19.4699   22.4439 H   0  0  0  0  0  0  0  0  0  0  0  0
   20.3309   20.8018   21.8772 C   0  0  1  0  0  0  0  0  0  0  0  0
   19.8406   21.0031   20.9196 H   0  0  0  0  0  0  0  0  0  0  0  0
   19.9502   21.9374   22.8432 C   0  0  0  0  0  0  0  0  0  0  0  0
   20.4791   21.8498   23.7997 H   0  0  0  0  0  0  0  0  0  0  0  0
   18.8717   21.9326   23.0446 H   0  0  0  0  0  0  0  0  0  0  0  0
   20.2029   22.9121   22.4083 H   0  0  0  0  0  0  0  0  0  0  0  0
   21.8085   20.8057   21.5959 N   0  3  0  0  0  0  0  0  0  0  0  0
   22.1134   21.7035   21.2094 H   0  0  0  0  0  0  0  0  0  0  0  0
   22.3500   20.6389   22.4474 H   0  0  0  0  0  0  0  0  0  0  0  0
   22.0642   20.0797   20.9206 H   0  0  0  0  0  0  0  0  0  0  0  0
  1  2  1  0  0  0  0
  1  3  1  0  0  0  0
  1  4  1  0  0  0  0
  1  5  1  0  0  0  0
  5  6  1  0  0  0  0
  5  7  1  0  0  0  0
  5  8  1  0  0  0  0
  8  9  1  0  0  0  0
  8 10  1  0  0  0  0
  8 11  1  0  0  0  0
 11 12  1  0  0  0  0
 11 13  1  0  0  0  0
 11 14  1  0  0  0  0
 14 15  1  0  0  0  0
 14 16  1  0  0  0  0
 14 17  1  0  0  0  0
 17 18  1  0  0  0  0
 17 19  1  0  0  0  0
 19 20  1  0  0  0  0
 19 21  1  0  0  0  0
 19 22  1  0  0  0  0
 17 23  1  0  0  0  0
 23 24  1  0  0  0  0
 23 25  1  0  0  0  0
 23 26  1  0  0  0  0
M  END
> <VConfSearch Rank>
879

> <Conf_Id>
105

> <Delta U+W>
3.442

> <U+W>
-26.857

> <U>
27.313

> <W>
-54.169

> <W(PB)>
-56.414

> <W(SA)>
2.245

> <Valence>
6.229

> <Coulomb>
19.943

> <VdW>
1.140

> <VdW6>
-9.001

> <VdW12>
10.140

> <Bond>
0.294

> <Angle>
1.969

> <Pdih>
3.967

> <Idih>
0.000

> <Tether>
0.000

$$$$
VeraChem MOL file


 26 25  0  0  0  0  0  0  0  0999 V2000     
   19.8648   21.4745   24.9202 C   0  0  0  0  0  0  0  0  0  0  0  0
   19.1319   22.2756   24.7584 H   0  0  0  0  0  0  0  0  0  0  0  0
   20.5654   21.8160   25.6931 H   0  0  0  0  0  0  0  0  0  0  0  0
   20.4329   21.3446   23.9928 H   0  0  0  0  0  0  0  0  0  0  0  0
   19.1655   20.1684   25.3643 C   0  0  0  0  0  0  0  0  0  0  0  0
   18.6489   20.3681   26.3136 H   0  0  0  0  0  0  0  0  0  0  0  0
   19.9111   19.3916   25.5841 H   0  0  0  0  0  0  0  0  0  0  0  0
   18.1268   19.6443   24.3394 C   0  0  0  0  0  0  0  0  0  0  0  0
   17.2999   19.1835   24.8973 H   0  0  0  0  0  0  0  0  0  0  0  0
   17.6796   20.4831   23.7884 H   0  0  0  0  0  0  0  0  0  0  0  0
   18.6684   18.5817   23.3485 C   0  0  0  0  0  0  0  0  0  0  0  0
   17.8312   18.2328   22.7280 H   0  0  0  0  0  0  0  0  0  0  0  0
   19.0164   17.7081   23.9157 H   0  0  0  0  0  0  0  0  0  0  0  0
   19.8001   19.0928   22.4231 C   0  0  0  0  0  0  0  0  0  0  0  0
   19.4909   20.0463   21.9748 H   0  0  0  0  0  0  0  0  0  0  0  0
   20.7027   19.2928   23.0137 H   0  0  0  0  0  0  0  0  0  0  0  0
   20.1449   18.0989   21.2931 C   0  0  1  0  0  0  0  0  0  0  0  0
   19.2320   17.8961   20.7246 H   0  0  0  0  0  0  0  0  0  0  0  0
   21.1811   18.7135   20.3386 C   0  0  0  0  0  0  0  0  0  0  0  0
   22.1204   18.9343   20.8609 H   0  0  0  0  0  0  0  0  0  0  0  0
   20.8044   19.6476   19.9034 H   0  0  0  0  0  0  0  0  0  0  0  0
   21.4027   18.0272   19.5120 H   0  0  0  0  0  0  0  0  0  0  0  0
   20.6300   16.7756   21.8192 N   0  3  0  0  0  0  0  0  0  0  0  0
   19.9313   16.3350   22.4235 H   0  0  0  0  0  0  0  0  0  0  0  0
   20.8323   16.1216   21.0578 H   0  0  0  0  0  0  0  0  0  0  0  0
   21.4878   16.8833   22.3668 H   0  0  0  0  0  0  0  0  0  0  0  0
  1  2  1  0  0  0  0
  1  3  1  0  0  0  0
  1  4  1  0  0  0  0
  1  5  1  0  0  0  0
  5  6  1  0  0  0  0
  5  7  1  0  0  0  0
  5  8  1  0  0  0  0
  8  9  1  0  0  0  0
  8 10  1  0  0  0  0
  8 11  1  0  0  0  0
 11 12  1  0  0  0  0
 11 13  1  0  0  0  0
 11 14  1  0  0  0  0
 14 15  1  0  0  0  0
 14 16  1  0  0  0  0
 14 17  1  0  0  0  0
 17 18  1  0  0  0  0
 17 19  1  0  0  0  0
 19 20  1  0  0  0  0
 19 21  1  0  0  0  0
 19 22  1  0  0  0  0
 17 23  1  0  0  0  0
 23 24  1  0  0  0  0
 23 25  1  0  0  0  0
 23 26  1  0  0  0  0
M  END
> <VConfSearch Rank>
880

> <Conf_Id>
107

> <Delta U+W>
2.995

> <U+W>
-27.304

> <U>
26.796

> <W>
-54.100

> <W(PB)>
-56.404

> <W(SA)>
2.304

> <Valence>
5.706

> <Coulomb>
20.107

> <VdW>
0.982

> <VdW6>
-8.396

> <VdW12>
9.378

> <Bond>
0.254

> <Angle>
1.644

> <Pdih>
3.808

> <Idih>
0.000

> <Tether>
0.000

$$$$
VeraChem MOL file


 26 25  0  0  0  0  0  0  0  0999 V2000     
   22.7655   21.5260   21.1726 C   0  0  0  0  0  0  0  0  0  0  0  0
   22.5096   21.3179   20.1255 H   0  0  0  0  0  0  0  0  0  0  0  0
   23.1102   22.5663   21.2349 H   0  0  0  0  0  0  0  0  0  0  0  0
   23.6037   20.8758   21.4554 H   0  0  0  0  0  0  0  0  0  0  0  0
   21.5504   21.2981   22.0965 C   0  0  0  0  0  0  0  0  0  0  0  0
   20.7416   21.9853   21.8111 H   0  0  0  0  0  0  0  0  0  0  0  0
   21.8273   21.5467   23.1307 H   0  0  0  0  0  0  0  0  0  0  0  0
   21.0448   19.8401   22.0276 C   0  0  0  0  0  0  0  0  0  0  0  0
   20.7727   19.5960   20.9914 H   0  0  0  0  0  0  0  0  0  0  0  0
   21.8572   19.1570   22.3121 H   0  0  0  0  0  0  0  0  0  0  0  0
   19.8274   19.6081   22.9510 C   0  0  0  0  0  0  0  0  0  0  0  0
   19.0145   20.2894   22.6631 H   0  0  0  0  0  0  0  0  0  0  0  0
   20.1057   19.8605   23.9829 H   0  0  0  0  0  0  0  0  0  0  0  0
   19.3240   18.1458   22.8808 C   0  0  0  0  0  0  0  0  0  0  0  0
   19.1034   17.8964   21.8342 H   0  0  0  0  0  0  0  0  0  0  0  0
   20.1206   17.4626   23.2045 H   0  0  0  0  0  0  0  0  0  0  0  0
   18.0558   17.9033   23.7278 C   0  0  1  0  0  0  0  0  0  0  0  0
   17.2863   18.6105   23.4030 H   0  0  0  0  0  0  0  0  0  0  0  0
   17.5269   16.4779   23.5020 C   0  0  0  0  0  0  0  0  0  0  0  0
   18.2632   15.7269   23.8147 H   0  0  0  0  0  0  0  0  0  0  0  0
   17.2971   16.3104   22.4423 H   0  0  0  0  0  0  0  0  0  0  0  0
   16.6049   16.3108   24.0724 H   0  0  0  0  0  0  0  0  0  0  0  0
   18.2846   18.1550   25.1933 N   0  3  0  0  0  0  0  0  0  0  0  0
   18.9994   17.5286   25.5726 H   0  0  0  0  0  0  0  0  0  0  0  0
   18.5937   19.1155   25.3643 H   0  0  0  0  0  0  0  0  0  0  0  0
   17.4289   18.0080   25.7362 H   0  0  0  0  0  0  0  0  0  0  0  0
  1  2  1  0  0  0  0
  1  3  1  0  0  0  0
  1  4  1  0  0  0  0
  1  5  1  0  0  0  0
  5  6  1  0  0  0  0
  5  7  1  0  0  0  0
  5  8  1  0  0  0  0
  8  9  1  0  0  0  0
  8 10  1  0  0  0  0
  8 11  1  0  0  0  0
 11 12  1  0  0  0  0
 11 13  1  0  0  0  0
 11 14  1  0  0  0  0
 14 15  1  0  0  0  0
 14 16  1  0  0  0  0
 14 17  1  0  0  0  0
 17 18  1  0  0  0  0
 17 19  1  0  0  0  0
 19 20  1  0  0  0  0
 19 21  1  0  0  0  0
 19 22  1  0  0  0  0
 17 23  1  0  0  0  0
 23 24  1  0  0  0  0
 23 25  1  0  0  0  0
 23 26  1  0  0  0  0
M  END
> <VConfSearch Rank>
881

> <Conf_Id>
122

> <Delta U+W>
0.000

> <U+W>
-30.299

> <U>
23.517

> <W>
-53.816

> <W(PB)>
-56.162

> <W(SA)>
2.346

> <Valence>
2.737

> <Coulomb>
19.862

> <VdW>
0.919

> <VdW6>
-6.793

> <VdW12>
7.712

> <Bond>
0.171

> <Angle>
0.873

> <Pdih>
1.693

> <Idih>
0.000

> <Tether>
0.000

$$$$
VeraChem MOL file


 26 25  0  0  0  0  0  0  0  0999 V2000     
   17.7263   16.3388   20.6170 C   0  0  0  0  0  0  0  0  0  0  0  0
   17.7081   16.0020   19.5724 H   0  0  0  0  0  0  0  0  0  0  0  0
   17.9135   15.4620   21.2506 H   0  0  0  0  0  0  0  0  0  0  0  0
   16.7307   16.7314   20.8619 H   0  0  0  0  0  0  0  0  0  0  0  0
   18.8132   17.4149   20.8238 C   0  0  0  0  0  0  0  0  0  0  0  0
   18.6181   18.2634   20.1531 H   0  0  0  0  0  0  0  0  0  0  0  0
   19.7919   17.0040   20.5389 H   0  0  0  0  0  0  0  0  0  0  0  0
   18.8601   17.9068   22.2875 C   0  0  0  0  0  0  0  0  0  0  0  0
   17.8793   18.3149   22.5683 H   0  0  0  0  0  0  0  0  0  0  0  0
   19.0520   17.0542   22.9536 H   0  0  0  0  0  0  0  0  0  0  0  0
   19.9478   18.9844   22.4987 C   0  0  0  0  0  0  0  0  0  0  0  0
   19.7512   19.8269   21.8227 H   0  0  0  0  0  0  0  0  0  0  0  0
   20.9289   18.5740   22.2222 H   0  0  0  0  0  0  0  0  0  0  0  0
   19.9893   19.4786   23.9657 C   0  0  0  0  0  0  0  0  0  0  0  0
   19.0315   19.9487   24.2256 H   0  0  0  0  0  0  0  0  0  0  0  0
   20.0969   18.6071   24.6249 H   0  0  0  0  0  0  0  0  0  0  0  0
   21.1470   20.4598   24.2604 C   0  0  1  0  0  0  0  0  0  0  0  0
   22.0848   19.9856   23.9548 H   0  0  0  0  0  0  0  0  0  0  0  0
   20.9967   21.7836   23.4893 C   0  0  0  0  0  0  0  0  0  0  0  0
   20.0382   22.2676   23.7146 H   0  0  0  0  0  0  0  0  0  0  0  0
   21.0554   21.6238   22.4066 H   0  0  0  0  0  0  0  0  0  0  0  0
   21.8005   22.4802   23.7576 H   0  0  0  0  0  0  0  0  0  0  0  0
   21.2686   20.7278   25.7349 N   0  3  0  0  0  0  0  0  0  0  0  0
   20.4266   21.1772   26.1046 H   0  0  0  0  0  0  0  0  0  0  0  0
   21.4140   19.8638   26.2649 H   0  0  0  0  0  0  0  0  0  0  0  0
   22.0590   21.3459   25.9390 H   0  0  0  0  0  0  0  0  0  0  0  0
  1  2  1  0  0  0  0
  1  3  1  0  0  0  0
  1  4  1  0  0  0  0
  1  5  1  0  0  0  0
  5  6  1  0  0  0  0
  5  7  1  0  0  0  0
  5  8  1  0  0  0  0
  8  9  1  0  0  0  0
  8 10  1  0  0  0  0
  8 11  1  0  0  0  0
 11 12  1  0  0  0  0
 11 13  1  0  0  0  0
 11 14  1  0  0  0  0
 14 15  1  0  0  0  0
 14 16  1  0  0  0  0
 14 17  1  0  0  0  0
 17 18  1  0  0  0  0
 17 19  1  0  0  0  0
 19 20  1  0  0  0  0
 19 21  1  0  0  0  0
 19 22  1  0  0  0  0
 17 23  1  0  0  0  0
 23 24  1  0  0  0  0
 23 25  1  0  0  0  0
 23 26  1  0  0  0  0
M  END
> <VConfSearch Rank>
882

> <Conf_Id>
54

> <Delta U+W>
0.453

> <U+W>
-29.845

> <U>
23.817

> <W>
-53.663

> <W(PB)>
-56.021

> <W(SA)>
2.358

> <Valence>
3.277

> <Coulomb>
19.492

> <VdW>
1.049

> <VdW6>
-6.949

> <VdW12>
7.998

> <Bond>
0.183

> <Angle>
1.152

> <Pdih>
1.942

> <Idih>
0.000

> <Tether>
0.000

$$$$
VeraChem MOL file


 26 25  0  0  0  0  0  0  0  0999 V2000     
   18.0685   20.4388   20.0468 C   0  0  0  0  0  0  0  0  0  0  0  0
   18.4115   19.5922   19.4380 H   0  0  0  0  0  0  0  0  0  0  0  0
   17.1931   20.1158   20.6231 H   0  0  0  0  0  0  0  0  0  0  0  0
   17.7371   21.2306   19.3626 H   0  0  0  0  0  0  0  0  0  0  0  0
   19.1987   20.9574   20.9652 C   0  0  0  0  0  0  0  0  0  0  0  0
   18.8227   21.7808   21.5884 H   0  0  0  0  0  0  0  0  0  0  0  0
   19.9914   21.3863   20.3362 H   0  0  0  0  0  0  0  0  0  0  0  0
   19.8203   19.8601   21.8631 C   0  0  0  0  0  0  0  0  0  0  0  0
   20.1666   19.0272   21.2357 H   0  0  0  0  0  0  0  0  0  0  0  0
   20.7069   20.2915   22.3428 H   0  0  0  0  0  0  0  0  0  0  0  0
   18.8529   19.3356   22.9541 C   0  0  0  0  0  0  0  0  0  0  0  0
   17.9121   19.0217   22.4846 H   0  0  0  0  0  0  0  0  0  0  0  0
   18.5932   20.1564   23.6368 H   0  0  0  0  0  0  0  0  0  0  0  0
   19.3866   18.1316   23.7748 C   0  0  0  0  0  0  0  0  0  0  0  0
   18.5691   17.8029   24.4303 H   0  0  0  0  0  0  0  0  0  0  0  0
   19.5953   17.2830   23.1100 H   0  0  0  0  0  0  0  0  0  0  0  0
   20.6276   18.4362   24.6474 C   0  0  1  0  0  0  0  0  0  0  0  0
   20.5199   19.4433   25.0618 H   0  0  0  0  0  0  0  0  0  0  0  0
   20.7174   17.4420   25.8172 C   0  0  0  0  0  0  0  0  0  0  0  0
   21.5872   17.6620   26.4486 H   0  0  0  0  0  0  0  0  0  0  0  0
   20.8097   16.4103   25.4550 H   0  0  0  0  0  0  0  0  0  0  0  0
   19.8246   17.5032   26.4519 H   0  0  0  0  0  0  0  0  0  0  0  0
   21.9121   18.4120   23.8642 N   0  3  0  0  0  0  0  0  0  0  0  0
   21.8876   19.0702   23.0823 H   0  0  0  0  0  0  0  0  0  0  0  0
   22.7130   18.6603   24.4519 H   0  0  0  0  0  0  0  0  0  0  0  0
   22.0939   17.4820   23.4776 H   0  0  0  0  0  0  0  0  0  0  0  0
  1  2  1  0  0  0  0
  1  3  1  0  0  0  0
  1  4  1  0  0  0  0
  1  5  1  0  0  0  0
  5  6  1  0  0  0  0
  5  7  1  0  0  0  0
  5  8  1  0  0  0  0
  8  9  1  0  0  0  0
  8 10  1  0  0  0  0
  8 11  1  0  0  0  0
 11 12  1  0  0  0  0
 11 13  1  0  0  0  0
 11 14  1  0  0  0  0
 14 15  1  0  0  0  0
 14 16  1  0  0  0  0
 14 17  1  0  0  0  0
 17 18  1  0  0  0  0
 17 19  1  0  0  0  0
 19 20  1  0  0  0  0
 19 21  1  0  0  0  0
 19 22  1  0  0  0  0
 17 23  1  0  0  0  0
 23 24  1  0  0  0  0
 23 25  1  0  0  0  0
 23 26  1  0  0  0  0
M  END
> <VConfSearch Rank>
883

> <Conf_Id>
110

> <Delta U+W>
3.764

> <U+W>
-26.535

> <U>
27.400

> <W>
-53.935

> <W(PB)>
-56.238

> <W(SA)>
2.303

> <Valence>
5.205

> <Coulomb>
21.096

> <VdW>
1.098

> <VdW6>
-8.389

> <VdW12>
9.488

> <Bond>
0.270

> <Angle>
1.912

> <Pdih>
3.023

> <Idih>
0.000

> <Tether>
0.000

$$$$
VeraChem MOL file


 26 25  0  0  0  0  0  0  0  0999 V2000     
   19.4866   20.1702   26.4726 C   0  0  0  0  0  0  0  0  0  0  0  0
   19.8154   20.0765   27.5157 H   0  0  0  0  0  0  0  0  0  0  0  0
   20.0384   21.0073   26.0271 H   0  0  0  0  0  0  0  0  0  0  0  0
   18.4190   20.4255   26.4788 H   0  0  0  0  0  0  0  0  0  0  0  0
   19.7385   18.8522   25.7057 C   0  0  0  0  0  0  0  0  0  0  0  0
   19.2674   18.0263   26.2569 H   0  0  0  0  0  0  0  0  0  0  0  0
   20.8156   18.6350   25.6884 H   0  0  0  0  0  0  0  0  0  0  0  0
   19.1844   18.8646   24.2606 C   0  0  0  0  0  0  0  0  0  0  0  0
   19.3045   17.8603   23.8368 H   0  0  0  0  0  0  0  0  0  0  0  0
   18.1026   19.0547   24.2868 H   0  0  0  0  0  0  0  0  0  0  0  0
   19.8714   19.9125   23.3473 C   0  0  0  0  0  0  0  0  0  0  0  0
   20.9645   19.8242   23.4151 H   0  0  0  0  0  0  0  0  0  0  0  0
   19.6239   20.9151   23.7206 H   0  0  0  0  0  0  0  0  0  0  0  0
   19.4206   19.8245   21.8650 C   0  0  0  0  0  0  0  0  0  0  0  0
   18.4076   19.4058   21.7988 H   0  0  0  0  0  0  0  0  0  0  0  0
   19.3462   20.8487   21.4762 H   0  0  0  0  0  0  0  0  0  0  0  0
   20.3843   19.0443   20.9384 C   0  0  1  0  0  0  0  0  0  0  0  0
   21.3692   19.5178   20.9969 H   0  0  0  0  0  0  0  0  0  0  0  0
   20.5380   17.5683   21.3426 C   0  0  0  0  0  0  0  0  0  0  0  0
   19.5648   17.0634   21.3824 H   0  0  0  0  0  0  0  0  0  0  0  0
   21.0193   17.4768   22.3232 H   0  0  0  0  0  0  0  0  0  0  0  0
   21.1696   17.0338   20.6224 H   0  0  0  0  0  0  0  0  0  0  0  0
   19.9521   19.1471   19.5019 N   0  3  0  0  0  0  0  0  0  0  0  0
   19.8903   20.1220   19.1950 H   0  0  0  0  0  0  0  0  0  0  0  0
   20.6115   18.6733   18.8781 H   0  0  0  0  0  0  0  0  0  0  0  0
   19.0336   18.7200   19.3560 H   0  0  0  0  0  0  0  0  0  0  0  0
  1  2  1  0  0  0  0
  1  3  1  0  0  0  0
  1  4  1  0  0  0  0
  1  5  1  0  0  0  0
  5  6  1  0  0  0  0
  5  7  1  0  0  0  0
  5  8  1  0  0  0  0
  8  9  1  0  0  0  0
  8 10  1  0  0  0  0
  8 11  1  0  0  0  0
 11 12  1  0  0  0  0
 11 13  1  0  0  0  0
 11 14  1  0  0  0  0
 14 15  1  0  0  0  0
 14 16  1  0  0  0  0
 14 17  1  0  0  0  0
 17 18  1  0  0  0  0
 17 19  1  0  0  0  0
 19 20  1  0  0  0  0
 19 21  1  0  0  0  0
 19 22  1  0  0  0  0
 17 23  1  0  0  0  0
 23 24  1  0  0  0  0
 23 25  1  0  0  0  0
 23 26  1  0  0  0  0
M  END
> <VConfSearch Rank>
884

> <Conf_Id>
34

> <Delta U+W>
3.568

> <U+W>
-26.731

> <U>
27.221

> <W>
-53.952

> <W(PB)>
-56.213

> <W(SA)>
2.261

> <Valence>
6.368

> <Coulomb>
19.698

> <VdW>
1.155

> <VdW6>
-8.532

> <VdW12>
9.687

> <Bond>
0.272

> <Angle>
1.847

> <Pdih>
4.248

> <Idih>
0.000

> <Tether>
0.000

$$$$
VeraChem MOL file


 26 25  0  0  0  0  0  0  0  0999 V2000     
   20.8545   22.1868   25.3986 C   0  0  0  0  0  0  0  0  0  0  0  0
   20.3485   22.9990   24.8605 H   0  0  0  0  0  0  0  0  0  0  0  0
   20.2335   21.9084   26.2601 H   0  0  0  0  0  0  0  0  0  0  0  0
   21.8061   22.5778   25.7815 H   0  0  0  0  0  0  0  0  0  0  0  0
   21.0959   20.9748   24.4740 C   0  0  0  0  0  0  0  0  0  0  0  0
   21.6329   20.1935   25.0301 H   0  0  0  0  0  0  0  0  0  0  0  0
   21.7470   21.2756   23.6413 H   0  0  0  0  0  0  0  0  0  0  0  0
   19.7710   20.4045   23.9208 C   0  0  0  0  0  0  0  0  0  0  0  0
   19.1231   20.1078   24.7572 H   0  0  0  0  0  0  0  0  0  0  0  0
   19.2370   21.1899   23.3683 H   0  0  0  0  0  0  0  0  0  0  0  0
   20.0084   19.1906   22.9941 C   0  0  0  0  0  0  0  0  0  0  0  0
   20.5438   18.4110   23.5520 H   0  0  0  0  0  0  0  0  0  0  0  0
   20.6602   19.4963   22.1652 H   0  0  0  0  0  0  0  0  0  0  0  0
   18.6747   18.6250   22.4400 C   0  0  0  0  0  0  0  0  0  0  0  0
   18.0148   18.3700   23.2796 H   0  0  0  0  0  0  0  0  0  0  0  0
   18.1546   19.4099   21.8750 H   0  0  0  0  0  0  0  0  0  0  0  0
   18.8208   17.3771   21.5372 C   0  0  1  0  0  0  0  0  0  0  0  0
   17.8124   17.0686   21.2441 H   0  0  0  0  0  0  0  0  0  0  0  0
   19.6058   17.6827   20.2496 C   0  0  0  0  0  0  0  0  0  0  0  0
   20.6583   17.9069   20.4593 H   0  0  0  0  0  0  0  0  0  0  0  0
   19.1698   18.5396   19.7212 H   0  0  0  0  0  0  0  0  0  0  0  0
   19.5760   16.8228   19.5693 H   0  0  0  0  0  0  0  0  0  0  0  0
   19.4186   16.2062   22.2679 N   0  3  0  0  0  0  0  0  0  0  0  0
   19.4496   15.3717   21.6753 H   0  0  0  0  0  0  0  0  0  0  0  0
   20.3760   16.4047   22.5682 H   0  0  0  0  0  0  0  0  0  0  0  0
   18.8762   15.9678   23.1030 H   0  0  0  0  0  0  0  0  0  0  0  0
  1  2  1  0  0  0  0
  1  3  1  0  0  0  0
  1  4  1  0  0  0  0
  1  5  1  0  0  0  0
  5  6  1  0  0  0  0
  5  7  1  0  0  0  0
  5  8  1  0  0  0  0
  8  9  1  0  0  0  0
  8 10  1  0  0  0  0
  8 11  1  0  0  0  0
 11 12  1  0  0  0  0
 11 13  1  0  0  0  0
 11 14  1  0  0  0  0
 14 15  1  0  0  0  0
 14 16  1  0  0  0  0
 14 17  1  0  0  0  0
 17 18  1  0  0  0  0
 17 19  1  0  0  0  0
 19 20  1  0  0  0  0
 19 21  1  0  0  0  0
 19 22  1  0  0  0  0
 17 23  1  0  0  0  0
 23 24  1  0  0  0  0
 23 25  1  0  0  0  0
 23 26  1  0  0  0  0
M  END
> <VConfSearch Rank>
885

> <Conf_Id>
132

> <Delta U+W>
0.363

> <U+W>
-29.936

> <U>
24.060

> <W>
-53.996

> <W(PB)>
-56.327

> <W(SA)>
2.332

> <Valence>
3.249

> <Coulomb>
19.781

> <VdW>
1.030

> <VdW6>
-7.421

> <VdW12>
8.451

> <Bond>
0.207

> <Angle>
1.205

> <Pdih>
1.837

> <Idih>
0.000

> <Tether>
0.000

$$$$
VeraChem MOL file


 26 25  0  0  0  0  0  0  0  0999 V2000     
   17.6284   20.0488   26.0528 C   0  0  0  0  0  0  0  0  0  0  0  0
   17.9609   20.6837   26.8843 H   0  0  0  0  0  0  0  0  0  0  0  0
   16.6750   20.4492   25.6841 H   0  0  0  0  0  0  0  0  0  0  0  0
   17.4458   19.0417   26.4498 H   0  0  0  0  0  0  0  0  0  0  0  0
   18.6891   20.0189   24.9319 C   0  0  0  0  0  0  0  0  0  0  0  0
   19.6364   19.6532   25.3493 H   0  0  0  0  0  0  0  0  0  0  0  0
   18.8711   21.0425   24.5759 H   0  0  0  0  0  0  0  0  0  0  0  0
   18.2437   19.1256   23.7499 C   0  0  0  0  0  0  0  0  0  0  0  0
   18.1152   18.0904   24.0952 H   0  0  0  0  0  0  0  0  0  0  0  0
   17.2554   19.4595   23.4049 H   0  0  0  0  0  0  0  0  0  0  0  0
   19.2176   19.1551   22.5461 C   0  0  0  0  0  0  0  0  0  0  0  0
   19.3353   20.1914   22.2028 H   0  0  0  0  0  0  0  0  0  0  0  0
   18.7483   18.6058   21.7200 H   0  0  0  0  0  0  0  0  0  0  0  0
   20.6062   18.5340   22.8612 C   0  0  0  0  0  0  0  0  0  0  0  0
   21.0896   19.1018   23.6652 H   0  0  0  0  0  0  0  0  0  0  0  0
   20.4698   17.5157   23.2486 H   0  0  0  0  0  0  0  0  0  0  0  0
   21.5834   18.4835   21.6627 C   0  0  1  0  0  0  0  0  0  0  0  0
   22.5306   18.0799   22.0339 H   0  0  0  0  0  0  0  0  0  0  0  0
   21.0874   17.5471   20.5468 C   0  0  0  0  0  0  0  0  0  0  0  0
   20.1915   17.9412   20.0529 H   0  0  0  0  0  0  0  0  0  0  0  0
   20.8510   16.5536   20.9475 H   0  0  0  0  0  0  0  0  0  0  0  0
   21.8623   17.4204   19.7809 H   0  0  0  0  0  0  0  0  0  0  0  0
   21.8974   19.8506   21.1198 N   0  3  0  0  0  0  0  0  0  0  0  0
   22.2726   20.4664   21.8467 H   0  0  0  0  0  0  0  0  0  0  0  0
   22.5925   19.8046   20.3693 H   0  0  0  0  0  0  0  0  0  0  0  0
   21.0616   20.2990   20.7368 H   0  0  0  0  0  0  0  0  0  0  0  0
  1  2  1  0  0  0  0
  1  3  1  0  0  0  0
  1  4  1  0  0  0  0
  1  5  1  0  0  0  0
  5  6  1  0  0  0  0
  5  7  1  0  0  0  0
  5  8  1  0  0  0  0
  8  9  1  0  0  0  0
  8 10  1  0  0  0  0
  8 11  1  0  0  0  0
 11 12  1  0  0  0  0
 11 13  1  0  0  0  0
 11 14  1  0  0  0  0
 14 15  1  0  0  0  0
 14 16  1  0  0  0  0
 14 17  1  0  0  0  0
 17 18  1  0  0  0  0
 17 19  1  0  0  0  0
 19 20  1  0  0  0  0
 19 21  1  0  0  0  0
 19 22  1  0  0  0  0
 17 23  1  0  0  0  0
 23 24  1  0  0  0  0
 23 25  1  0  0  0  0
 23 26  1  0  0  0  0
M  END
> <VConfSearch Rank>
886

> <Conf_Id>
46

> <Delta U+W>
1.114

> <U+W>
-29.185

> <U>
24.990

> <W>
-54.175

> <W(PB)>
-56.455

> <W(SA)>
2.279

> <Valence>
3.862

> <Coulomb>
19.956

> <VdW>
1.172

> <VdW6>
-8.054

> <VdW12>
9.226

> <Bond>
0.258

> <Angle>
1.499

> <Pdih>
2.106

> <Idih>
0.000

> <Tether>
0.000

$$$$
VeraChem MOL file


 26 25  0  0  0  0  0  0  0  0999 V2000     
   21.9030   21.2182   20.7540 C   0  0  0  0  0  0  0  0  0  0  0  0
   21.4517   20.5354   20.0236 H   0  0  0  0  0  0  0  0  0  0  0  0
   21.2757   22.1166   20.8193 H   0  0  0  0  0  0  0  0  0  0  0  0
   22.8821   21.5206   20.3604 H   0  0  0  0  0  0  0  0  0  0  0  0
   22.0606   20.5482   22.1379 C   0  0  0  0  0  0  0  0  0  0  0  0
   22.6298   21.2223   22.7931 H   0  0  0  0  0  0  0  0  0  0  0  0
   22.6631   19.6343   22.0400 H   0  0  0  0  0  0  0  0  0  0  0  0
   20.7117   20.2163   22.8207 C   0  0  0  0  0  0  0  0  0  0  0  0
   20.9235   19.8687   23.8402 H   0  0  0  0  0  0  0  0  0  0  0  0
   20.1181   21.1351   22.9242 H   0  0  0  0  0  0  0  0  0  0  0  0
   19.8862   19.1437   22.0654 C   0  0  0  0  0  0  0  0  0  0  0  0
   20.4878   18.2343   21.9352 H   0  0  0  0  0  0  0  0  0  0  0  0
   19.6571   19.5035   21.0540 H   0  0  0  0  0  0  0  0  0  0  0  0
   18.5461   18.7991   22.7651 C   0  0  0  0  0  0  0  0  0  0  0  0
   17.9252   19.7041   22.8033 H   0  0  0  0  0  0  0  0  0  0  0  0
   17.9964   18.0768   22.1470 H   0  0  0  0  0  0  0  0  0  0  0  0
   18.6994   18.2329   24.1949 C   0  0  1  0  0  0  0  0  0  0  0  0
   19.2252   18.9731   24.8049 H   0  0  0  0  0  0  0  0  0  0  0  0
   17.3186   17.9895   24.8243 C   0  0  0  0  0  0  0  0  0  0  0  0
   17.4201   17.6251   25.8540 H   0  0  0  0  0  0  0  0  0  0  0  0
   16.7471   17.2467   24.2537 H   0  0  0  0  0  0  0  0  0  0  0  0
   16.7356   18.9184   24.8559 H   0  0  0  0  0  0  0  0  0  0  0  0
   19.5265   16.9770   24.2293 N   0  3  0  0  0  0  0  0  0  0  0  0
   20.4624   17.1381   23.8476 H   0  0  0  0  0  0  0  0  0  0  0  0
   19.6399   16.6289   25.1855 H   0  0  0  0  0  0  0  0  0  0  0  0
   19.0933   16.2300   23.6802 H   0  0  0  0  0  0  0  0  0  0  0  0
  1  2  1  0  0  0  0
  1  3  1  0  0  0  0
  1  4  1  0  0  0  0
  1  5  1  0  0  0  0
  5  6  1  0  0  0  0
  5  7  1  0  0  0  0
  5  8  1  0  0  0  0
  8  9  1  0  0  0  0
  8 10  1  0  0  0  0
  8 11  1  0  0  0  0
 11 12  1  0  0  0  0
 11 13  1  0  0  0  0
 11 14  1  0  0  0  0
 14 15  1  0  0  0  0
 14 16  1  0  0  0  0
 14 17  1  0  0  0  0
 17 18  1  0  0  0  0
 17 19  1  0  0  0  0
 19 20  1  0  0  0  0
 19 21  1  0  0  0  0
 19 22  1  0  0  0  0
 17 23  1  0  0  0  0
 23 24  1  0  0  0  0
 23 25  1  0  0  0  0
 23 26  1  0  0  0  0
M  END
> <VConfSearch Rank>
887

> <Conf_Id>
113

> <Delta U+W>
1.137

> <U+W>
-29.162

> <U>
24.833

> <W>
-53.995

> <W(PB)>
-56.288

> <W(SA)>
2.294

> <Valence>
3.589

> <Coulomb>
20.270

> <VdW>
0.974

> <VdW6>
-8.255

> <VdW12>
9.229

> <Bond>
0.244

> <Angle>
1.377

> <Pdih>
1.967

> <Idih>
0.000

> <Tether>
0.000

$$$$
VeraChem MOL file


 26 25  0  0  0  0  0  0  0  0999 V2000     
   21.7951   18.8855   26.3246 C   0  0  0  0  0  0  0  0  0  0  0  0
   21.6937   18.0657   27.0476 H   0  0  0  0  0  0  0  0  0  0  0  0
   22.8177   18.8589   25.9260 H   0  0  0  0  0  0  0  0  0  0  0  0
   21.6639   19.8309   26.8670 H   0  0  0  0  0  0  0  0  0  0  0  0
   20.7551   18.7456   25.1927 C   0  0  0  0  0  0  0  0  0  0  0  0
   19.7446   18.7460   25.6247 H   0  0  0  0  0  0  0  0  0  0  0  0
   20.8920   17.7727   24.7023 H   0  0  0  0  0  0  0  0  0  0  0  0
   20.8817   19.8887   24.1580 C   0  0  0  0  0  0  0  0  0  0  0  0
   20.8227   20.8524   24.6826 H   0  0  0  0  0  0  0  0  0  0  0  0
   21.8742   19.8547   23.6879 H   0  0  0  0  0  0  0  0  0  0  0  0
   19.7867   19.8586   23.0634 C   0  0  0  0  0  0  0  0  0  0  0  0
   19.8871   20.7671   22.4554 H   0  0  0  0  0  0  0  0  0  0  0  0
   18.8000   19.9129   23.5422 H   0  0  0  0  0  0  0  0  0  0  0  0
   19.8680   18.6081   22.1457 C   0  0  0  0  0  0  0  0  0  0  0  0
   20.8913   18.5078   21.7610 H   0  0  0  0  0  0  0  0  0  0  0  0
   19.6753   17.7034   22.7357 H   0  0  0  0  0  0  0  0  0  0  0  0
   18.8923   18.6193   20.9451 C   0  0  1  0  0  0  0  0  0  0  0  0
   19.0592   17.6955   20.3824 H   0  0  0  0  0  0  0  0  0  0  0  0
   17.4214   18.6299   21.3966 C   0  0  0  0  0  0  0  0  0  0  0  0
   17.1555   19.5725   21.8898 H   0  0  0  0  0  0  0  0  0  0  0  0
   17.2220   17.8078   22.0952 H   0  0  0  0  0  0  0  0  0  0  0  0
   16.7546   18.5030   20.5349 H   0  0  0  0  0  0  0  0  0  0  0  0
   19.1705   19.7452   19.9874 N   0  3  0  0  0  0  0  0  0  0  0  0
   20.1365   19.7202   19.6487 H   0  0  0  0  0  0  0  0  0  0  0  0
   18.5583   19.6992   19.1680 H   0  0  0  0  0  0  0  0  0  0  0  0
   19.0224   20.6554   20.4298 H   0  0  0  0  0  0  0  0  0  0  0  0
  1  2  1  0  0  0  0
  1  3  1  0  0  0  0
  1  4  1  0  0  0  0
  1  5  1  0  0  0  0
  5  6  1  0  0  0  0
  5  7  1  0  0  0  0
  5  8  1  0  0  0  0
  8  9  1  0  0  0  0
  8 10  1  0  0  0  0
  8 11  1  0  0  0  0
 11 12  1  0  0  0  0
 11 13  1  0  0  0  0
 11 14  1  0  0  0  0
 14 15  1  0  0  0  0
 14 16  1  0  0  0  0
 14 17  1  0  0  0  0
 17 18  1  0  0  0  0
 17 19  1  0  0  0  0
 19 20  1  0  0  0  0
 19 21  1  0  0  0  0
 19 22  1  0  0  0  0
 17 23  1  0  0  0  0
 23 24  1  0  0  0  0
 23 25  1  0  0  0  0
 23 26  1  0  0  0  0
M  END
> <VConfSearch Rank>
888

> <Conf_Id>
45

> <Delta U+W>
1.035

> <U+W>
-29.264

> <U>
24.725

> <W>
-53.989

> <W(PB)>
-56.298

> <W(SA)>
2.309

> <Valence>
3.780

> <Coulomb>
19.804

> <VdW>
1.141

> <VdW6>
-8.104

> <VdW12>
9.246

> <Bond>
0.254

> <Angle>
1.437

> <Pdih>
2.089

> <Idih>
0.000

> <Tether>
0.000

$$$$
VeraChem MOL file


 26 25  0  0  0  0  0  0  0  0999 V2000     
   21.2751   18.8606   19.2641 C   0  0  0  0  0  0  0  0  0  0  0  0
   22.3204   19.0743   19.0057 H   0  0  0  0  0  0  0  0  0  0  0  0
   20.9971   17.9127   18.7852 H   0  0  0  0  0  0  0  0  0  0  0  0
   20.6523   19.6562   18.8348 H   0  0  0  0  0  0  0  0  0  0  0  0
   21.0972   18.7826   20.7953 C   0  0  0  0  0  0  0  0  0  0  0  0
   21.4243   19.7320   21.2393 H   0  0  0  0  0  0  0  0  0  0  0  0
   21.7535   17.9987   21.1983 H   0  0  0  0  0  0  0  0  0  0  0  0
   19.6292   18.4864   21.1839 C   0  0  0  0  0  0  0  0  0  0  0  0
   18.9806   19.2995   20.8295 H   0  0  0  0  0  0  0  0  0  0  0  0
   19.2991   17.5791   20.6593 H   0  0  0  0  0  0  0  0  0  0  0  0
   19.4169   18.2771   22.7036 C   0  0  0  0  0  0  0  0  0  0  0  0
   20.0649   17.4625   23.0560 H   0  0  0  0  0  0  0  0  0  0  0  0
   18.3839   17.9388   22.8578 H   0  0  0  0  0  0  0  0  0  0  0  0
   19.6756   19.5526   23.5465 C   0  0  0  0  0  0  0  0  0  0  0  0
   20.7153   19.8739   23.4087 H   0  0  0  0  0  0  0  0  0  0  0  0
   19.0419   20.3728   23.1838 H   0  0  0  0  0  0  0  0  0  0  0  0
   19.4307   19.3367   25.0561 C   0  0  1  0  0  0  0  0  0  0  0  0
   20.0449   18.4931   25.3858 H   0  0  0  0  0  0  0  0  0  0  0  0
   19.8566   20.5824   25.8498 C   0  0  0  0  0  0  0  0  0  0  0  0
   19.2684   21.4607   25.5560 H   0  0  0  0  0  0  0  0  0  0  0  0
   20.9167   20.8091   25.6810 H   0  0  0  0  0  0  0  0  0  0  0  0
   19.7185   20.4229   26.9263 H   0  0  0  0  0  0  0  0  0  0  0  0
   18.0021   18.9800   25.3651 N   0  3  0  0  0  0  0  0  0  0  0  0
   17.7164   18.1246   24.8812 H   0  0  0  0  0  0  0  0  0  0  0  0
   17.8638   18.8244   26.3676 H   0  0  0  0  0  0  0  0  0  0  0  0
   17.3610   19.7248   25.0795 H   0  0  0  0  0  0  0  0  0  0  0  0
  1  2  1  0  0  0  0
  1  3  1  0  0  0  0
  1  4  1  0  0  0  0
  1  5  1  0  0  0  0
  5  6  1  0  0  0  0
  5  7  1  0  0  0  0
  5  8  1  0  0  0  0
  8  9  1  0  0  0  0
  8 10  1  0  0  0  0
  8 11  1  0  0  0  0
 11 12  1  0  0  0  0
 11 13  1  0  0  0  0
 11 14  1  0  0  0  0
 14 15  1  0  0  0  0
 14 16  1  0  0  0  0
 14 17  1  0  0  0  0
 17 18  1  0  0  0  0
 17 19  1  0  0  0  0
 19 20  1  0  0  0  0
 19 21  1  0  0  0  0
 19 22  1  0  0  0  0
 17 23  1  0  0  0  0
 23 24  1  0  0  0  0
 23 25  1  0  0  0  0
 23 26  1  0  0  0  0
M  END
> <VConfSearch Rank>
889

> <Conf_Id>
121

> <Delta U+W>
0.736

> <U+W>
-29.562

> <U>
24.282

> <W>
-53.844

> <W(PB)>
-56.205

> <W(SA)>
2.361

> <Valence>
3.311

> <Coulomb>
19.887

> <VdW>
1.083

> <VdW6>
-7.444

> <VdW12>
8.527

> <Bond>
0.219

> <Angle>
1.167

> <Pdih>
1.926

> <Idih>
0.000

> <Tether>
0.000

$$$$
VeraChem MOL file


 26 25  0  0  0  0  0  0  0  0999 V2000     
   19.1932   16.4228   20.5862 C   0  0  0  0  0  0  0  0  0  0  0  0
   18.5393   15.6473   20.1666 H   0  0  0  0  0  0  0  0  0  0  0  0
   19.7742   16.8542   19.7607 H   0  0  0  0  0  0  0  0  0  0  0  0
   19.8888   15.9285   21.2755 H   0  0  0  0  0  0  0  0  0  0  0  0
   18.3555   17.5064   21.3024 C   0  0  0  0  0  0  0  0  0  0  0  0
   17.8108   17.0566   22.1443 H   0  0  0  0  0  0  0  0  0  0  0  0
   17.5912   17.8786   20.6060 H   0  0  0  0  0  0  0  0  0  0  0  0
   19.1957   18.7061   21.8030 C   0  0  0  0  0  0  0  0  0  0  0  0
   19.7314   19.1570   20.9564 H   0  0  0  0  0  0  0  0  0  0  0  0
   18.5039   19.4728   22.1758 H   0  0  0  0  0  0  0  0  0  0  0  0
   20.2031   18.3300   22.9191 C   0  0  0  0  0  0  0  0  0  0  0  0
   20.9038   17.5746   22.5408 H   0  0  0  0  0  0  0  0  0  0  0  0
   19.6727   17.8573   23.7561 H   0  0  0  0  0  0  0  0  0  0  0  0
   21.0323   19.5382   23.4272 C   0  0  0  0  0  0  0  0  0  0  0  0
   21.7388   19.1885   24.1916 H   0  0  0  0  0  0  0  0  0  0  0  0
   21.6446   19.9117   22.5958 H   0  0  0  0  0  0  0  0  0  0  0  0
   20.2044   20.7132   23.9996 C   0  0  1  0  0  0  0  0  0  0  0  0
   19.5143   21.0599   23.2249 H   0  0  0  0  0  0  0  0  0  0  0  0
   19.3827   20.2961   25.2324 C   0  0  0  0  0  0  0  0  0  0  0  0
   20.0280   19.8862   26.0192 H   0  0  0  0  0  0  0  0  0  0  0  0
   18.6332   19.5393   24.9731 H   0  0  0  0  0  0  0  0  0  0  0  0
   18.8445   21.1570   25.6476 H   0  0  0  0  0  0  0  0  0  0  0  0
   21.0856   21.8852   24.3323 N   0  3  0  0  0  0  0  0  0  0  0  0
   21.6107   22.2069   23.5141 H   0  0  0  0  0  0  0  0  0  0  0  0
   20.5381   22.6801   24.6740 H   0  0  0  0  0  0  0  0  0  0  0  0
   21.7653   21.6479   25.0598 H   0  0  0  0  0  0  0  0  0  0  0  0
  1  2  1  0  0  0  0
  1  3  1  0  0  0  0
  1  4  1  0  0  0  0
  1  5  1  0  0  0  0
  5  6  1  0  0  0  0
  5  7  1  0  0  0  0
  5  8  1  0  0  0  0
  8  9  1  0  0  0  0
  8 10  1  0  0  0  0
  8 11  1  0  0  0  0
 11 12  1  0  0  0  0
 11 13  1  0  0  0  0
 11 14  1  0  0  0  0
 14 15  1  0  0  0  0
 14 16  1  0  0  0  0
 14 17  1  0  0  0  0
 17 18  1  0  0  0  0
 17 19  1  0  0  0  0
 19 20  1  0  0  0  0
 19 21  1  0  0  0  0
 19 22  1  0  0  0  0
 17 23  1  0  0  0  0
 23 24  1  0  0  0  0
 23 25  1  0  0  0  0
 23 26  1  0  0  0  0
M  END
> <VConfSearch Rank>
890

> <Conf_Id>
5

> <Delta U+W>
1.233

> <U+W>
-29.065

> <U>
25.023

> <W>
-54.088

> <W(PB)>
-56.383

> <W(SA)>
2.296

> <Valence>
4.083

> <Coulomb>
19.893

> <VdW>
1.047

> <VdW6>
-8.479

> <VdW12>
9.527

> <Bond>
0.256

> <Angle>
1.716

> <Pdih>
2.112

> <Idih>
0.000

> <Tether>
0.000

$$$$
VeraChem MOL file


 26 25  0  0  0  0  0  0  0  0999 V2000     
   18.7946   15.6755   22.3682 C   0  0  0  0  0  0  0  0  0  0  0  0
   18.0957   14.9046   22.0187 H   0  0  0  0  0  0  0  0  0  0  0  0
   19.6171   15.7257   21.6442 H   0  0  0  0  0  0  0  0  0  0  0  0
   19.2035   15.3452   23.3319 H   0  0  0  0  0  0  0  0  0  0  0  0
   18.0732   17.0355   22.5069 C   0  0  0  0  0  0  0  0  0  0  0  0
   17.1846   16.8992   23.1391 H   0  0  0  0  0  0  0  0  0  0  0  0
   17.7037   17.3609   21.5243 H   0  0  0  0  0  0  0  0  0  0  0  0
   18.9571   18.1439   23.1284 C   0  0  0  0  0  0  0  0  0  0  0  0
   18.3197   19.0182   23.3136 H   0  0  0  0  0  0  0  0  0  0  0  0
   19.3275   17.8111   24.1077 H   0  0  0  0  0  0  0  0  0  0  0  0
   20.1484   18.5595   22.2296 C   0  0  0  0  0  0  0  0  0  0  0  0
   19.7690   18.9186   21.2629 H   0  0  0  0  0  0  0  0  0  0  0  0
   20.7671   17.6801   22.0100 H   0  0  0  0  0  0  0  0  0  0  0  0
   21.0641   19.6422   22.8554 C   0  0  0  0  0  0  0  0  0  0  0  0
   21.5184   19.2615   23.7800 H   0  0  0  0  0  0  0  0  0  0  0  0
   21.9000   19.8060   22.1624 H   0  0  0  0  0  0  0  0  0  0  0  0
   20.3495   20.9902   23.1181 C   0  0  1  0  0  0  0  0  0  0  0  0
   19.4300   21.0102   22.5252 H   0  0  0  0  0  0  0  0  0  0  0  0
   19.9825   21.1566   24.6041 C   0  0  0  0  0  0  0  0  0  0  0  0
   20.8822   21.1962   25.2309 H   0  0  0  0  0  0  0  0  0  0  0  0
   19.3610   20.3275   24.9601 H   0  0  0  0  0  0  0  0  0  0  0  0
   19.4190   22.0845   24.7613 H   0  0  0  0  0  0  0  0  0  0  0  0
   21.1713   22.1621   22.6554 N   0  3  0  0  0  0  0  0  0  0  0  0
   21.3887   22.0988   21.6567 H   0  0  0  0  0  0  0  0  0  0  0  0
   20.6776   23.0469   22.8035 H   0  0  0  0  0  0  0  0  0  0  0  0
   22.0593   22.2198   23.1611 H   0  0  0  0  0  0  0  0  0  0  0  0
  1  2  1  0  0  0  0
  1  3  1  0  0  0  0
  1  4  1  0  0  0  0
  1  5  1  0  0  0  0
  5  6  1  0  0  0  0
  5  7  1  0  0  0  0
  5  8  1  0  0  0  0
  8  9  1  0  0  0  0
  8 10  1  0  0  0  0
  8 11  1  0  0  0  0
 11 12  1  0  0  0  0
 11 13  1  0  0  0  0
 11 14  1  0  0  0  0
 14 15  1  0  0  0  0
 14 16  1  0  0  0  0
 14 17  1  0  0  0  0
 17 18  1  0  0  0  0
 17 19  1  0  0  0  0
 19 20  1  0  0  0  0
 19 21  1  0  0  0  0
 19 22  1  0  0  0  0
 17 23  1  0  0  0  0
 23 24  1  0  0  0  0
 23 25  1  0  0  0  0
 23 26  1  0  0  0  0
M  END
> <VConfSearch Rank>
891

> <Conf_Id>
100

> <Delta U+W>
3.818

> <U+W>
-26.481

> <U>
27.496

> <W>
-53.977

> <W(PB)>
-56.267

> <W(SA)>
2.290

> <Valence>
6.472

> <Coulomb>
19.839

> <VdW>
1.185

> <VdW6>
-8.405

> <VdW12>
9.590

> <Bond>
0.248

> <Angle>
1.619

> <Pdih>
4.604

> <Idih>
0.000

> <Tether>
0.000

$$$$
VeraChem MOL file


 26 25  0  0  0  0  0  0  0  0999 V2000     
   23.2519   20.2612   23.6995 C   0  0  0  0  0  0  0  0  0  0  0  0
   24.2480   19.8644   23.9347 H   0  0  0  0  0  0  0  0  0  0  0  0
   23.2585   20.5888   22.6517 H   0  0  0  0  0  0  0  0  0  0  0  0
   23.0821   21.1421   24.3322 H   0  0  0  0  0  0  0  0  0  0  0  0
   22.1678   19.1889   23.9387 C   0  0  0  0  0  0  0  0  0  0  0  0
   22.2090   18.8563   24.9854 H   0  0  0  0  0  0  0  0  0  0  0  0
   22.3832   18.3083   23.3175 H   0  0  0  0  0  0  0  0  0  0  0  0
   20.7545   19.7221   23.6154 C   0  0  0  0  0  0  0  0  0  0  0  0
   20.5470   20.6023   24.2394 H   0  0  0  0  0  0  0  0  0  0  0  0
   20.7290   20.0641   22.5741 H   0  0  0  0  0  0  0  0  0  0  0  0
   19.6657   18.6488   23.8618 C   0  0  0  0  0  0  0  0  0  0  0  0
   19.7129   18.3545   24.9194 H   0  0  0  0  0  0  0  0  0  0  0  0
   19.8908   17.7412   23.2871 H   0  0  0  0  0  0  0  0  0  0  0  0
   18.2244   19.1461   23.5592 C   0  0  0  0  0  0  0  0  0  0  0  0
   17.5427   18.6903   24.2893 H   0  0  0  0  0  0  0  0  0  0  0  0
   18.1567   20.2273   23.7377 H   0  0  0  0  0  0  0  0  0  0  0  0
   17.6744   18.8228   22.1475 C   0  0  1  0  0  0  0  0  0  0  0  0
   16.6663   19.2453   22.0919 H   0  0  0  0  0  0  0  0  0  0  0  0
   18.5038   19.4598   21.0209 C   0  0  0  0  0  0  0  0  0  0  0  0
   19.4922   18.9928   20.9362 H   0  0  0  0  0  0  0  0  0  0  0  0
   18.6382   20.5346   21.1945 H   0  0  0  0  0  0  0  0  0  0  0  0
   17.9950   19.3401   20.0566 H   0  0  0  0  0  0  0  0  0  0  0  0
   17.5139   17.3440   21.9230 N   0  3  0  0  0  0  0  0  0  0  0  0
   16.9165   16.9181   22.6373 H   0  0  0  0  0  0  0  0  0  0  0  0
   17.0882   17.1481   21.0127 H   0  0  0  0  0  0  0  0  0  0  0  0
   18.4161   16.8628   21.9496 H   0  0  0  0  0  0  0  0  0  0  0  0
  1  2  1  0  0  0  0
  1  3  1  0  0  0  0
  1  4  1  0  0  0  0
  1  5  1  0  0  0  0
  5  6  1  0  0  0  0
  5  7  1  0  0  0  0
  5  8  1  0  0  0  0
  8  9  1  0  0  0  0
  8 10  1  0  0  0  0
  8 11  1  0  0  0  0
 11 12  1  0  0  0  0
 11 13  1  0  0  0  0
 11 14  1  0  0  0  0
 14 15  1  0  0  0  0
 14 16  1  0  0  0  0
 14 17  1  0  0  0  0
 17 18  1  0  0  0  0
 17 19  1  0  0  0  0
 19 20  1  0  0  0  0
 19 21  1  0  0  0  0
 19 22  1  0  0  0  0
 17 23  1  0  0  0  0
 23 24  1  0  0  0  0
 23 25  1  0  0  0  0
 23 26  1  0  0  0  0
M  END
> <VConfSearch Rank>
892

> <Conf_Id>
142

> <Delta U+W>
2.978

> <U+W>
-27.320

> <U>
26.848

> <W>
-54.168

> <W(PB)>
-56.427

> <W(SA)>
2.259

> <Valence>
5.823

> <Coulomb>
20.057

> <VdW>
0.968

> <VdW6>
-8.367

> <VdW12>
9.335

> <Bond>
0.267

> <Angle>
1.799

> <Pdih>
3.758

> <Idih>
0.000

> <Tether>
0.000

$$$$
VeraChem MOL file


 26 25  0  0  0  0  0  0  0  0999 V2000     
   18.9932   16.6829   25.3083 C   0  0  0  0  0  0  0  0  0  0  0  0
   19.1492   15.8369   24.6264 H   0  0  0  0  0  0  0  0  0  0  0  0
   19.0472   16.2994   26.3355 H   0  0  0  0  0  0  0  0  0  0  0  0
   17.9773   17.0664   25.1544 H   0  0  0  0  0  0  0  0  0  0  0  0
   20.0586   17.7806   25.0854 C   0  0  0  0  0  0  0  0  0  0  0  0
   21.0395   17.3814   25.3793 H   0  0  0  0  0  0  0  0  0  0  0  0
   19.8608   18.6308   25.7531 H   0  0  0  0  0  0  0  0  0  0  0  0
   20.1443   18.2724   23.6200 C   0  0  0  0  0  0  0  0  0  0  0  0
   21.0230   18.9230   23.5417 H   0  0  0  0  0  0  0  0  0  0  0  0
   20.3204   17.4151   22.9558 H   0  0  0  0  0  0  0  0  0  0  0  0
   18.8869   19.0505   23.1564 C   0  0  0  0  0  0  0  0  0  0  0  0
   18.7524   19.9418   23.7835 H   0  0  0  0  0  0  0  0  0  0  0  0
   17.9975   18.4312   23.3273 H   0  0  0  0  0  0  0  0  0  0  0  0
   18.8873   19.4502   21.6536 C   0  0  0  0  0  0  0  0  0  0  0  0
   18.9004   18.5419   21.0371 H   0  0  0  0  0  0  0  0  0  0  0  0
   17.9248   19.9327   21.4384 H   0  0  0  0  0  0  0  0  0  0  0  0
   20.0054   20.4064   21.1647 C   0  0  1  0  0  0  0  0  0  0  0  0
   19.7089   20.7537   20.1701 H   0  0  0  0  0  0  0  0  0  0  0  0
   20.1500   21.6502   22.0588 C   0  0  0  0  0  0  0  0  0  0  0  0
   20.5355   21.3924   23.0525 H   0  0  0  0  0  0  0  0  0  0  0  0
   19.1831   22.1529   22.1843 H   0  0  0  0  0  0  0  0  0  0  0  0
   20.8432   22.3700   21.6065 H   0  0  0  0  0  0  0  0  0  0  0  0
   21.3276   19.7182   20.9629 N   0  3  0  0  0  0  0  0  0  0  0  0
   21.2454   18.9334   20.3103 H   0  0  0  0  0  0  0  0  0  0  0  0
   22.0279   20.3601   20.5807 H   0  0  0  0  0  0  0  0  0  0  0  0
   21.6947   19.3501   21.8425 H   0  0  0  0  0  0  0  0  0  0  0  0
  1  2  1  0  0  0  0
  1  3  1  0  0  0  0
  1  4  1  0  0  0  0
  1  5  1  0  0  0  0
  5  6  1  0  0  0  0
  5  7  1  0  0  0  0
  5  8  1  0  0  0  0
  8  9  1  0  0  0  0
  8 10  1  0  0  0  0
  8 11  1  0  0  0  0
 11 12  1  0  0  0  0
 11 13  1  0  0  0  0
 11 14  1  0  0  0  0
 14 15  1  0  0  0  0
 14 16  1  0  0  0  0
 14 17  1  0  0  0  0
 17 18  1  0  0  0  0
 17 19  1  0  0  0  0
 19 20  1  0  0  0  0
 19 21  1  0  0  0  0
 19 22  1  0  0  0  0
 17 23  1  0  0  0  0
 23 24  1  0  0  0  0
 23 25  1  0  0  0  0
 23 26  1  0  0  0  0
M  END
> <VConfSearch Rank>
893

> <Conf_Id>
119

> <Delta U+W>
3.538

> <U+W>
-26.761

> <U>
27.482

> <W>
-54.243

> <W(PB)>
-56.494

> <W(SA)>
2.251

> <Valence>
5.284

> <Coulomb>
21.247

> <VdW>
0.951

> <VdW6>
-9.416

> <VdW12>
10.367

> <Bond>
0.323

> <Angle>
2.522

> <Pdih>
2.439

> <Idih>
0.000

> <Tether>
0.000

$$$$
VeraChem MOL file


 26 25  0  0  0  0  0  0  0  0999 V2000     
   22.5232   19.4326   20.6739 C   0  0  0  0  0  0  0  0  0  0  0  0
   22.1085   19.0288   19.7412 H   0  0  0  0  0  0  0  0  0  0  0  0
   22.1353   20.4495   20.8116 H   0  0  0  0  0  0  0  0  0  0  0  0
   23.6115   19.5087   20.5521 H   0  0  0  0  0  0  0  0  0  0  0  0
   22.1760   18.5247   21.8756 C   0  0  0  0  0  0  0  0  0  0  0  0
   22.5749   18.9663   22.7995 H   0  0  0  0  0  0  0  0  0  0  0  0
   22.6880   17.5604   21.7501 H   0  0  0  0  0  0  0  0  0  0  0  0
   20.6585   18.2640   22.0334 C   0  0  0  0  0  0  0  0  0  0  0  0
   20.2717   17.7981   21.1166 H   0  0  0  0  0  0  0  0  0  0  0  0
   20.5185   17.5251   22.8311 H   0  0  0  0  0  0  0  0  0  0  0  0
   19.8433   19.5451   22.3469 C   0  0  0  0  0  0  0  0  0  0  0  0
   19.9060   20.2165   21.4804 H   0  0  0  0  0  0  0  0  0  0  0  0
   20.2992   20.0888   23.1842 H   0  0  0  0  0  0  0  0  0  0  0  0
   18.3401   19.2661   22.6276 C   0  0  0  0  0  0  0  0  0  0  0  0
   17.7509   20.0875   22.1989 H   0  0  0  0  0  0  0  0  0  0  0  0
   18.0190   18.3673   22.0848 H   0  0  0  0  0  0  0  0  0  0  0  0
   17.9398   19.1375   24.1185 C   0  0  1  0  0  0  0  0  0  0  0  0
   16.8647   18.9349   24.1462 H   0  0  0  0  0  0  0  0  0  0  0  0
   18.6473   17.9725   24.8295 C   0  0  0  0  0  0  0  0  0  0  0  0
   19.7224   18.1599   24.9361 H   0  0  0  0  0  0  0  0  0  0  0  0
   18.5090   17.0358   24.2757 H   0  0  0  0  0  0  0  0  0  0  0  0
   18.2322   17.8283   25.8345 H   0  0  0  0  0  0  0  0  0  0  0  0
   18.1359   20.4236   24.8740 N   0  3  0  0  0  0  0  0  0  0  0  0
   17.6234   21.1963   24.4397 H   0  0  0  0  0  0  0  0  0  0  0  0
   17.8065   20.3436   25.8402 H   0  0  0  0  0  0  0  0  0  0  0  0
   19.1230   20.6894   24.9075 H   0  0  0  0  0  0  0  0  0  0  0  0
  1  2  1  0  0  0  0
  1  3  1  0  0  0  0
  1  4  1  0  0  0  0
  1  5  1  0  0  0  0
  5  6  1  0  0  0  0
  5  7  1  0  0  0  0
  5  8  1  0  0  0  0
  8  9  1  0  0  0  0
  8 10  1  0  0  0  0
  8 11  1  0  0  0  0
 11 12  1  0  0  0  0
 11 13  1  0  0  0  0
 11 14  1  0  0  0  0
 14 15  1  0  0  0  0
 14 16  1  0  0  0  0
 14 17  1  0  0  0  0
 17 18  1  0  0  0  0
 17 19  1  0  0  0  0
 19 20  1  0  0  0  0
 19 21  1  0  0  0  0
 19 22  1  0  0  0  0
 17 23  1  0  0  0  0
 23 24  1  0  0  0  0
 23 25  1  0  0  0  0
 23 26  1  0  0  0  0
M  END
> <VConfSearch Rank>
894

> <Conf_Id>
127

> <Delta U+W>
3.544

> <U+W>
-26.754

> <U>
27.509

> <W>
-54.263

> <W(PB)>
-56.496

> <W(SA)>
2.232

> <Valence>
6.375

> <Coulomb>
20.014

> <VdW>
1.120

> <VdW6>
-8.976

> <VdW12>
10.096

> <Bond>
0.304

> <Angle>
1.986

> <Pdih>
4.086

> <Idih>
0.000

> <Tether>
0.000

$$$$
VeraChem MOL file


 26 25  0  0  0  0  0  0  0  0999 V2000     
   22.1642   20.1894   21.0071 C   0  0  0  0  0  0  0  0  0  0  0  0
   22.6267   21.1486   20.7408 H   0  0  0  0  0  0  0  0  0  0  0  0
   22.6167   19.4150   20.3743 H   0  0  0  0  0  0  0  0  0  0  0  0
   21.1003   20.2521   20.7536 H   0  0  0  0  0  0  0  0  0  0  0  0
   22.3893   19.8781   22.5052 C   0  0  0  0  0  0  0  0  0  0  0  0
   21.9997   20.6950   23.1283 H   0  0  0  0  0  0  0  0  0  0  0  0
   23.4731   19.8517   22.6858 H   0  0  0  0  0  0  0  0  0  0  0  0
   21.7815   18.5227   22.9498 C   0  0  0  0  0  0  0  0  0  0  0  0
   21.7606   17.8199   22.1055 H   0  0  0  0  0  0  0  0  0  0  0  0
   22.4564   18.0729   23.6912 H   0  0  0  0  0  0  0  0  0  0  0  0
   20.3760   18.6194   23.5978 C   0  0  0  0  0  0  0  0  0  0  0  0
   20.4408   19.2404   24.5011 H   0  0  0  0  0  0  0  0  0  0  0  0
   20.0951   17.6137   23.9354 H   0  0  0  0  0  0  0  0  0  0  0  0
   19.2787   19.1786   22.6534 C   0  0  0  0  0  0  0  0  0  0  0  0
   19.5178   20.2183   22.3997 H   0  0  0  0  0  0  0  0  0  0  0  0
   19.2894   18.6193   21.7086 H   0  0  0  0  0  0  0  0  0  0  0  0
   17.8444   19.1532   23.2331 C   0  0  1  0  0  0  0  0  0  0  0  0
   17.1918   19.6425   22.5033 H   0  0  0  0  0  0  0  0  0  0  0  0
   17.3221   17.7191   23.4303 C   0  0  0  0  0  0  0  0  0  0  0  0
   17.4200   17.1375   22.5053 H   0  0  0  0  0  0  0  0  0  0  0  0
   16.2597   17.7330   23.7026 H   0  0  0  0  0  0  0  0  0  0  0  0
   17.8633   17.1938   24.2258 H   0  0  0  0  0  0  0  0  0  0  0  0
   17.7229   19.9513   24.5021 N   0  3  0  0  0  0  0  0  0  0  0  0
   18.0235   20.9206   24.3664 H   0  0  0  0  0  0  0  0  0  0  0  0
   16.7561   19.9749   24.8382 H   0  0  0  0  0  0  0  0  0  0  0  0
   18.2975   19.5517   25.2481 H   0  0  0  0  0  0  0  0  0  0  0  0
  1  2  1  0  0  0  0
  1  3  1  0  0  0  0
  1  4  1  0  0  0  0
  1  5  1  0  0  0  0
  5  6  1  0  0  0  0
  5  7  1  0  0  0  0
  5  8  1  0  0  0  0
  8  9  1  0  0  0  0
  8 10  1  0  0  0  0
  8 11  1  0  0  0  0
 11 12  1  0  0  0  0
 11 13  1  0  0  0  0
 11 14  1  0  0  0  0
 14 15  1  0  0  0  0
 14 16  1  0  0  0  0
 14 17  1  0  0  0  0
 17 18  1  0  0  0  0
 17 19  1  0  0  0  0
 19 20  1  0  0  0  0
 19 21  1  0  0  0  0
 19 22  1  0  0  0  0
 17 23  1  0  0  0  0
 23 24  1  0  0  0  0
 23 25  1  0  0  0  0
 23 26  1  0  0  0  0
M  END
> <VConfSearch Rank>
895

> <Conf_Id>
131

> <Delta U+W>
3.589

> <U+W>
-26.710

> <U>
27.573

> <W>
-54.283

> <W(PB)>
-56.537

> <W(SA)>
2.254

> <Valence>
6.363

> <Coulomb>
20.026

> <VdW>
1.184

> <VdW6>
-8.939

> <VdW12>
10.123

> <Bond>
0.298

> <Angle>
2.018

> <Pdih>
4.047

> <Idih>
0.000

> <Tether>
0.000

$$$$
VeraChem MOL file


 26 25  0  0  0  0  0  0  0  0999 V2000     
   18.8542   21.5222   24.0785 C   0  0  0  0  0  0  0  0  0  0  0  0
   17.9693   20.9514   24.3884 H   0  0  0  0  0  0  0  0  0  0  0  0
   19.7521   20.9674   24.3769 H   0  0  0  0  0  0  0  0  0  0  0  0
   18.8551   22.4687   24.6344 H   0  0  0  0  0  0  0  0  0  0  0  0
   18.8407   21.7902   22.5578 C   0  0  0  0  0  0  0  0  0  0  0  0
   19.7720   22.2975   22.2693 H   0  0  0  0  0  0  0  0  0  0  0  0
   18.0283   22.4949   22.3316 H   0  0  0  0  0  0  0  0  0  0  0  0
   18.6477   20.5228   21.6863 C   0  0  0  0  0  0  0  0  0  0  0  0
   17.6667   20.0718   21.8891 H   0  0  0  0  0  0  0  0  0  0  0  0
   18.6124   20.8467   20.6369 H   0  0  0  0  0  0  0  0  0  0  0  0
   19.7704   19.4614   21.8261 C   0  0  0  0  0  0  0  0  0  0  0  0
   20.7171   19.9603   22.0699 H   0  0  0  0  0  0  0  0  0  0  0  0
   19.9200   18.9840   20.8477 H   0  0  0  0  0  0  0  0  0  0  0  0
   19.4423   18.3501   22.8581 C   0  0  0  0  0  0  0  0  0  0  0  0
   19.3054   18.7774   23.8577 H   0  0  0  0  0  0  0  0  0  0  0  0
   18.4804   17.8973   22.5840 H   0  0  0  0  0  0  0  0  0  0  0  0
   20.5061   17.2305   22.9215 C   0  0  1  0  0  0  0  0  0  0  0  0
   20.6683   16.8527   21.9073 H   0  0  0  0  0  0  0  0  0  0  0  0
   21.8497   17.7398   23.4740 C   0  0  0  0  0  0  0  0  0  0  0  0
   21.7263   18.1865   24.4684 H   0  0  0  0  0  0  0  0  0  0  0  0
   22.2949   18.4917   22.8125 H   0  0  0  0  0  0  0  0  0  0  0  0
   22.5695   16.9163   23.5583 H   0  0  0  0  0  0  0  0  0  0  0  0
   20.0188   16.0639   23.7354 N   0  3  0  0  0  0  0  0  0  0  0  0
   19.8433   16.3323   24.7073 H   0  0  0  0  0  0  0  0  0  0  0  0
   19.1469   15.6798   23.3599 H   0  0  0  0  0  0  0  0  0  0  0  0
   20.7049   15.3039   23.7478 H   0  0  0  0  0  0  0  0  0  0  0  0
  1  2  1  0  0  0  0
  1  3  1  0  0  0  0
  1  4  1  0  0  0  0
  1  5  1  0  0  0  0
  5  6  1  0  0  0  0
  5  7  1  0  0  0  0
  5  8  1  0  0  0  0
  8  9  1  0  0  0  0
  8 10  1  0  0  0  0
  8 11  1  0  0  0  0
 11 12  1  0  0  0  0
 11 13  1  0  0  0  0
 11 14  1  0  0  0  0
 14 15  1  0  0  0  0
 14 16  1  0  0  0  0
 14 17  1  0  0  0  0
 17 18  1  0  0  0  0
 17 19  1  0  0  0  0
 19 20  1  0  0  0  0
 19 21  1  0  0  0  0
 19 22  1  0  0  0  0
 17 23  1  0  0  0  0
 23 24  1  0  0  0  0
 23 25  1  0  0  0  0
 23 26  1  0  0  0  0
M  END
> <VConfSearch Rank>
896

> <Conf_Id>
80

> <Delta U+W>
3.351

> <U+W>
-26.948

> <U>
27.261

> <W>
-54.209

> <W(PB)>
-56.471

> <W(SA)>
2.263

> <Valence>
6.230

> <Coulomb>
19.945

> <VdW>
1.087

> <VdW6>
-8.618

> <VdW12>
9.704

> <Bond>
0.277

> <Angle>
1.928

> <Pdih>
4.025

> <Idih>
0.000

> <Tether>
0.000

$$$$
VeraChem MOL file


 26 25  0  0  0  0  0  0  0  0999 V2000     
   18.7971   16.5317   21.1868 C   0  0  0  0  0  0  0  0  0  0  0  0
   19.2204   15.9176   20.3814 H   0  0  0  0  0  0  0  0  0  0  0  0
   17.9237   16.0028   21.5894 H   0  0  0  0  0  0  0  0  0  0  0  0
   18.4546   17.4726   20.7383 H   0  0  0  0  0  0  0  0  0  0  0  0
   19.8520   16.7817   22.2880 C   0  0  0  0  0  0  0  0  0  0  0  0
   20.7018   17.3345   21.8673 H   0  0  0  0  0  0  0  0  0  0  0  0
   20.2594   15.8136   22.6112 H   0  0  0  0  0  0  0  0  0  0  0  0
   19.2900   17.5162   23.5331 C   0  0  0  0  0  0  0  0  0  0  0  0
   18.5533   16.8606   24.0174 H   0  0  0  0  0  0  0  0  0  0  0  0
   20.0991   17.6340   24.2628 H   0  0  0  0  0  0  0  0  0  0  0  0
   18.6104   18.8876   23.2579 C   0  0  0  0  0  0  0  0  0  0  0  0
   18.1840   19.2755   24.1931 H   0  0  0  0  0  0  0  0  0  0  0  0
   17.7465   18.7196   22.6014 H   0  0  0  0  0  0  0  0  0  0  0  0
   19.5156   19.9761   22.6156 C   0  0  0  0  0  0  0  0  0  0  0  0
   20.2623   19.5271   21.9512 H   0  0  0  0  0  0  0  0  0  0  0  0
   18.8782   20.5893   21.9650 H   0  0  0  0  0  0  0  0  0  0  0  0
   20.2040   20.9358   23.6161 C   0  0  1  0  0  0  0  0  0  0  0  0
   19.4264   21.4161   24.2179 H   0  0  0  0  0  0  0  0  0  0  0  0
   21.1716   20.2163   24.5701 C   0  0  0  0  0  0  0  0  0  0  0  0
   20.6254   19.5732   25.2689 H   0  0  0  0  0  0  0  0  0  0  0  0
   21.7312   20.9411   25.1741 H   0  0  0  0  0  0  0  0  0  0  0  0
   21.8938   19.6025   24.0176 H   0  0  0  0  0  0  0  0  0  0  0  0
   20.9186   22.0429   22.8915 N   0  3  0  0  0  0  0  0  0  0  0  0
   20.2832   22.5687   22.2846 H   0  0  0  0  0  0  0  0  0  0  0  0
   21.3353   22.7105   23.5465 H   0  0  0  0  0  0  0  0  0  0  0  0
   21.6741   21.6792   22.3046 H   0  0  0  0  0  0  0  0  0  0  0  0
  1  2  1  0  0  0  0
  1  3  1  0  0  0  0
  1  4  1  0  0  0  0
  1  5  1  0  0  0  0
  5  6  1  0  0  0  0
  5  7  1  0  0  0  0
  5  8  1  0  0  0  0
  8  9  1  0  0  0  0
  8 10  1  0  0  0  0
  8 11  1  0  0  0  0
 11 12  1  0  0  0  0
 11 13  1  0  0  0  0
 11 14  1  0  0  0  0
 14 15  1  0  0  0  0
 14 16  1  0  0  0  0
 14 17  1  0  0  0  0
 17 18  1  0  0  0  0
 17 19  1  0  0  0  0
 19 20  1  0  0  0  0
 19 21  1  0  0  0  0
 19 22  1  0  0  0  0
 17 23  1  0  0  0  0
 23 24  1  0  0  0  0
 23 25  1  0  0  0  0
 23 26  1  0  0  0  0
M  END
> <VConfSearch Rank>
897

> <Conf_Id>
136

> <Delta U+W>
4.272

> <U+W>
-26.026

> <U>
28.262

> <W>
-54.288

> <W(PB)>
-56.488

> <W(SA)>
2.200

> <Valence>
7.096

> <Coulomb>
19.990

> <VdW>
1.175

> <VdW6>
-9.404

> <VdW12>
10.580

> <Bond>
0.360

> <Angle>
2.785

> <Pdih>
3.951

> <Idih>
0.000

> <Tether>
0.000

$$$$
VeraChem MOL file


 26 25  0  0  0  0  0  0  0  0999 V2000     
   16.9676   19.8129   22.3101 C   0  0  0  0  0  0  0  0  0  0  0  0
   17.7495   20.5728   22.4311 H   0  0  0  0  0  0  0  0  0  0  0  0
   16.0685   20.3239   21.9419 H   0  0  0  0  0  0  0  0  0  0  0  0
   16.7335   19.3904   23.2958 H   0  0  0  0  0  0  0  0  0  0  0  0
   17.4045   18.7106   21.3207 C   0  0  0  0  0  0  0  0  0  0  0  0
   17.6849   19.1711   20.3631 H   0  0  0  0  0  0  0  0  0  0  0  0
   16.5400   18.0668   21.1067 H   0  0  0  0  0  0  0  0  0  0  0  0
   18.5671   17.8199   21.8287 C   0  0  0  0  0  0  0  0  0  0  0  0
   18.2593   17.2757   22.7323 H   0  0  0  0  0  0  0  0  0  0  0  0
   18.7493   17.0491   21.0671 H   0  0  0  0  0  0  0  0  0  0  0  0
   19.8984   18.5746   22.0810 C   0  0  0  0  0  0  0  0  0  0  0  0
   19.9626   19.4527   21.4237 H   0  0  0  0  0  0  0  0  0  0  0  0
   20.7255   17.9136   21.7897 H   0  0  0  0  0  0  0  0  0  0  0  0
   20.0955   18.9924   23.5616 C   0  0  0  0  0  0  0  0  0  0  0  0
   19.2265   19.5657   23.9033 H   0  0  0  0  0  0  0  0  0  0  0  0
   20.1400   18.0957   24.1940 H   0  0  0  0  0  0  0  0  0  0  0  0
   21.3650   19.8433   23.7814 C   0  0  1  0  0  0  0  0  0  0  0  0
   21.3099   20.7166   23.1241 H   0  0  0  0  0  0  0  0  0  0  0  0
   21.4320   20.3379   25.2353 C   0  0  0  0  0  0  0  0  0  0  0  0
   21.4899   19.4976   25.9383 H   0  0  0  0  0  0  0  0  0  0  0  0
   20.5448   20.9328   25.4861 H   0  0  0  0  0  0  0  0  0  0  0  0
   22.3127   20.9736   25.3890 H   0  0  0  0  0  0  0  0  0  0  0  0
   22.6245   19.1057   23.4166 N   0  3  0  0  0  0  0  0  0  0  0  0
   22.7461   18.2677   23.9913 H   0  0  0  0  0  0  0  0  0  0  0  0
   22.6139   18.8093   22.4371 H   0  0  0  0  0  0  0  0  0  0  0  0
   23.4534   19.6918   23.5499 H   0  0  0  0  0  0  0  0  0  0  0  0
  1  2  1  0  0  0  0
  1  3  1  0  0  0  0
  1  4  1  0  0  0  0
  1  5  1  0  0  0  0
  5  6  1  0  0  0  0
  5  7  1  0  0  0  0
  5  8  1  0  0  0  0
  8  9  1  0  0  0  0
  8 10  1  0  0  0  0
  8 11  1  0  0  0  0
 11 12  1  0  0  0  0
 11 13  1  0  0  0  0
 11 14  1  0  0  0  0
 14 15  1  0  0  0  0
 14 16  1  0  0  0  0
 14 17  1  0  0  0  0
 17 18  1  0  0  0  0
 17 19  1  0  0  0  0
 19 20  1  0  0  0  0
 19 21  1  0  0  0  0
 19 22  1  0  0  0  0
 17 23  1  0  0  0  0
 23 24  1  0  0  0  0
 23 25  1  0  0  0  0
 23 26  1  0  0  0  0
M  END
> <VConfSearch Rank>
898

> <Conf_Id>
124

> <Delta U+W>
3.001

> <U+W>
-27.298

> <U>
26.787

> <W>
-54.085

> <W(PB)>
-56.347

> <W(SA)>
2.262

> <Valence>
5.742

> <Coulomb>
20.023

> <VdW>
1.022

> <VdW6>
-8.392

> <VdW12>
9.414

> <Bond>
0.261

> <Angle>
1.576

> <Pdih>
3.904

> <Idih>
0.000

> <Tether>
0.000

$$$$
VeraChem MOL file


 26 25  0  0  0  0  0  0  0  0999 V2000     
   20.9751   16.1849   23.0260 C   0  0  0  0  0  0  0  0  0  0  0  0
   22.0482   16.1191   23.2477 H   0  0  0  0  0  0  0  0  0  0  0  0
   20.6128   15.1671   22.8314 H   0  0  0  0  0  0  0  0  0  0  0  0
   20.8564   16.7609   22.1019 H   0  0  0  0  0  0  0  0  0  0  0  0
   20.2048   16.8155   24.2096 C   0  0  0  0  0  0  0  0  0  0  0  0
   20.3457   16.1687   25.0869 H   0  0  0  0  0  0  0  0  0  0  0  0
   19.1250   16.8164   24.0057 H   0  0  0  0  0  0  0  0  0  0  0  0
   20.6872   18.2447   24.5684 C   0  0  0  0  0  0  0  0  0  0  0  0
   20.6185   18.3639   25.6586 H   0  0  0  0  0  0  0  0  0  0  0  0
   21.7527   18.3588   24.3259 H   0  0  0  0  0  0  0  0  0  0  0  0
   19.8665   19.3909   23.9226 C   0  0  0  0  0  0  0  0  0  0  0  0
   20.2479   20.3421   24.3160 H   0  0  0  0  0  0  0  0  0  0  0  0
   18.8239   19.3150   24.2589 H   0  0  0  0  0  0  0  0  0  0  0  0
   19.9182   19.4133   22.3719 C   0  0  0  0  0  0  0  0  0  0  0  0
   20.9625   19.3382   22.0422 H   0  0  0  0  0  0  0  0  0  0  0  0
   19.4048   18.5270   21.9791 H   0  0  0  0  0  0  0  0  0  0  0  0
   19.2851   20.6646   21.7186 C   0  0  1  0  0  0  0  0  0  0  0  0
   19.3847   20.5506   20.6347 H   0  0  0  0  0  0  0  0  0  0  0  0
   17.7849   20.7862   22.0384 C   0  0  0  0  0  0  0  0  0  0  0  0
   17.6128   20.9935   23.1013 H   0  0  0  0  0  0  0  0  0  0  0  0
   17.2546   19.8618   21.7779 H   0  0  0  0  0  0  0  0  0  0  0  0
   17.3342   21.6022   21.4603 H   0  0  0  0  0  0  0  0  0  0  0  0
   20.0162   21.9307   22.0719 N   0  3  0  0  0  0  0  0  0  0  0  0
   19.6237   22.7388   21.5806 H   0  0  0  0  0  0  0  0  0  0  0  0
   19.9610   22.1252   23.0745 H   0  0  0  0  0  0  0  0  0  0  0  0
   21.0078   21.8738   21.8228 H   0  0  0  0  0  0  0  0  0  0  0  0
  1  2  1  0  0  0  0
  1  3  1  0  0  0  0
  1  4  1  0  0  0  0
  1  5  1  0  0  0  0
  5  6  1  0  0  0  0
  5  7  1  0  0  0  0
  5  8  1  0  0  0  0
  8  9  1  0  0  0  0
  8 10  1  0  0  0  0
  8 11  1  0  0  0  0
 11 12  1  0  0  0  0
 11 13  1  0  0  0  0
 11 14  1  0  0  0  0
 14 15  1  0  0  0  0
 14 16  1  0  0  0  0
 14 17  1  0  0  0  0
 17 18  1  0  0  0  0
 17 19  1  0  0  0  0
 19 20  1  0  0  0  0
 19 21  1  0  0  0  0
 19 22  1  0  0  0  0
 17 23  1  0  0  0  0
 23 24  1  0  0  0  0
 23 25  1  0  0  0  0
 23 26  1  0  0  0  0
M  END
> <VConfSearch Rank>
899

> <Conf_Id>
105

> <Delta U+W>
3.442

> <U+W>
-26.857

> <U>
27.313

> <W>
-54.169

> <W(PB)>
-56.414

> <W(SA)>
2.245

> <Valence>
6.229

> <Coulomb>
19.943

> <VdW>
1.140

> <VdW6>
-9.001

> <VdW12>
10.140

> <Bond>
0.294

> <Angle>
1.969

> <Pdih>
3.967

> <Idih>
0.000

> <Tether>
0.000

$$$$
VeraChem MOL file


 26 25  0  0  0  0  0  0  0  0999 V2000     
   17.1554   20.7063   22.9681 C   0  0  0  0  0  0  0  0  0  0  0  0
   17.1298   21.6083   22.3429 H   0  0  0  0  0  0  0  0  0  0  0  0
   16.2349   20.6900   23.5658 H   0  0  0  0  0  0  0  0  0  0  0  0
   17.9983   20.8001   23.6613 H   0  0  0  0  0  0  0  0  0  0  0  0
   17.2557   19.4330   22.0959 C   0  0  0  0  0  0  0  0  0  0  0  0
   16.3631   19.3912   21.4561 H   0  0  0  0  0  0  0  0  0  0  0  0
   17.2174   18.5340   22.7266 H   0  0  0  0  0  0  0  0  0  0  0  0
   18.5131   19.4026   21.1892 C   0  0  0  0  0  0  0  0  0  0  0  0
   18.2425   18.9048   20.2477 H   0  0  0  0  0  0  0  0  0  0  0  0
   18.8051   20.4242   20.9095 H   0  0  0  0  0  0  0  0  0  0  0  0
   19.7271   18.6435   21.7845 C   0  0  0  0  0  0  0  0  0  0  0  0
   20.5238   18.6232   21.0279 H   0  0  0  0  0  0  0  0  0  0  0  0
   19.4433   17.5974   21.9611 H   0  0  0  0  0  0  0  0  0  0  0  0
   20.2884   19.2633   23.0880 C   0  0  0  0  0  0  0  0  0  0  0  0
   20.4297   20.3418   22.9380 H   0  0  0  0  0  0  0  0  0  0  0  0
   19.5610   19.1442   23.9006 H   0  0  0  0  0  0  0  0  0  0  0  0
   21.6335   18.6389   23.5175 C   0  0  1  0  0  0  0  0  0  0  0  0
   22.3423   18.7498   22.6911 H   0  0  0  0  0  0  0  0  0  0  0  0
   22.1992   19.3780   24.7407 C   0  0  0  0  0  0  0  0  0  0  0  0
   21.5246   19.2951   25.6020 H   0  0  0  0  0  0  0  0  0  0  0  0
   22.3428   20.4432   24.5206 H   0  0  0  0  0  0  0  0  0  0  0  0
   23.1734   18.9637   25.0284 H   0  0  0  0  0  0  0  0  0  0  0  0
   21.5204   17.1648   23.7960 N   0  3  0  0  0  0  0  0  0  0  0  0
   21.1845   16.6543   22.9751 H   0  0  0  0  0  0  0  0  0  0  0  0
   22.4252   16.7629   24.0572 H   0  0  0  0  0  0  0  0  0  0  0  0
   20.8693   16.9786   24.5631 H   0  0  0  0  0  0  0  0  0  0  0  0
  1  2  1  0  0  0  0
  1  3  1  0  0  0  0
  1  4  1  0  0  0  0
  1  5  1  0  0  0  0
  5  6  1  0  0  0  0
  5  7  1  0  0  0  0
  5  8  1  0  0  0  0
  8  9  1  0  0  0  0
  8 10  1  0  0  0  0
  8 11  1  0  0  0  0
 11 12  1  0  0  0  0
 11 13  1  0  0  0  0
 11 14  1  0  0  0  0
 14 15  1  0  0  0  0
 14 16  1  0  0  0  0
 14 17  1  0  0  0  0
 17 18  1  0  0  0  0
 17 19  1  0  0  0  0
 19 20  1  0  0  0  0
 19 21  1  0  0  0  0
 19 22  1  0  0  0  0
 17 23  1  0  0  0  0
 23 24  1  0  0  0  0
 23 25  1  0  0  0  0
 23 26  1  0  0  0  0
M  END
> <VConfSearch Rank>
900

> <Conf_Id>
107

> <Delta U+W>
2.995

> <U+W>
-27.304

> <U>
26.796

> <W>
-54.100

> <W(PB)>
-56.404

> <W(SA)>
2.304

> <Valence>
5.706

> <Coulomb>
20.107

> <VdW>
0.982

> <VdW6>
-8.396

> <VdW12>
9.378

> <Bond>
0.254

> <Angle>
1.644

> <Pdih>
3.808

> <Idih>
0.000

> <Tether>
0.000

$$$$
VeraChem MOL file


 26 25  0  0  0  0  0  0  0  0999 V2000     
   21.6362   17.0172   26.0931 C   0  0  0  0  0  0  0  0  0  0  0  0
   22.2678   16.3579   25.4834 H   0  0  0  0  0  0  0  0  0  0  0  0
   22.1830   17.2481   27.0165 H   0  0  0  0  0  0  0  0  0  0  0  0
   20.7291   16.4633   26.3681 H   0  0  0  0  0  0  0  0  0  0  0  0
   21.2856   18.3116   25.3292 C   0  0  0  0  0  0  0  0  0  0  0  0
   22.2096   18.8600   25.0980 H   0  0  0  0  0  0  0  0  0  0  0  0
   20.6828   18.9645   25.9760 H   0  0  0  0  0  0  0  0  0  0  0  0
   20.5147   18.0146   24.0238 C   0  0  0  0  0  0  0  0  0  0  0  0
   21.1203   17.3590   23.3828 H   0  0  0  0  0  0  0  0  0  0  0  0
   19.5930   17.4649   24.2599 H   0  0  0  0  0  0  0  0  0  0  0  0
   20.1624   19.3084   23.2555 C   0  0  0  0  0  0  0  0  0  0  0  0
   21.0854   19.8553   23.0170 H   0  0  0  0  0  0  0  0  0  0  0  0
   19.5634   19.9604   23.9051 H   0  0  0  0  0  0  0  0  0  0  0  0
   19.3889   19.0075   21.9487 C   0  0  0  0  0  0  0  0  0  0  0  0
   19.9802   18.3116   21.3387 H   0  0  0  0  0  0  0  0  0  0  0  0
   18.4467   18.4948   22.1843 H   0  0  0  0  0  0  0  0  0  0  0  0
   19.0967   20.2744   21.1156 C   0  0  1  0  0  0  0  0  0  0  0  0
   20.0467   20.7791   20.9145 H   0  0  0  0  0  0  0  0  0  0  0  0
   18.4585   19.8937   19.7701 C   0  0  0  0  0  0  0  0  0  0  0  0
   17.4979   19.3840   19.9162 H   0  0  0  0  0  0  0  0  0  0  0  0
   19.1170   19.2253   19.2014 H   0  0  0  0  0  0  0  0  0  0  0  0
   18.2820   20.7865   19.1575 H   0  0  0  0  0  0  0  0  0  0  0  0
   18.2296   21.2602   21.8504 N   0  3  0  0  0  0  0  0  0  0  0  0
   17.3168   20.8574   22.0782 H   0  0  0  0  0  0  0  0  0  0  0  0
   18.6631   21.5584   22.7281 H   0  0  0  0  0  0  0  0  0  0  0  0
   18.0623   22.1011   21.2907 H   0  0  0  0  0  0  0  0  0  0  0  0
  1  2  1  0  0  0  0
  1  3  1  0  0  0  0
  1  4  1  0  0  0  0
  1  5  1  0  0  0  0
  5  6  1  0  0  0  0
  5  7  1  0  0  0  0
  5  8  1  0  0  0  0
  8  9  1  0  0  0  0
  8 10  1  0  0  0  0
  8 11  1  0  0  0  0
 11 12  1  0  0  0  0
 11 13  1  0  0  0  0
 11 14  1  0  0  0  0
 14 15  1  0  0  0  0
 14 16  1  0  0  0  0
 14 17  1  0  0  0  0
 17 18  1  0  0  0  0
 17 19  1  0  0  0  0
 19 20  1  0  0  0  0
 19 21  1  0  0  0  0
 19 22  1  0  0  0  0
 17 23  1  0  0  0  0
 23 24  1  0  0  0  0
 23 25  1  0  0  0  0
 23 26  1  0  0  0  0
M  END
> <VConfSearch Rank>
901

> <Conf_Id>
122

> <Delta U+W>
0.000

> <U+W>
-30.299

> <U>
23.517

> <W>
-53.816

> <W(PB)>
-56.162

> <W(SA)>
2.346

> <Valence>
2.737

> <Coulomb>
19.862

> <VdW>
0.919

> <VdW6>
-6.793

> <VdW12>
7.712

> <Bond>
0.171

> <Angle>
0.873

> <Pdih>
1.693

> <Idih>
0.000

> <Tether>
0.000

$$$$
VeraChem MOL file


 26 25  0  0  0  0  0  0  0  0999 V2000     
   20.7678   16.4168   25.9960 C   0  0  0  0  0  0  0  0  0  0  0  0
   20.3979   15.4541   26.3722 H   0  0  0  0  0  0  0  0  0  0  0  0
   21.8305   16.2958   25.7484 H   0  0  0  0  0  0  0  0  0  0  0  0
   20.6875   17.1498   26.8093 H   0  0  0  0  0  0  0  0  0  0  0  0
   19.9582   16.8669   24.7615 C   0  0  0  0  0  0  0  0  0  0  0  0
   18.8958   16.9460   25.0315 H   0  0  0  0  0  0  0  0  0  0  0  0
   20.0300   16.0987   23.9786 H   0  0  0  0  0  0  0  0  0  0  0  0
   20.4591   18.2207   24.2113 C   0  0  0  0  0  0  0  0  0  0  0  0
   20.3872   18.9847   24.9978 H   0  0  0  0  0  0  0  0  0  0  0  0
   21.5222   18.1367   23.9463 H   0  0  0  0  0  0  0  0  0  0  0  0
   19.6509   18.6747   22.9746 C   0  0  0  0  0  0  0  0  0  0  0  0
   18.5902   18.7469   23.2484 H   0  0  0  0  0  0  0  0  0  0  0  0
   19.7273   17.9123   22.1868 H   0  0  0  0  0  0  0  0  0  0  0  0
   20.1525   20.0341   22.4282 C   0  0  0  0  0  0  0  0  0  0  0  0
   20.0171   20.8126   23.1908 H   0  0  0  0  0  0  0  0  0  0  0  0
   21.2331   19.9606   22.2473 H   0  0  0  0  0  0  0  0  0  0  0  0
   19.4657   20.4692   21.1133 C   0  0  1  0  0  0  0  0  0  0  0  0
   19.5780   19.6610   20.3839 H   0  0  0  0  0  0  0  0  0  0  0  0
   17.9637   20.7455   21.3066 C   0  0  0  0  0  0  0  0  0  0  0  0
   17.7963   21.5072   22.0783 H   0  0  0  0  0  0  0  0  0  0  0  0
   17.4248   19.8365   21.5977 H   0  0  0  0  0  0  0  0  0  0  0  0
   17.5135   21.1034   20.3725 H   0  0  0  0  0  0  0  0  0  0  0  0
   20.1437   21.6729   20.5199 N   0  3  0  0  0  0  0  0  0  0  0  0
   20.0823   22.4825   21.1430 H   0  0  0  0  0  0  0  0  0  0  0  0
   21.1365   21.4970   20.3411 H   0  0  0  0  0  0  0  0  0  0  0  0
   19.7173   21.9409   19.6283 H   0  0  0  0  0  0  0  0  0  0  0  0
  1  2  1  0  0  0  0
  1  3  1  0  0  0  0
  1  4  1  0  0  0  0
  1  5  1  0  0  0  0
  5  6  1  0  0  0  0
  5  7  1  0  0  0  0
  5  8  1  0  0  0  0
  8  9  1  0  0  0  0
  8 10  1  0  0  0  0
  8 11  1  0  0  0  0
 11 12  1  0  0  0  0
 11 13  1  0  0  0  0
 11 14  1  0  0  0  0
 14 15  1  0  0  0  0
 14 16  1  0  0  0  0
 14 17  1  0  0  0  0
 17 18  1  0  0  0  0
 17 19  1  0  0  0  0
 19 20  1  0  0  0  0
 19 21  1  0  0  0  0
 19 22  1  0  0  0  0
 17 23  1  0  0  0  0
 23 24  1  0  0  0  0
 23 25  1  0  0  0  0
 23 26  1  0  0  0  0
M  END
> <VConfSearch Rank>
902

> <Conf_Id>
54

> <Delta U+W>
0.453

> <U+W>
-29.845

> <U>
23.817

> <W>
-53.663

> <W(PB)>
-56.021

> <W(SA)>
2.358

> <Valence>
3.277

> <Coulomb>
19.492

> <VdW>
1.049

> <VdW6>
-6.949

> <VdW12>
7.998

> <Bond>
0.183

> <Angle>
1.152

> <Pdih>
1.942

> <Idih>
0.000

> <Tether>
0.000

$$$$
VeraChem MOL file


 26 25  0  0  0  0  0  0  0  0999 V2000     
   22.5978   21.4113   22.2886 C   0  0  0  0  0  0  0  0  0  0  0  0
   21.9124   22.2676   22.3338 H   0  0  0  0  0  0  0  0  0  0  0  0
   22.8729   21.1364   23.3141 H   0  0  0  0  0  0  0  0  0  0  0  0
   23.5131   21.7416   21.7806 H   0  0  0  0  0  0  0  0  0  0  0  0
   21.9576   20.2260   21.5304 C   0  0  0  0  0  0  0  0  0  0  0  0
   22.6474   19.3704   21.5280 H   0  0  0  0  0  0  0  0  0  0  0  0
   21.8237   20.5149   20.4785 H   0  0  0  0  0  0  0  0  0  0  0  0
   20.5855   19.7931   22.1020 C   0  0  0  0  0  0  0  0  0  0  0  0
   19.9110   20.6601   22.1295 H   0  0  0  0  0  0  0  0  0  0  0  0
   20.1512   19.0700   21.4015 H   0  0  0  0  0  0  0  0  0  0  0  0
   20.6793   19.1495   23.5086 C   0  0  0  0  0  0  0  0  0  0  0  0
   21.2292   19.8215   24.1793 H   0  0  0  0  0  0  0  0  0  0  0  0
   21.2728   18.2268   23.4488 H   0  0  0  0  0  0  0  0  0  0  0  0
   19.3133   18.8416   24.1772 C   0  0  0  0  0  0  0  0  0  0  0  0
   19.5268   18.4904   25.1956 H   0  0  0  0  0  0  0  0  0  0  0  0
   18.7331   19.7662   24.2963 H   0  0  0  0  0  0  0  0  0  0  0  0
   18.4598   17.7722   23.4544 C   0  0  1  0  0  0  0  0  0  0  0  0
   19.1295   16.9948   23.0740 H   0  0  0  0  0  0  0  0  0  0  0  0
   17.4742   17.1188   24.4375 C   0  0  0  0  0  0  0  0  0  0  0  0
   16.8763   16.3488   23.9345 H   0  0  0  0  0  0  0  0  0  0  0  0
   16.7876   17.8613   24.8634 H   0  0  0  0  0  0  0  0  0  0  0  0
   18.0093   16.6342   25.2637 H   0  0  0  0  0  0  0  0  0  0  0  0
   17.7056   18.3259   22.2761 N   0  3  0  0  0  0  0  0  0  0  0  0
   18.3351   18.7608   21.5981 H   0  0  0  0  0  0  0  0  0  0  0  0
   17.1846   17.5922   21.7875 H   0  0  0  0  0  0  0  0  0  0  0  0
   17.0300   19.0369   22.5684 H   0  0  0  0  0  0  0  0  0  0  0  0
  1  2  1  0  0  0  0
  1  3  1  0  0  0  0
  1  4  1  0  0  0  0
  1  5  1  0  0  0  0
  5  6  1  0  0  0  0
  5  7  1  0  0  0  0
  5  8  1  0  0  0  0
  8  9  1  0  0  0  0
  8 10  1  0  0  0  0
  8 11  1  0  0  0  0
 11 12  1  0  0  0  0
 11 13  1  0  0  0  0
 11 14  1  0  0  0  0
 14 15  1  0  0  0  0
 14 16  1  0  0  0  0
 14 17  1  0  0  0  0
 17 18  1  0  0  0  0
 17 19  1  0  0  0  0
 19 20  1  0  0  0  0
 19 21  1  0  0  0  0
 19 22  1  0  0  0  0
 17 23  1  0  0  0  0
 23 24  1  0  0  0  0
 23 25  1  0  0  0  0
 23 26  1  0  0  0  0
M  END
> <VConfSearch Rank>
903

> <Conf_Id>
110

> <Delta U+W>
3.764

> <U+W>
-26.535

> <U>
27.400

> <W>
-53.935

> <W(PB)>
-56.238

> <W(SA)>
2.303

> <Valence>
5.205

> <Coulomb>
21.096

> <VdW>
1.098

> <VdW6>
-8.389

> <VdW12>
9.488

> <Bond>
0.270

> <Angle>
1.912

> <Pdih>
3.023

> <Idih>
0.000

> <Tether>
0.000

$$$$
VeraChem MOL file


 26 25  0  0  0  0  0  0  0  0999 V2000     
   16.6600   17.7979   24.2588 C   0  0  0  0  0  0  0  0  0  0  0  0
   15.5994   17.5615   24.1034 H   0  0  0  0  0  0  0  0  0  0  0  0
   17.2367   16.8950   24.0229 H   0  0  0  0  0  0  0  0  0  0  0  0
   16.8001   18.0281   25.3229 H   0  0  0  0  0  0  0  0  0  0  0  0
   17.0840   18.9903   23.3716 C   0  0  0  0  0  0  0  0  0  0  0  0
   16.4004   19.8305   23.5574 H   0  0  0  0  0  0  0  0  0  0  0  0
   16.9625   18.7239   22.3123 H   0  0  0  0  0  0  0  0  0  0  0  0
   18.5348   19.4641   23.6284 C   0  0  0  0  0  0  0  0  0  0  0  0
   18.7081   20.3759   23.0444 H   0  0  0  0  0  0  0  0  0  0  0  0
   18.6419   19.7549   24.6825 H   0  0  0  0  0  0  0  0  0  0  0  0
   19.6023   18.3962   23.2757 C   0  0  0  0  0  0  0  0  0  0  0  0
   19.4262   17.9942   22.2684 H   0  0  0  0  0  0  0  0  0  0  0  0
   19.4882   17.5491   23.9651 H   0  0  0  0  0  0  0  0  0  0  0  0
   21.0579   18.9212   23.3930 C   0  0  0  0  0  0  0  0  0  0  0  0
   21.1107   19.7383   24.1247 H   0  0  0  0  0  0  0  0  0  0  0  0
   21.6739   18.1111   23.8053 H   0  0  0  0  0  0  0  0  0  0  0  0
   21.7003   19.3585   22.0543 C   0  0  1  0  0  0  0  0  0  0  0  0
   21.6697   18.5062   21.3686 H   0  0  0  0  0  0  0  0  0  0  0  0
   20.9602   20.5328   21.3917 C   0  0  0  0  0  0  0  0  0  0  0  0
   20.8873   21.3911   22.0710 H   0  0  0  0  0  0  0  0  0  0  0  0
   19.9481   20.2398   21.0893 H   0  0  0  0  0  0  0  0  0  0  0  0
   21.4855   20.8593   20.4858 H   0  0  0  0  0  0  0  0  0  0  0  0
   23.1532   19.6985   22.2393 N   0  3  0  0  0  0  0  0  0  0  0  0
   23.6775   18.9127   22.6344 H   0  0  0  0  0  0  0  0  0  0  0  0
   23.5965   19.9427   21.3492 H   0  0  0  0  0  0  0  0  0  0  0  0
   23.2737   20.4962   22.8691 H   0  0  0  0  0  0  0  0  0  0  0  0
  1  2  1  0  0  0  0
  1  3  1  0  0  0  0
  1  4  1  0  0  0  0
  1  5  1  0  0  0  0
  5  6  1  0  0  0  0
  5  7  1  0  0  0  0
  5  8  1  0  0  0  0
  8  9  1  0  0  0  0
  8 10  1  0  0  0  0
  8 11  1  0  0  0  0
 11 12  1  0  0  0  0
 11 13  1  0  0  0  0
 11 14  1  0  0  0  0
 14 15  1  0  0  0  0
 14 16  1  0  0  0  0
 14 17  1  0  0  0  0
 17 18  1  0  0  0  0
 17 19  1  0  0  0  0
 19 20  1  0  0  0  0
 19 21  1  0  0  0  0
 19 22  1  0  0  0  0
 17 23  1  0  0  0  0
 23 24  1  0  0  0  0
 23 25  1  0  0  0  0
 23 26  1  0  0  0  0
M  END
> <VConfSearch Rank>
904

> <Conf_Id>
34

> <Delta U+W>
3.568

> <U+W>
-26.731

> <U>
27.221

> <W>
-53.952

> <W(PB)>
-56.213

> <W(SA)>
2.261

> <Valence>
6.368

> <Coulomb>
19.698

> <VdW>
1.155

> <VdW6>
-8.532

> <VdW12>
9.687

> <Bond>
0.272

> <Angle>
1.847

> <Pdih>
4.248

> <Idih>
0.000

> <Tether>
0.000

$$$$
VeraChem MOL file


 26 25  0  0  0  0  0  0  0  0999 V2000     
   15.7596   19.3169   22.9927 C   0  0  0  0  0  0  0  0  0  0  0  0
   15.6207   19.4424   24.0744 H   0  0  0  0  0  0  0  0  0  0  0  0
   15.6485   20.3002   22.5173 H   0  0  0  0  0  0  0  0  0  0  0  0
   14.9535   18.6705   22.6221 H   0  0  0  0  0  0  0  0  0  0  0  0
   17.1397   18.7015   22.6783 C   0  0  0  0  0  0  0  0  0  0  0  0
   17.2355   18.5568   21.5930 H   0  0  0  0  0  0  0  0  0  0  0  0
   17.2078   17.7056   23.1382 H   0  0  0  0  0  0  0  0  0  0  0  0
   18.2933   19.5925   23.1898 C   0  0  0  0  0  0  0  0  0  0  0  0
   18.2189   20.5874   22.7292 H   0  0  0  0  0  0  0  0  0  0  0  0
   18.1913   19.7362   24.2745 H   0  0  0  0  0  0  0  0  0  0  0  0
   19.6772   18.9796   22.8773 C   0  0  0  0  0  0  0  0  0  0  0  0
   19.7712   18.8372   21.7926 H   0  0  0  0  0  0  0  0  0  0  0  0
   19.7393   17.9848   23.3376 H   0  0  0  0  0  0  0  0  0  0  0  0
   20.8305   19.8776   23.3961 C   0  0  0  0  0  0  0  0  0  0  0  0
   20.7266   20.8823   22.9658 H   0  0  0  0  0  0  0  0  0  0  0  0
   20.7321   20.0030   24.4825 H   0  0  0  0  0  0  0  0  0  0  0  0
   22.2534   19.3571   23.0830 C   0  0  1  0  0  0  0  0  0  0  0  0
   22.9620   20.0938   23.4744 H   0  0  0  0  0  0  0  0  0  0  0  0
   22.5455   18.0162   23.7789 C   0  0  0  0  0  0  0  0  0  0  0  0
   21.9359   17.2035   23.3665 H   0  0  0  0  0  0  0  0  0  0  0  0
   22.3462   18.0840   24.8556 H   0  0  0  0  0  0  0  0  0  0  0  0
   23.5997   17.7406   23.6529 H   0  0  0  0  0  0  0  0  0  0  0  0
   22.5201   19.2670   21.6055 N   0  3  0  0  0  0  0  0  0  0  0  0
   23.4852   18.9820   21.4162 H   0  0  0  0  0  0  0  0  0  0  0  0
   21.9051   18.5833   21.1577 H   0  0  0  0  0  0  0  0  0  0  0  0
   22.3708   20.1673   21.1412 H   0  0  0  0  0  0  0  0  0  0  0  0
  1  2  1  0  0  0  0
  1  3  1  0  0  0  0
  1  4  1  0  0  0  0
  1  5  1  0  0  0  0
  5  6  1  0  0  0  0
  5  7  1  0  0  0  0
  5  8  1  0  0  0  0
  8  9  1  0  0  0  0
  8 10  1  0  0  0  0
  8 11  1  0  0  0  0
 11 12  1  0  0  0  0
 11 13  1  0  0  0  0
 11 14  1  0  0  0  0
 14 15  1  0  0  0  0
 14 16  1  0  0  0  0
 14 17  1  0  0  0  0
 17 18  1  0  0  0  0
 17 19  1  0  0  0  0
 19 20  1  0  0  0  0
 19 21  1  0  0  0  0
 19 22  1  0  0  0  0
 17 23  1  0  0  0  0
 23 24  1  0  0  0  0
 23 25  1  0  0  0  0
 23 26  1  0  0  0  0
M  END
> <VConfSearch Rank>
905

> <Conf_Id>
132

> <Delta U+W>
0.363

> <U+W>
-29.936

> <U>
24.060

> <W>
-53.996

> <W(PB)>
-56.327

> <W(SA)>
2.332

> <Valence>
3.249

> <Coulomb>
19.781

> <VdW>
1.030

> <VdW6>
-7.421

> <VdW12>
8.451

> <Bond>
0.207

> <Angle>
1.205

> <Pdih>
1.837

> <Idih>
0.000

> <Tether>
0.000

$$$$
VeraChem MOL file


 26 25  0  0  0  0  0  0  0  0999 V2000     
   23.7043   19.1628   22.2193 C   0  0  0  0  0  0  0  0  0  0  0  0
   24.3877   19.9587   22.5424 H   0  0  0  0  0  0  0  0  0  0  0  0
   24.1228   18.2040   22.5521 H   0  0  0  0  0  0  0  0  0  0  0  0
   23.6812   19.1633   21.1217 H   0  0  0  0  0  0  0  0  0  0  0  0
   22.2931   19.3857   22.8036 C   0  0  0  0  0  0  0  0  0  0  0  0
   21.9275   20.3700   22.4829 H   0  0  0  0  0  0  0  0  0  0  0  0
   22.3531   19.4093   23.9006 H   0  0  0  0  0  0  0  0  0  0  0  0
   21.3103   18.2773   22.3574 C   0  0  0  0  0  0  0  0  0  0  0  0
   21.2083   18.2903   21.2635 H   0  0  0  0  0  0  0  0  0  0  0  0
   21.7381   17.2984   22.6147 H   0  0  0  0  0  0  0  0  0  0  0  0
   19.9107   18.3865   23.0114 C   0  0  0  0  0  0  0  0  0  0  0  0
   20.0205   18.3659   24.1038 H   0  0  0  0  0  0  0  0  0  0  0  0
   19.3412   17.4885   22.7397 H   0  0  0  0  0  0  0  0  0  0  0  0
   19.1237   19.6530   22.5758 C   0  0  0  0  0  0  0  0  0  0  0  0
   19.6769   20.5513   22.8753 H   0  0  0  0  0  0  0  0  0  0  0  0
   19.0638   19.6850   21.4799 H   0  0  0  0  0  0  0  0  0  0  0  0
   17.6934   19.7618   23.1557 C   0  0  1  0  0  0  0  0  0  0  0  0
   17.2787   20.7166   22.8178 H   0  0  0  0  0  0  0  0  0  0  0  0
   16.7689   18.6465   22.6364 C   0  0  0  0  0  0  0  0  0  0  0  0
   17.0622   17.6626   23.0210 H   0  0  0  0  0  0  0  0  0  0  0  0
   16.7836   18.6063   21.5402 H   0  0  0  0  0  0  0  0  0  0  0  0
   15.7336   18.8316   22.9480 H   0  0  0  0  0  0  0  0  0  0  0  0
   17.6855   19.8127   24.6589 N   0  3  0  0  0  0  0  0  0  0  0  0
   18.2616   20.5822   25.0117 H   0  0  0  0  0  0  0  0  0  0  0  0
   16.7384   19.9476   25.0238 H   0  0  0  0  0  0  0  0  0  0  0  0
   18.0489   18.9455   25.0617 H   0  0  0  0  0  0  0  0  0  0  0  0
  1  2  1  0  0  0  0
  1  3  1  0  0  0  0
  1  4  1  0  0  0  0
  1  5  1  0  0  0  0
  5  6  1  0  0  0  0
  5  7  1  0  0  0  0
  5  8  1  0  0  0  0
  8  9  1  0  0  0  0
  8 10  1  0  0  0  0
  8 11  1  0  0  0  0
 11 12  1  0  0  0  0
 11 13  1  0  0  0  0
 11 14  1  0  0  0  0
 14 15  1  0  0  0  0
 14 16  1  0  0  0  0
 14 17  1  0  0  0  0
 17 18  1  0  0  0  0
 17 19  1  0  0  0  0
 19 20  1  0  0  0  0
 19 21  1  0  0  0  0
 19 22  1  0  0  0  0
 17 23  1  0  0  0  0
 23 24  1  0  0  0  0
 23 25  1  0  0  0  0
 23 26  1  0  0  0  0
M  END
> <VConfSearch Rank>
906

> <Conf_Id>
46

> <Delta U+W>
1.114

> <U+W>
-29.185

> <U>
24.990

> <W>
-54.175

> <W(PB)>
-56.455

> <W(SA)>
2.279

> <Valence>
3.862

> <Coulomb>
19.956

> <VdW>
1.172

> <VdW6>
-8.054

> <VdW12>
9.226

> <Bond>
0.258

> <Angle>
1.499

> <Pdih>
2.106

> <Idih>
0.000

> <Tether>
0.000

$$$$
VeraChem MOL file


 26 25  0  0  0  0  0  0  0  0999 V2000     
   23.4574   18.7413   22.4503 C   0  0  0  0  0  0  0  0  0  0  0  0
   23.1859   17.7238   22.7572 H   0  0  0  0  0  0  0  0  0  0  0  0
   23.4290   18.7898   21.3540 H   0  0  0  0  0  0  0  0  0  0  0  0
   24.4941   18.9148   22.7670 H   0  0  0  0  0  0  0  0  0  0  0  0
   22.5172   19.7952   23.0781 C   0  0  0  0  0  0  0  0  0  0  0  0
   22.9058   20.7968   22.8465 H   0  0  0  0  0  0  0  0  0  0  0  0
   22.5377   19.7037   24.1731 H   0  0  0  0  0  0  0  0  0  0  0  0
   21.0577   19.7009   22.5713 C   0  0  0  0  0  0  0  0  0  0  0  0
   20.5038   20.5613   22.9690 H   0  0  0  0  0  0  0  0  0  0  0  0
   21.0429   19.8026   21.4774 H   0  0  0  0  0  0  0  0  0  0  0  0
   20.3460   18.3872   22.9834 C   0  0  0  0  0  0  0  0  0  0  0  0
   20.3848   18.2690   24.0743 H   0  0  0  0  0  0  0  0  0  0  0  0
   20.8896   17.5300   22.5656 H   0  0  0  0  0  0  0  0  0  0  0  0
   18.8776   18.3074   22.4918 C   0  0  0  0  0  0  0  0  0  0  0  0
   18.8709   18.3375   21.3941 H   0  0  0  0  0  0  0  0  0  0  0  0
   18.4595   17.3319   22.7737 H   0  0  0  0  0  0  0  0  0  0  0  0
   17.9617   19.4290   23.0318 C   0  0  1  0  0  0  0  0  0  0  0  0
   18.3760   20.3927   22.7215 H   0  0  0  0  0  0  0  0  0  0  0  0
   16.5513   19.3013   22.4346 C   0  0  0  0  0  0  0  0  0  0  0  0
   15.9068   20.1179   22.7827 H   0  0  0  0  0  0  0  0  0  0  0  0
   16.0833   18.3509   22.7204 H   0  0  0  0  0  0  0  0  0  0  0  0
   16.5863   19.3490   21.3390 H   0  0  0  0  0  0  0  0  0  0  0  0
   17.9013   19.4473   24.5346 N   0  3  0  0  0  0  0  0  0  0  0  0
   18.8320   19.5710   24.9422 H   0  0  0  0  0  0  0  0  0  0  0  0
   17.3114   20.2109   24.8769 H   0  0  0  0  0  0  0  0  0  0  0  0
   17.5164   18.5735   24.9030 H   0  0  0  0  0  0  0  0  0  0  0  0
  1  2  1  0  0  0  0
  1  3  1  0  0  0  0
  1  4  1  0  0  0  0
  1  5  1  0  0  0  0
  5  6  1  0  0  0  0
  5  7  1  0  0  0  0
  5  8  1  0  0  0  0
  8  9  1  0  0  0  0
  8 10  1  0  0  0  0
  8 11  1  0  0  0  0
 11 12  1  0  0  0  0
 11 13  1  0  0  0  0
 11 14  1  0  0  0  0
 14 15  1  0  0  0  0
 14 16  1  0  0  0  0
 14 17  1  0  0  0  0
 17 18  1  0  0  0  0
 17 19  1  0  0  0  0
 19 20  1  0  0  0  0
 19 21  1  0  0  0  0
 19 22  1  0  0  0  0
 17 23  1  0  0  0  0
 23 24  1  0  0  0  0
 23 25  1  0  0  0  0
 23 26  1  0  0  0  0
M  END
> <VConfSearch Rank>
907

> <Conf_Id>
113

> <Delta U+W>
1.137

> <U+W>
-29.162

> <U>
24.833

> <W>
-53.995

> <W(PB)>
-56.288

> <W(SA)>
2.294

> <Valence>
3.589

> <Coulomb>
20.270

> <VdW>
0.974

> <VdW6>
-8.255

> <VdW12>
9.229

> <Bond>
0.244

> <Angle>
1.377

> <Pdih>
1.967

> <Idih>
0.000

> <Tether>
0.000

$$$$
VeraChem MOL file


 26 25  0  0  0  0  0  0  0  0999 V2000     
   19.0786   21.0618   26.2825 C   0  0  0  0  0  0  0  0  0  0  0  0
   18.2579   21.7772   26.4223 H   0  0  0  0  0  0  0  0  0  0  0  0
   18.8923   20.2024   26.9398 H   0  0  0  0  0  0  0  0  0  0  0  0
   20.0076   21.5470   26.6092 H   0  0  0  0  0  0  0  0  0  0  0  0
   19.1716   20.6208   24.8063 C   0  0  0  0  0  0  0  0  0  0  0  0
   19.3287   21.5042   24.1717 H   0  0  0  0  0  0  0  0  0  0  0  0
   18.2124   20.1789   24.5061 H   0  0  0  0  0  0  0  0  0  0  0  0
   20.3198   19.6077   24.5854 C   0  0  0  0  0  0  0  0  0  0  0  0
   21.2550   20.0402   24.9672 H   0  0  0  0  0  0  0  0  0  0  0  0
   20.1345   18.7024   25.1798 H   0  0  0  0  0  0  0  0  0  0  0  0
   20.5287   19.2211   23.1005 C   0  0  0  0  0  0  0  0  0  0  0  0
   21.4319   18.6006   23.0334 H   0  0  0  0  0  0  0  0  0  0  0  0
   20.7326   20.1300   22.5191 H   0  0  0  0  0  0  0  0  0  0  0  0
   19.3248   18.4536   22.4891 C   0  0  0  0  0  0  0  0  0  0  0  0
   19.0651   17.6095   23.1413 H   0  0  0  0  0  0  0  0  0  0  0  0
   18.4423   19.1051   22.4698 H   0  0  0  0  0  0  0  0  0  0  0  0
   19.5583   17.9133   21.0583 C   0  0  1  0  0  0  0  0  0  0  0  0
   18.6453   17.3913   20.7553 H   0  0  0  0  0  0  0  0  0  0  0  0
   19.8046   19.0460   20.0464 C   0  0  0  0  0  0  0  0  0  0  0  0
   20.7564   19.5571   20.2339 H   0  0  0  0  0  0  0  0  0  0  0  0
   18.9997   19.7901   20.0907 H   0  0  0  0  0  0  0  0  0  0  0  0
   19.8336   18.6480   19.0247 H   0  0  0  0  0  0  0  0  0  0  0  0
   20.6598   16.8905   21.0016 N   0  3  0  0  0  0  0  0  0  0  0  0
   20.4822   16.1113   21.6417 H   0  0  0  0  0  0  0  0  0  0  0  0
   20.7570   16.4973   20.0612 H   0  0  0  0  0  0  0  0  0  0  0  0
   21.5615   17.3000   21.2572 H   0  0  0  0  0  0  0  0  0  0  0  0
  1  2  1  0  0  0  0
  1  3  1  0  0  0  0
  1  4  1  0  0  0  0
  1  5  1  0  0  0  0
  5  6  1  0  0  0  0
  5  7  1  0  0  0  0
  5  8  1  0  0  0  0
  8  9  1  0  0  0  0
  8 10  1  0  0  0  0
  8 11  1  0  0  0  0
 11 12  1  0  0  0  0
 11 13  1  0  0  0  0
 11 14  1  0  0  0  0
 14 15  1  0  0  0  0
 14 16  1  0  0  0  0
 14 17  1  0  0  0  0
 17 18  1  0  0  0  0
 17 19  1  0  0  0  0
 19 20  1  0  0  0  0
 19 21  1  0  0  0  0
 19 22  1  0  0  0  0
 17 23  1  0  0  0  0
 23 24  1  0  0  0  0
 23 25  1  0  0  0  0
 23 26  1  0  0  0  0
M  END
> <VConfSearch Rank>
908

> <Conf_Id>
45

> <Delta U+W>
1.035

> <U+W>
-29.264

> <U>
24.725

> <W>
-53.989

> <W(PB)>
-56.298

> <W(SA)>
2.309

> <Valence>
3.780

> <Coulomb>
19.804

> <VdW>
1.141

> <VdW6>
-8.104

> <VdW12>
9.246

> <Bond>
0.254

> <Angle>
1.437

> <Pdih>
2.089

> <Idih>
0.000

> <Tether>
0.000

$$$$
VeraChem MOL file


 26 25  0  0  0  0  0  0  0  0999 V2000     
   19.4879   23.0050   22.0650 C   0  0  0  0  0  0  0  0  0  0  0  0
   20.0641   23.7950   22.5639 H   0  0  0  0  0  0  0  0  0  0  0  0
   19.5428   23.1808   20.9827 H   0  0  0  0  0  0  0  0  0  0  0  0
   18.4396   23.1052   22.3751 H   0  0  0  0  0  0  0  0  0  0  0  0
   20.0433   21.6120   22.4303 C   0  0  0  0  0  0  0  0  0  0  0  0
   20.0101   21.4917   23.5211 H   0  0  0  0  0  0  0  0  0  0  0  0
   21.1001   21.5526   22.1345 H   0  0  0  0  0  0  0  0  0  0  0  0
   19.2432   20.4811   21.7415 C   0  0  0  0  0  0  0  0  0  0  0  0
   18.1986   20.5059   22.0813 H   0  0  0  0  0  0  0  0  0  0  0  0
   19.2191   20.6713   20.6595 H   0  0  0  0  0  0  0  0  0  0  0  0
   19.8327   19.0683   21.9764 C   0  0  0  0  0  0  0  0  0  0  0  0
   20.8767   19.0447   21.6344 H   0  0  0  0  0  0  0  0  0  0  0  0
   19.2832   18.3621   21.3404 H   0  0  0  0  0  0  0  0  0  0  0  0
   19.7559   18.6031   23.4535 C   0  0  0  0  0  0  0  0  0  0  0  0
   20.3259   19.2976   24.0828 H   0  0  0  0  0  0  0  0  0  0  0  0
   18.7155   18.6435   23.8024 H   0  0  0  0  0  0  0  0  0  0  0  0
   20.3196   17.1811   23.6670 C   0  0  1  0  0  0  0  0  0  0  0  0
   21.3428   17.1562   23.2795 H   0  0  0  0  0  0  0  0  0  0  0  0
   20.3634   16.8433   25.1660 C   0  0  0  0  0  0  0  0  0  0  0  0
   19.3580   16.8546   25.6052 H   0  0  0  0  0  0  0  0  0  0  0  0
   20.9825   17.5668   25.7111 H   0  0  0  0  0  0  0  0  0  0  0  0
   20.7958   15.8482   25.3274 H   0  0  0  0  0  0  0  0  0  0  0  0
   19.5454   16.1330   22.9147 N   0  3  0  0  0  0  0  0  0  0  0  0
   19.5465   16.3169   21.9080 H   0  0  0  0  0  0  0  0  0  0  0  0
   19.9442   15.2005   23.0553 H   0  0  0  0  0  0  0  0  0  0  0  0
   18.5695   16.0980   23.2209 H   0  0  0  0  0  0  0  0  0  0  0  0
  1  2  1  0  0  0  0
  1  3  1  0  0  0  0
  1  4  1  0  0  0  0
  1  5  1  0  0  0  0
  5  6  1  0  0  0  0
  5  7  1  0  0  0  0
  5  8  1  0  0  0  0
  8  9  1  0  0  0  0
  8 10  1  0  0  0  0
  8 11  1  0  0  0  0
 11 12  1  0  0  0  0
 11 13  1  0  0  0  0
 11 14  1  0  0  0  0
 14 15  1  0  0  0  0
 14 16  1  0  0  0  0
 14 17  1  0  0  0  0
 17 18  1  0  0  0  0
 17 19  1  0  0  0  0
 19 20  1  0  0  0  0
 19 21  1  0  0  0  0
 19 22  1  0  0  0  0
 17 23  1  0  0  0  0
 23 24  1  0  0  0  0
 23 25  1  0  0  0  0
 23 26  1  0  0  0  0
M  END
> <VConfSearch Rank>
909

> <Conf_Id>
121

> <Delta U+W>
0.736

> <U+W>
-29.562

> <U>
24.282

> <W>
-53.844

> <W(PB)>
-56.205

> <W(SA)>
2.361

> <Valence>
3.311

> <Coulomb>
19.887

> <VdW>
1.083

> <VdW6>
-7.444

> <VdW12>
8.527

> <Bond>
0.219

> <Angle>
1.167

> <Pdih>
1.926

> <Idih>
0.000

> <Tether>
0.000

$$$$
VeraChem MOL file


 26 25  0  0  0  0  0  0  0  0999 V2000     
   18.1271   21.3419   25.3764 C   0  0  0  0  0  0  0  0  0  0  0  0
   17.8365   21.5919   26.4049 H   0  0  0  0  0  0  0  0  0  0  0  0
   18.3464   22.2811   24.8521 H   0  0  0  0  0  0  0  0  0  0  0  0
   17.2604   20.8729   24.8947 H   0  0  0  0  0  0  0  0  0  0  0  0
   19.3559   20.4043   25.3749 C   0  0  0  0  0  0  0  0  0  0  0  0
   19.1008   19.4592   25.8744 H   0  0  0  0  0  0  0  0  0  0  0  0
   20.1515   20.8649   25.9771 H   0  0  0  0  0  0  0  0  0  0  0  0
   19.9108   20.1154   23.9591 C   0  0  0  0  0  0  0  0  0  0  0  0
   20.1719   21.0627   23.4675 H   0  0  0  0  0  0  0  0  0  0  0  0
   20.8484   19.5550   24.0699 H   0  0  0  0  0  0  0  0  0  0  0  0
   18.9307   19.3145   23.0646 C   0  0  0  0  0  0  0  0  0  0  0  0
   17.9995   19.8824   22.9419 H   0  0  0  0  0  0  0  0  0  0  0  0
   18.6497   18.3785   23.5649 H   0  0  0  0  0  0  0  0  0  0  0  0
   19.4970   19.0154   21.6521 C   0  0  0  0  0  0  0  0  0  0  0  0
   18.7383   18.4734   21.0721 H   0  0  0  0  0  0  0  0  0  0  0  0
   19.6522   19.9700   21.1322 H   0  0  0  0  0  0  0  0  0  0  0  0
   20.8220   18.2169   21.6275 C   0  0  1  0  0  0  0  0  0  0  0  0
   21.5718   18.7732   22.1975 H   0  0  0  0  0  0  0  0  0  0  0  0
   20.6686   16.8210   22.2574 C   0  0  0  0  0  0  0  0  0  0  0  0
   19.8838   16.2426   21.7540 H   0  0  0  0  0  0  0  0  0  0  0  0
   20.4155   16.8906   23.3217 H   0  0  0  0  0  0  0  0  0  0  0  0
   21.6071   16.2580   22.1832 H   0  0  0  0  0  0  0  0  0  0  0  0
   21.3589   18.1014   20.2278 N   0  3  0  0  0  0  0  0  0  0  0  0
   21.5092   19.0215   19.8041 H   0  0  0  0  0  0  0  0  0  0  0  0
   22.2562   17.6085   20.2106 H   0  0  0  0  0  0  0  0  0  0  0  0
   20.7158   17.5853   19.6216 H   0  0  0  0  0  0  0  0  0  0  0  0
  1  2  1  0  0  0  0
  1  3  1  0  0  0  0
  1  4  1  0  0  0  0
  1  5  1  0  0  0  0
  5  6  1  0  0  0  0
  5  7  1  0  0  0  0
  5  8  1  0  0  0  0
  8  9  1  0  0  0  0
  8 10  1  0  0  0  0
  8 11  1  0  0  0  0
 11 12  1  0  0  0  0
 11 13  1  0  0  0  0
 11 14  1  0  0  0  0
 14 15  1  0  0  0  0
 14 16  1  0  0  0  0
 14 17  1  0  0  0  0
 17 18  1  0  0  0  0
 17 19  1  0  0  0  0
 19 20  1  0  0  0  0
 19 21  1  0  0  0  0
 19 22  1  0  0  0  0
 17 23  1  0  0  0  0
 23 24  1  0  0  0  0
 23 25  1  0  0  0  0
 23 26  1  0  0  0  0
M  END
> <VConfSearch Rank>
910

> <Conf_Id>
5

> <Delta U+W>
1.233

> <U+W>
-29.065

> <U>
25.023

> <W>
-54.088

> <W(PB)>
-56.383

> <W(SA)>
2.296

> <Valence>
4.083

> <Coulomb>
19.893

> <VdW>
1.047

> <VdW6>
-8.479

> <VdW12>
9.527

> <Bond>
0.256

> <Angle>
1.716

> <Pdih>
2.112

> <Idih>
0.000

> <Tether>
0.000

$$$$
VeraChem MOL file


 26 25  0  0  0  0  0  0  0  0999 V2000     
   18.7934   22.5975   23.7473 C   0  0  0  0  0  0  0  0  0  0  0  0
   18.1285   23.4668   23.6620 H   0  0  0  0  0  0  0  0  0  0  0  0
   18.6231   22.1494   24.7338 H   0  0  0  0  0  0  0  0  0  0  0  0
   19.8281   22.9618   23.7082 H   0  0  0  0  0  0  0  0  0  0  0  0
   18.5148   21.5908   22.6079 C   0  0  0  0  0  0  0  0  0  0  0  0
   18.5727   22.1219   21.6475 H   0  0  0  0  0  0  0  0  0  0  0  0
   17.4853   21.2148   22.6890 H   0  0  0  0  0  0  0  0  0  0  0  0
   19.5063   20.4025   22.5764 C   0  0  0  0  0  0  0  0  0  0  0  0
   19.3152   19.8290   21.6602 H   0  0  0  0  0  0  0  0  0  0  0  0
   20.5337   20.7843   22.5004 H   0  0  0  0  0  0  0  0  0  0  0  0
   19.3839   19.4642   23.8031 C   0  0  0  0  0  0  0  0  0  0  0  0
   18.3623   19.0633   23.8560 H   0  0  0  0  0  0  0  0  0  0  0  0
   19.5361   20.0417   24.7238 H   0  0  0  0  0  0  0  0  0  0  0  0
   20.3963   18.2906   23.8039 C   0  0  0  0  0  0  0  0  0  0  0  0
   21.4228   18.6797   23.8386 H   0  0  0  0  0  0  0  0  0  0  0  0
   20.2587   17.7388   24.7432 H   0  0  0  0  0  0  0  0  0  0  0  0
   20.2262   17.3169   22.6123 C   0  0  1  0  0  0  0  0  0  0  0  0
   19.2325   17.4746   22.1820 H   0  0  0  0  0  0  0  0  0  0  0  0
   21.2825   17.5677   21.5206 C   0  0  0  0  0  0  0  0  0  0  0  0
   22.2938   17.3676   21.8963 H   0  0  0  0  0  0  0  0  0  0  0  0
   21.2549   18.6036   21.1648 H   0  0  0  0  0  0  0  0  0  0  0  0
   21.1070   16.9155   20.6562 H   0  0  0  0  0  0  0  0  0  0  0  0
   20.2689   15.8785   23.0506 N   0  3  0  0  0  0  0  0  0  0  0  0
   19.5430   15.6742   23.7435 H   0  0  0  0  0  0  0  0  0  0  0  0
   20.1235   15.2425   22.2614 H   0  0  0  0  0  0  0  0  0  0  0  0
   21.1716   15.6417   23.4710 H   0  0  0  0  0  0  0  0  0  0  0  0
  1  2  1  0  0  0  0
  1  3  1  0  0  0  0
  1  4  1  0  0  0  0
  1  5  1  0  0  0  0
  5  6  1  0  0  0  0
  5  7  1  0  0  0  0
  5  8  1  0  0  0  0
  8  9  1  0  0  0  0
  8 10  1  0  0  0  0
  8 11  1  0  0  0  0
 11 12  1  0  0  0  0
 11 13  1  0  0  0  0
 11 14  1  0  0  0  0
 14 15  1  0  0  0  0
 14 16  1  0  0  0  0
 14 17  1  0  0  0  0
 17 18  1  0  0  0  0
 17 19  1  0  0  0  0
 19 20  1  0  0  0  0
 19 21  1  0  0  0  0
 19 22  1  0  0  0  0
 17 23  1  0  0  0  0
 23 24  1  0  0  0  0
 23 25  1  0  0  0  0
 23 26  1  0  0  0  0
M  END
> <VConfSearch Rank>
911

> <Conf_Id>
100

> <Delta U+W>
3.818

> <U+W>
-26.481

> <U>
27.496

> <W>
-53.977

> <W(PB)>
-56.267

> <W(SA)>
2.290

> <Valence>
6.472

> <Coulomb>
19.839

> <VdW>
1.185

> <VdW6>
-8.405

> <VdW12>
9.590

> <Bond>
0.248

> <Angle>
1.619

> <Pdih>
4.604

> <Idih>
0.000

> <Tether>
0.000

$$$$
VeraChem MOL file


 26 25  0  0  0  0  0  0  0  0999 V2000     
   18.8099   15.5918   23.8122 C   0  0  0  0  0  0  0  0  0  0  0  0
   17.9829   14.8843   23.6686 H   0  0  0  0  0  0  0  0  0  0  0  0
   19.6213   15.3044   23.1309 H   0  0  0  0  0  0  0  0  0  0  0  0
   19.1730   15.4809   24.8423 H   0  0  0  0  0  0  0  0  0  0  0  0
   18.3434   17.0378   23.5410 C   0  0  0  0  0  0  0  0  0  0  0  0
   17.5094   17.2837   24.2132 H   0  0  0  0  0  0  0  0  0  0  0  0
   17.9554   17.1089   22.5152 H   0  0  0  0  0  0  0  0  0  0  0  0
   19.4894   18.0549   23.7368 C   0  0  0  0  0  0  0  0  0  0  0  0
   19.8723   17.9772   24.7637 H   0  0  0  0  0  0  0  0  0  0  0  0
   20.3208   17.7918   23.0724 H   0  0  0  0  0  0  0  0  0  0  0  0
   19.0201   19.5066   23.4714 C   0  0  0  0  0  0  0  0  0  0  0  0
   18.2054   19.7333   24.1731 H   0  0  0  0  0  0  0  0  0  0  0  0
   18.5829   19.5865   22.4677 H   0  0  0  0  0  0  0  0  0  0  0  0
   20.1400   20.5666   23.6676 C   0  0  0  0  0  0  0  0  0  0  0  0
   19.6872   21.4706   24.0956 H   0  0  0  0  0  0  0  0  0  0  0  0
   20.8565   20.2179   24.4230 H   0  0  0  0  0  0  0  0  0  0  0  0
   20.9063   20.9926   22.3905 C   0  0  1  0  0  0  0  0  0  0  0  0
   21.6582   21.7262   22.6976 H   0  0  0  0  0  0  0  0  0  0  0  0
   21.6482   19.8255   21.7193 C   0  0  0  0  0  0  0  0  0  0  0  0
   20.9490   19.1077   21.2743 H   0  0  0  0  0  0  0  0  0  0  0  0
   22.2797   19.2961   22.4434 H   0  0  0  0  0  0  0  0  0  0  0  0
   22.2998   20.1963   20.9186 H   0  0  0  0  0  0  0  0  0  0  0  0
   20.0194   21.7010   21.4032 N   0  3  0  0  0  0  0  0  0  0  0  0
   19.5624   22.5145   21.8249 H   0  0  0  0  0  0  0  0  0  0  0  0
   20.5518   22.0350   20.5949 H   0  0  0  0  0  0  0  0  0  0  0  0
   19.2842   21.0828   21.0519 H   0  0  0  0  0  0  0  0  0  0  0  0
  1  2  1  0  0  0  0
  1  3  1  0  0  0  0
  1  4  1  0  0  0  0
  1  5  1  0  0  0  0
  5  6  1  0  0  0  0
  5  7  1  0  0  0  0
  5  8  1  0  0  0  0
  8  9  1  0  0  0  0
  8 10  1  0  0  0  0
  8 11  1  0  0  0  0
 11 12  1  0  0  0  0
 11 13  1  0  0  0  0
 11 14  1  0  0  0  0
 14 15  1  0  0  0  0
 14 16  1  0  0  0  0
 14 17  1  0  0  0  0
 17 18  1  0  0  0  0
 17 19  1  0  0  0  0
 19 20  1  0  0  0  0
 19 21  1  0  0  0  0
 19 22  1  0  0  0  0
 17 23  1  0  0  0  0
 23 24  1  0  0  0  0
 23 25  1  0  0  0  0
 23 26  1  0  0  0  0
M  END
> <VConfSearch Rank>
912

> <Conf_Id>
142

> <Delta U+W>
2.978

> <U+W>
-27.320

> <U>
26.848

> <W>
-54.168

> <W(PB)>
-56.427

> <W(SA)>
2.259

> <Valence>
5.823

> <Coulomb>
20.057

> <VdW>
0.968

> <VdW6>
-8.367

> <VdW12>
9.335

> <Bond>
0.267

> <Angle>
1.799

> <Pdih>
3.758

> <Idih>
0.000

> <Tether>
0.000

$$$$
VeraChem MOL file


 26 25  0  0  0  0  0  0  0  0999 V2000     
   18.9528   21.8300   24.9371 C   0  0  0  0  0  0  0  0  0  0  0  0
   19.6752   21.5881   25.7275 H   0  0  0  0  0  0  0  0  0  0  0  0
   18.6862   22.8899   25.0398 H   0  0  0  0  0  0  0  0  0  0  0  0
   18.0421   21.2444   25.1122 H   0  0  0  0  0  0  0  0  0  0  0  0
   19.5480   21.5564   23.5370 C   0  0  0  0  0  0  0  0  0  0  0  0
   20.3744   22.2600   23.3642 H   0  0  0  0  0  0  0  0  0  0  0  0
   18.7956   21.7713   22.7653 H   0  0  0  0  0  0  0  0  0  0  0  0
   20.0826   20.1141   23.3619 C   0  0  0  0  0  0  0  0  0  0  0  0
   20.6172   20.0747   22.4058 H   0  0  0  0  0  0  0  0  0  0  0  0
   20.8180   19.8982   24.1491 H   0  0  0  0  0  0  0  0  0  0  0  0
   18.9675   19.0381   23.3710 C   0  0  0  0  0  0  0  0  0  0  0  0
   18.2708   19.2216   22.5424 H   0  0  0  0  0  0  0  0  0  0  0  0
   18.3728   19.1441   24.2869 H   0  0  0  0  0  0  0  0  0  0  0  0
   19.4799   17.5706   23.3226 C   0  0  0  0  0  0  0  0  0  0  0  0
   20.0773   17.3656   24.2205 H   0  0  0  0  0  0  0  0  0  0  0  0
   18.6054   16.9112   23.3994 H   0  0  0  0  0  0  0  0  0  0  0  0
   20.2841   17.1312   22.0721 C   0  0  1  0  0  0  0  0  0  0  0  0
   20.3479   16.0392   22.1076 H   0  0  0  0  0  0  0  0  0  0  0  0
   19.5792   17.5054   20.7565 C   0  0  0  0  0  0  0  0  0  0  0  0
   19.5582   18.5908   20.6026 H   0  0  0  0  0  0  0  0  0  0  0  0
   18.5461   17.1366   20.7509 H   0  0  0  0  0  0  0  0  0  0  0  0
   20.0979   17.0552   19.9013 H   0  0  0  0  0  0  0  0  0  0  0  0
   21.7102   17.6092   22.0864 N   0  3  0  0  0  0  0  0  0  0  0  0
   22.2008   17.2981   22.9297 H   0  0  0  0  0  0  0  0  0  0  0  0
   22.2318   17.2514   21.2811 H   0  0  0  0  0  0  0  0  0  0  0  0
   21.7622   18.6292   22.0585 H   0  0  0  0  0  0  0  0  0  0  0  0
  1  2  1  0  0  0  0
  1  3  1  0  0  0  0
  1  4  1  0  0  0  0
  1  5  1  0  0  0  0
  5  6  1  0  0  0  0
  5  7  1  0  0  0  0
  5  8  1  0  0  0  0
  8  9  1  0  0  0  0
  8 10  1  0  0  0  0
  8 11  1  0  0  0  0
 11 12  1  0  0  0  0
 11 13  1  0  0  0  0
 11 14  1  0  0  0  0
 14 15  1  0  0  0  0
 14 16  1  0  0  0  0
 14 17  1  0  0  0  0
 17 18  1  0  0  0  0
 17 19  1  0  0  0  0
 19 20  1  0  0  0  0
 19 21  1  0  0  0  0
 19 22  1  0  0  0  0
 17 23  1  0  0  0  0
 23 24  1  0  0  0  0
 23 25  1  0  0  0  0
 23 26  1  0  0  0  0
M  END
> <VConfSearch Rank>
913

> <Conf_Id>
119

> <Delta U+W>
3.538

> <U+W>
-26.761

> <U>
27.482

> <W>
-54.243

> <W(PB)>
-56.494

> <W(SA)>
2.251

> <Valence>
5.284

> <Coulomb>
21.247

> <VdW>
0.951

> <VdW6>
-9.416

> <VdW12>
10.367

> <Bond>
0.323

> <Angle>
2.522

> <Pdih>
2.439

> <Idih>
0.000

> <Tether>
0.000

$$$$
VeraChem MOL file


 26 25  0  0  0  0  0  0  0  0999 V2000     
   20.2437   18.2836   19.5317 C   0  0  0  0  0  0  0  0  0  0  0  0
   21.2708   18.6088   19.3214 H   0  0  0  0  0  0  0  0  0  0  0  0
   20.2878   17.3226   20.0590 H   0  0  0  0  0  0  0  0  0  0  0  0
   19.7432   18.1094   18.5704 H   0  0  0  0  0  0  0  0  0  0  0  0
   19.4811   19.3477   20.3533 C   0  0  0  0  0  0  0  0  0  0  0  0
   18.4680   18.9853   20.5770 H   0  0  0  0  0  0  0  0  0  0  0  0
   19.3559   20.2483   19.7362 H   0  0  0  0  0  0  0  0  0  0  0  0
   20.1974   19.7422   21.6675 C   0  0  0  0  0  0  0  0  0  0  0  0
   21.1992   20.1285   21.4344 H   0  0  0  0  0  0  0  0  0  0  0  0
   19.6487   20.5764   22.1202 H   0  0  0  0  0  0  0  0  0  0  0  0
   20.3155   18.5730   22.6789 C   0  0  0  0  0  0  0  0  0  0  0  0
   20.9676   17.8038   22.2447 H   0  0  0  0  0  0  0  0  0  0  0  0
   19.3378   18.0951   22.8214 H   0  0  0  0  0  0  0  0  0  0  0  0
   20.9224   18.9985   24.0452 C   0  0  0  0  0  0  0  0  0  0  0  0
   21.5597   18.1818   24.4089 H   0  0  0  0  0  0  0  0  0  0  0  0
   21.5994   19.8514   23.9040 H   0  0  0  0  0  0  0  0  0  0  0  0
   19.9061   19.3282   25.1668 C   0  0  1  0  0  0  0  0  0  0  0  0
   20.4847   19.6158   26.0502 H   0  0  0  0  0  0  0  0  0  0  0  0
   18.9868   20.5085   24.8132 C   0  0  0  0  0  0  0  0  0  0  0  0
   18.2971   20.2514   24.0004 H   0  0  0  0  0  0  0  0  0  0  0  0
   19.5746   21.3834   24.5092 H   0  0  0  0  0  0  0  0  0  0  0  0
   18.3846   20.7989   25.6828 H   0  0  0  0  0  0  0  0  0  0  0  0
   19.0998   18.1260   25.5764 N   0  3  0  0  0  0  0  0  0  0  0  0
   19.7023   17.3509   25.8671 H   0  0  0  0  0  0  0  0  0  0  0  0
   18.4795   18.3418   26.3620 H   0  0  0  0  0  0  0  0  0  0  0  0
   18.5152   17.7897   24.8074 H   0  0  0  0  0  0  0  0  0  0  0  0
  1  2  1  0  0  0  0
  1  3  1  0  0  0  0
  1  4  1  0  0  0  0
  1  5  1  0  0  0  0
  5  6  1  0  0  0  0
  5  7  1  0  0  0  0
  5  8  1  0  0  0  0
  8  9  1  0  0  0  0
  8 10  1  0  0  0  0
  8 11  1  0  0  0  0
 11 12  1  0  0  0  0
 11 13  1  0  0  0  0
 11 14  1  0  0  0  0
 14 15  1  0  0  0  0
 14 16  1  0  0  0  0
 14 17  1  0  0  0  0
 17 18  1  0  0  0  0
 17 19  1  0  0  0  0
 19 20  1  0  0  0  0
 19 21  1  0  0  0  0
 19 22  1  0  0  0  0
 17 23  1  0  0  0  0
 23 24  1  0  0  0  0
 23 25  1  0  0  0  0
 23 26  1  0  0  0  0
M  END
> <VConfSearch Rank>
914

> <Conf_Id>
127

> <Delta U+W>
3.544

> <U+W>
-26.754

> <U>
27.509

> <W>
-54.263

> <W(PB)>
-56.496

> <W(SA)>
2.232

> <Valence>
6.375

> <Coulomb>
20.014

> <VdW>
1.120

> <VdW6>
-8.976

> <VdW12>
10.096

> <Bond>
0.304

> <Angle>
1.986

> <Pdih>
4.086

> <Idih>
0.000

> <Tether>
0.000

$$$$
VeraChem MOL file


 26 25  0  0  0  0  0  0  0  0999 V2000     
   20.7937   22.2102   22.6382 C   0  0  0  0  0  0  0  0  0  0  0  0
   20.8702   23.1025   23.2730 H   0  0  0  0  0  0  0  0  0  0  0  0
   21.0863   22.5000   21.6206 H   0  0  0  0  0  0  0  0  0  0  0  0
   19.7405   21.9099   22.6131 H   0  0  0  0  0  0  0  0  0  0  0  0
   21.7083   21.0846   23.1752 C   0  0  0  0  0  0  0  0  0  0  0  0
   21.4570   20.8533   24.2197 H   0  0  0  0  0  0  0  0  0  0  0  0
   22.7393   21.4650   23.1902 H   0  0  0  0  0  0  0  0  0  0  0  0
   21.6697   19.7967   22.3127 C   0  0  0  0  0  0  0  0  0  0  0  0
   21.4413   20.0457   21.2672 H   0  0  0  0  0  0  0  0  0  0  0  0
   22.6801   19.3649   22.2989 H   0  0  0  0  0  0  0  0  0  0  0  0
   20.7011   18.6985   22.8231 C   0  0  0  0  0  0  0  0  0  0  0  0
   21.0116   18.3876   23.8295 H   0  0  0  0  0  0  0  0  0  0  0  0
   20.8245   17.8196   22.1778 H   0  0  0  0  0  0  0  0  0  0  0  0
   19.2096   19.1269   22.8424 C   0  0  0  0  0  0  0  0  0  0  0  0
   19.0785   19.9422   23.5641 H   0  0  0  0  0  0  0  0  0  0  0  0
   18.9333   19.5349   21.8613 H   0  0  0  0  0  0  0  0  0  0  0  0
   18.2131   18.0034   23.2150 C   0  0  1  0  0  0  0  0  0  0  0  0
   17.2185   18.4573   23.2671 H   0  0  0  0  0  0  0  0  0  0  0  0
   18.1595   16.8960   22.1478 C   0  0  0  0  0  0  0  0  0  0  0  0
   17.9730   17.3208   21.1537 H   0  0  0  0  0  0  0  0  0  0  0  0
   17.3462   16.1933   22.3662 H   0  0  0  0  0  0  0  0  0  0  0  0
   19.0933   16.3231   22.1074 H   0  0  0  0  0  0  0  0  0  0  0  0
   18.4801   17.4270   24.5783 N   0  3  0  0  0  0  0  0  0  0  0  0
   18.4695   18.1518   25.3014 H   0  0  0  0  0  0  0  0  0  0  0  0
   17.7758   16.7293   24.8341 H   0  0  0  0  0  0  0  0  0  0  0  0
   19.3938   16.9683   24.6147 H   0  0  0  0  0  0  0  0  0  0  0  0
  1  2  1  0  0  0  0
  1  3  1  0  0  0  0
  1  4  1  0  0  0  0
  1  5  1  0  0  0  0
  5  6  1  0  0  0  0
  5  7  1  0  0  0  0
  5  8  1  0  0  0  0
  8  9  1  0  0  0  0
  8 10  1  0  0  0  0
  8 11  1  0  0  0  0
 11 12  1  0  0  0  0
 11 13  1  0  0  0  0
 11 14  1  0  0  0  0
 14 15  1  0  0  0  0
 14 16  1  0  0  0  0
 14 17  1  0  0  0  0
 17 18  1  0  0  0  0
 17 19  1  0  0  0  0
 19 20  1  0  0  0  0
 19 21  1  0  0  0  0
 19 22  1  0  0  0  0
 17 23  1  0  0  0  0
 23 24  1  0  0  0  0
 23 25  1  0  0  0  0
 23 26  1  0  0  0  0
M  END
> <VConfSearch Rank>
915

> <Conf_Id>
131

> <Delta U+W>
3.589

> <U+W>
-26.710

> <U>
27.573

> <W>
-54.283

> <W(PB)>
-56.537

> <W(SA)>
2.254

> <Valence>
6.363

> <Coulomb>
20.026

> <VdW>
1.184

> <VdW6>
-8.939

> <VdW12>
10.123

> <Bond>
0.298

> <Angle>
2.018

> <Pdih>
4.047

> <Idih>
0.000

> <Tether>
0.000

$$$$
VeraChem MOL file


 26 25  0  0  0  0  0  0  0  0999 V2000     
   19.3839   16.4035   23.7926 C   0  0  0  0  0  0  0  0  0  0  0  0
   20.4397   16.4337   24.0913 H   0  0  0  0  0  0  0  0  0  0  0  0
   18.8786   17.2879   24.1995 H   0  0  0  0  0  0  0  0  0  0  0  0
   18.9273   15.5219   24.2608 H   0  0  0  0  0  0  0  0  0  0  0  0
   19.2406   16.3331   22.2567 C   0  0  0  0  0  0  0  0  0  0  0  0
   18.1759   16.3782   21.9881 H   0  0  0  0  0  0  0  0  0  0  0  0
   19.5990   15.3524   21.9142 H   0  0  0  0  0  0  0  0  0  0  0  0
   20.0170   17.4344   21.4904 C   0  0  0  0  0  0  0  0  0  0  0  0
   21.0962   17.3259   21.6655 H   0  0  0  0  0  0  0  0  0  0  0  0
   19.8726   17.2528   20.4164 H   0  0  0  0  0  0  0  0  0  0  0  0
   19.5619   18.8848   21.7999 C   0  0  0  0  0  0  0  0  0  0  0  0
   18.4962   18.8857   22.0619 H   0  0  0  0  0  0  0  0  0  0  0  0
   19.6506   19.4798   20.8803 H   0  0  0  0  0  0  0  0  0  0  0  0
   20.4091   19.5742   22.9021 C   0  0  0  0  0  0  0  0  0  0  0  0
   20.3342   19.0265   23.8480 H   0  0  0  0  0  0  0  0  0  0  0  0
   21.4650   19.5294   22.6047 H   0  0  0  0  0  0  0  0  0  0  0  0
   20.0326   21.0549   23.1368 C   0  0  1  0  0  0  0  0  0  0  0  0
   20.0610   21.5736   22.1736 H   0  0  0  0  0  0  0  0  0  0  0  0
   18.6208   21.2055   23.7316 C   0  0  0  0  0  0  0  0  0  0  0  0
   18.5246   20.6481   24.6717 H   0  0  0  0  0  0  0  0  0  0  0  0
   17.8538   20.8435   23.0376 H   0  0  0  0  0  0  0  0  0  0  0  0
   18.3991   22.2599   23.9376 H   0  0  0  0  0  0  0  0  0  0  0  0
   21.0423   21.7390   24.0164 N   0  3  0  0  0  0  0  0  0  0  0  0
   21.0786   21.3133   24.9464 H   0  0  0  0  0  0  0  0  0  0  0  0
   21.9845   21.6896   23.6183 H   0  0  0  0  0  0  0  0  0  0  0  0
   20.8176   22.7299   24.1428 H   0  0  0  0  0  0  0  0  0  0  0  0
  1  2  1  0  0  0  0
  1  3  1  0  0  0  0
  1  4  1  0  0  0  0
  1  5  1  0  0  0  0
  5  6  1  0  0  0  0
  5  7  1  0  0  0  0
  5  8  1  0  0  0  0
  8  9  1  0  0  0  0
  8 10  1  0  0  0  0
  8 11  1  0  0  0  0
 11 12  1  0  0  0  0
 11 13  1  0  0  0  0
 11 14  1  0  0  0  0
 14 15  1  0  0  0  0
 14 16  1  0  0  0  0
 14 17  1  0  0  0  0
 17 18  1  0  0  0  0
 17 19  1  0  0  0  0
 19 20  1  0  0  0  0
 19 21  1  0  0  0  0
 19 22  1  0  0  0  0
 17 23  1  0  0  0  0
 23 24  1  0  0  0  0
 23 25  1  0  0  0  0
 23 26  1  0  0  0  0
M  END
> <VConfSearch Rank>
916

> <Conf_Id>
80

> <Delta U+W>
3.351

> <U+W>
-26.948

> <U>
27.261

> <W>
-54.209

> <W(PB)>
-56.471

> <W(SA)>
2.263

> <Valence>
6.230

> <Coulomb>
19.945

> <VdW>
1.087

> <VdW6>
-8.618

> <VdW12>
9.704

> <Bond>
0.277

> <Angle>
1.928

> <Pdih>
4.025

> <Idih>
0.000

> <Tether>
0.000

$$$$
VeraChem MOL file


 26 25  0  0  0  0  0  0  0  0999 V2000     
   16.7835   17.9703   23.4453 C   0  0  0  0  0  0  0  0  0  0  0  0
   15.7930   18.4264   23.5708 H   0  0  0  0  0  0  0  0  0  0  0  0
   16.6381   16.9022   23.2382 H   0  0  0  0  0  0  0  0  0  0  0  0
   17.3146   18.0678   24.4004 H   0  0  0  0  0  0  0  0  0  0  0  0
   17.5548   18.6592   22.2969 C   0  0  0  0  0  0  0  0  0  0  0  0
   17.7108   19.7183   22.5396 H   0  0  0  0  0  0  0  0  0  0  0  0
   16.9255   18.6514   21.3961 H   0  0  0  0  0  0  0  0  0  0  0  0
   18.9050   17.9761   21.9564 C   0  0  0  0  0  0  0  0  0  0  0  0
   18.6946   16.9706   21.5669 H   0  0  0  0  0  0  0  0  0  0  0  0
   19.3703   18.5187   21.1257 H   0  0  0  0  0  0  0  0  0  0  0  0
   19.9079   17.8378   23.1368 C   0  0  0  0  0  0  0  0  0  0  0  0
   20.7887   17.2738   22.8006 H   0  0  0  0  0  0  0  0  0  0  0  0
   19.4473   17.2086   23.9098 H   0  0  0  0  0  0  0  0  0  0  0  0
   20.3701   19.1690   23.7934 C   0  0  0  0  0  0  0  0  0  0  0  0
   19.5752   19.9224   23.7603 H   0  0  0  0  0  0  0  0  0  0  0  0
   20.5359   18.9674   24.8599 H   0  0  0  0  0  0  0  0  0  0  0  0
   21.6853   19.7601   23.2305 C   0  0  1  0  0  0  0  0  0  0  0  0
   22.4717   19.0069   23.3396 H   0  0  0  0  0  0  0  0  0  0  0  0
   21.5866   20.1372   21.7432 C   0  0  0  0  0  0  0  0  0  0  0  0
   21.4978   19.2419   21.1181 H   0  0  0  0  0  0  0  0  0  0  0  0
   22.4902   20.6663   21.4166 H   0  0  0  0  0  0  0  0  0  0  0  0
   20.7231   20.7866   21.5528 H   0  0  0  0  0  0  0  0  0  0  0  0
   22.1272   20.9492   24.0381 N   0  3  0  0  0  0  0  0  0  0  0  0
   22.2468   20.7107   25.0268 H   0  0  0  0  0  0  0  0  0  0  0  0
   23.0224   21.3166   23.7036 H   0  0  0  0  0  0  0  0  0  0  0  0
   21.4459   21.7111   23.9855 H   0  0  0  0  0  0  0  0  0  0  0  0
  1  2  1  0  0  0  0
  1  3  1  0  0  0  0
  1  4  1  0  0  0  0
  1  5  1  0  0  0  0
  5  6  1  0  0  0  0
  5  7  1  0  0  0  0
  5  8  1  0  0  0  0
  8  9  1  0  0  0  0
  8 10  1  0  0  0  0
  8 11  1  0  0  0  0
 11 12  1  0  0  0  0
 11 13  1  0  0  0  0
 11 14  1  0  0  0  0
 14 15  1  0  0  0  0
 14 16  1  0  0  0  0
 14 17  1  0  0  0  0
 17 18  1  0  0  0  0
 17 19  1  0  0  0  0
 19 20  1  0  0  0  0
 19 21  1  0  0  0  0
 19 22  1  0  0  0  0
 17 23  1  0  0  0  0
 23 24  1  0  0  0  0
 23 25  1  0  0  0  0
 23 26  1  0  0  0  0
M  END
> <VConfSearch Rank>
917

> <Conf_Id>
136

> <Delta U+W>
4.272

> <U+W>
-26.026

> <U>
28.262

> <W>
-54.288

> <W(PB)>
-56.488

> <W(SA)>
2.200

> <Valence>
7.096

> <Coulomb>
19.990

> <VdW>
1.175

> <VdW6>
-9.404

> <VdW12>
10.580

> <Bond>
0.360

> <Angle>
2.785

> <Pdih>
3.951

> <Idih>
0.000

> <Tether>
0.000

$$$$
VeraChem MOL file


 26 25  0  0  0  0  0  0  0  0999 V2000     
   21.6689   19.8987   25.1855 C   0  0  0  0  0  0  0  0  0  0  0  0
   20.9426   20.5970   24.7518 H   0  0  0  0  0  0  0  0  0  0  0  0
   22.1266   20.3971   26.0499 H   0  0  0  0  0  0  0  0  0  0  0  0
   22.4601   19.7125   24.4478 H   0  0  0  0  0  0  0  0  0  0  0  0
   20.9906   18.5810   25.6198 C   0  0  0  0  0  0  0  0  0  0  0  0
   20.1686   18.8061   26.3136 H   0  0  0  0  0  0  0  0  0  0  0  0
   21.7150   17.9835   26.1906 H   0  0  0  0  0  0  0  0  0  0  0  0
   20.4583   17.7191   24.4464 C   0  0  0  0  0  0  0  0  0  0  0  0
   21.2900   17.4036   23.8015 H   0  0  0  0  0  0  0  0  0  0  0  0
   20.0496   16.7938   24.8756 H   0  0  0  0  0  0  0  0  0  0  0  0
   19.3459   18.3925   23.6009 C   0  0  0  0  0  0  0  0  0  0  0  0
   18.7838   19.1056   24.2197 H   0  0  0  0  0  0  0  0  0  0  0  0
   18.6290   17.6168   23.3008 H   0  0  0  0  0  0  0  0  0  0  0  0
   19.8836   19.0910   22.3248 C   0  0  0  0  0  0  0  0  0  0  0  0
   20.6781   19.7955   22.5952 H   0  0  0  0  0  0  0  0  0  0  0  0
   20.3458   18.3453   21.6644 H   0  0  0  0  0  0  0  0  0  0  0  0
   18.7876   19.8568   21.5525 C   0  0  1  0  0  0  0  0  0  0  0  0
   18.3254   20.5754   22.2364 H   0  0  0  0  0  0  0  0  0  0  0  0
   19.4049   20.6357   20.3799 C   0  0  0  0  0  0  0  0  0  0  0  0
   19.8827   19.9585   19.6610 H   0  0  0  0  0  0  0  0  0  0  0  0
   20.1627   21.3438   20.7379 H   0  0  0  0  0  0  0  0  0  0  0  0
   18.6368   21.2114   19.8489 H   0  0  0  0  0  0  0  0  0  0  0  0
   17.6874   18.9539   21.0649 N   0  3  0  0  0  0  0  0  0  0  0  0
   18.0443   18.2467   20.4170 H   0  0  0  0  0  0  0  0  0  0  0  0
   17.2359   18.4619   21.8406 H   0  0  0  0  0  0  0  0  0  0  0  0
   16.9607   19.4814   20.5730 H   0  0  0  0  0  0  0  0  0  0  0  0
  1  2  1  0  0  0  0
  1  3  1  0  0  0  0
  1  4  1  0  0  0  0
  1  5  1  0  0  0  0
  5  6  1  0  0  0  0
  5  7  1  0  0  0  0
  5  8  1  0  0  0  0
  8  9  1  0  0  0  0
  8 10  1  0  0  0  0
  8 11  1  0  0  0  0
 11 12  1  0  0  0  0
 11 13  1  0  0  0  0
 11 14  1  0  0  0  0
 14 15  1  0  0  0  0
 14 16  1  0  0  0  0
 14 17  1  0  0  0  0
 17 18  1  0  0  0  0
 17 19  1  0  0  0  0
 19 20  1  0  0  0  0
 19 21  1  0  0  0  0
 19 22  1  0  0  0  0
 17 23  1  0  0  0  0
 23 24  1  0  0  0  0
 23 25  1  0  0  0  0
 23 26  1  0  0  0  0
M  END
> <VConfSearch Rank>
918

> <Conf_Id>
124

> <Delta U+W>
3.001

> <U+W>
-27.298

> <U>
26.787

> <W>
-54.085

> <W(PB)>
-56.347

> <W(SA)>
2.262

> <Valence>
5.742

> <Coulomb>
20.023

> <VdW>
1.022

> <VdW6>
-8.392

> <VdW12>
9.414

> <Bond>
0.261

> <Angle>
1.576

> <Pdih>
3.904

> <Idih>
0.000

> <Tether>
0.000

$$$$
VeraChem MOL file


 26 25  0  0  0  0  0  0  0  0999 V2000     
   20.0994   20.1235   19.9300 C   0  0  0  0  0  0  0  0  0  0  0  0
   20.7502   20.9962   19.7890 H   0  0  0  0  0  0  0  0  0  0  0  0
   19.6775   19.8617   18.9510 H   0  0  0  0  0  0  0  0  0  0  0  0
   19.2693   20.4233   20.5789 H   0  0  0  0  0  0  0  0  0  0  0  0
   20.8940   18.9312   20.5122 C   0  0  0  0  0  0  0  0  0  0  0  0
   21.6850   18.6704   19.7952 H   0  0  0  0  0  0  0  0  0  0  0  0
   20.2505   18.0436   20.5878 H   0  0  0  0  0  0  0  0  0  0  0  0
   21.5523   19.2384   21.8821 C   0  0  0  0  0  0  0  0  0  0  0  0
   22.5152   18.7106   21.9234 H   0  0  0  0  0  0  0  0  0  0  0  0
   21.7983   20.3067   21.9550 H   0  0  0  0  0  0  0  0  0  0  0  0
   20.7255   18.7949   23.1166 C   0  0  0  0  0  0  0  0  0  0  0  0
   21.3285   18.9874   24.0134 H   0  0  0  0  0  0  0  0  0  0  0  0
   20.5771   17.7077   23.0734 H   0  0  0  0  0  0  0  0  0  0  0  0
   19.3537   19.5074   23.2514 C   0  0  0  0  0  0  0  0  0  0  0  0
   19.4949   20.5908   23.1437 H   0  0  0  0  0  0  0  0  0  0  0  0
   18.7009   19.1966   22.4265 H   0  0  0  0  0  0  0  0  0  0  0  0
   18.6096   19.2385   24.5808 C   0  0  1  0  0  0  0  0  0  0  0  0
   17.6660   19.7916   24.5426 H   0  0  0  0  0  0  0  0  0  0  0  0
   18.2694   17.7487   24.7607 C   0  0  0  0  0  0  0  0  0  0  0  0
   19.1717   17.1408   24.8976 H   0  0  0  0  0  0  0  0  0  0  0  0
   17.7250   17.3651   23.8889 H   0  0  0  0  0  0  0  0  0  0  0  0
   17.6312   17.6043   25.6411 H   0  0  0  0  0  0  0  0  0  0  0  0
   19.3541   19.7697   25.7750 N   0  3  0  0  0  0  0  0  0  0  0  0
   18.8181   19.6405   26.6378 H   0  0  0  0  0  0  0  0  0  0  0  0
   20.2507   19.2931   25.8970 H   0  0  0  0  0  0  0  0  0  0  0  0
   19.5471   20.7710   25.6823 H   0  0  0  0  0  0  0  0  0  0  0  0
  1  2  1  0  0  0  0
  1  3  1  0  0  0  0
  1  4  1  0  0  0  0
  1  5  1  0  0  0  0
  5  6  1  0  0  0  0
  5  7  1  0  0  0  0
  5  8  1  0  0  0  0
  8  9  1  0  0  0  0
  8 10  1  0  0  0  0
  8 11  1  0  0  0  0
 11 12  1  0  0  0  0
 11 13  1  0  0  0  0
 11 14  1  0  0  0  0
 14 15  1  0  0  0  0
 14 16  1  0  0  0  0
 14 17  1  0  0  0  0
 17 18  1  0  0  0  0
 17 19  1  0  0  0  0
 19 20  1  0  0  0  0
 19 21  1  0  0  0  0
 19 22  1  0  0  0  0
 17 23  1  0  0  0  0
 23 24  1  0  0  0  0
 23 25  1  0  0  0  0
 23 26  1  0  0  0  0
M  END
> <VConfSearch Rank>
919

> <Conf_Id>
105

> <Delta U+W>
3.442

> <U+W>
-26.857

> <U>
27.313

> <W>
-54.169

> <W(PB)>
-56.414

> <W(SA)>
2.245

> <Valence>
6.229

> <Coulomb>
19.943

> <VdW>
1.140

> <VdW6>
-9.001

> <VdW12>
10.140

> <Bond>
0.294

> <Angle>
1.969

> <Pdih>
3.967

> <Idih>
0.000

> <Tether>
0.000

$$$$
VeraChem MOL file


 26 25  0  0  0  0  0  0  0  0999 V2000     
   19.3528   17.1505   20.6358 C   0  0  0  0  0  0  0  0  0  0  0  0
   19.5020   17.5511   19.6247 H   0  0  0  0  0  0  0  0  0  0  0  0
   18.9363   16.1399   20.5347 H   0  0  0  0  0  0  0  0  0  0  0  0
   18.6006   17.7697   21.1363 H   0  0  0  0  0  0  0  0  0  0  0  0
   20.6877   17.1089   21.4155 C   0  0  0  0  0  0  0  0  0  0  0  0
   21.3749   16.4447   20.8729 H   0  0  0  0  0  0  0  0  0  0  0  0
   20.5396   16.6489   22.4024 H   0  0  0  0  0  0  0  0  0  0  0  0
   21.3603   18.4982   21.5637 C   0  0  0  0  0  0  0  0  0  0  0  0
   22.4491   18.3559   21.5231 H   0  0  0  0  0  0  0  0  0  0  0  0
   21.1135   19.1339   20.7022 H   0  0  0  0  0  0  0  0  0  0  0  0
   21.0372   19.2405   22.8861 C   0  0  0  0  0  0  0  0  0  0  0  0
   21.6250   20.1687   22.9111 H   0  0  0  0  0  0  0  0  0  0  0  0
   21.3854   18.6326   23.7319 H   0  0  0  0  0  0  0  0  0  0  0  0
   19.5398   19.5895   23.0706 C   0  0  0  0  0  0  0  0  0  0  0  0
   19.1697   20.0685   22.1545 H   0  0  0  0  0  0  0  0  0  0  0  0
   18.9574   18.6704   23.2107 H   0  0  0  0  0  0  0  0  0  0  0  0
   19.2876   20.5351   24.2647 C   0  0  1  0  0  0  0  0  0  0  0  0
   19.8880   21.4384   24.1193 H   0  0  0  0  0  0  0  0  0  0  0  0
   17.8068   20.9436   24.3194 C   0  0  0  0  0  0  0  0  0  0  0  0
   17.1590   20.0705   24.4672 H   0  0  0  0  0  0  0  0  0  0  0  0
   17.5047   21.4395   23.3885 H   0  0  0  0  0  0  0  0  0  0  0  0
   17.6278   21.6455   25.1432 H   0  0  0  0  0  0  0  0  0  0  0  0
   19.7192   19.9347   25.5749 N   0  3  0  0  0  0  0  0  0  0  0  0
   20.7145   19.6965   25.5669 H   0  0  0  0  0  0  0  0  0  0  0  0
   19.5659   20.5832   26.3523 H   0  0  0  0  0  0  0  0  0  0  0  0
   19.1986   19.0785   25.7828 H   0  0  0  0  0  0  0  0  0  0  0  0
  1  2  1  0  0  0  0
  1  3  1  0  0  0  0
  1  4  1  0  0  0  0
  1  5  1  0  0  0  0
  5  6  1  0  0  0  0
  5  7  1  0  0  0  0
  5  8  1  0  0  0  0
  8  9  1  0  0  0  0
  8 10  1  0  0  0  0
  8 11  1  0  0  0  0
 11 12  1  0  0  0  0
 11 13  1  0  0  0  0
 11 14  1  0  0  0  0
 14 15  1  0  0  0  0
 14 16  1  0  0  0  0
 14 17  1  0  0  0  0
 17 18  1  0  0  0  0
 17 19  1  0  0  0  0
 19 20  1  0  0  0  0
 19 21  1  0  0  0  0
 19 22  1  0  0  0  0
 17 23  1  0  0  0  0
 23 24  1  0  0  0  0
 23 25  1  0  0  0  0
 23 26  1  0  0  0  0
M  END
> <VConfSearch Rank>
920

> <Conf_Id>
107

> <Delta U+W>
2.995

> <U+W>
-27.304

> <U>
26.796

> <W>
-54.100

> <W(PB)>
-56.404

> <W(SA)>
2.304

> <Valence>
5.706

> <Coulomb>
20.107

> <VdW>
0.982

> <VdW6>
-8.396

> <VdW12>
9.378

> <Bond>
0.254

> <Angle>
1.644

> <Pdih>
3.808

> <Idih>
0.000

> <Tether>
0.000

$$$$
VeraChem MOL file


 26 25  0  0  0  0  0  0  0  0999 V2000     
   17.4102   20.3161   19.7464 C   0  0  0  0  0  0  0  0  0  0  0  0
   16.5766   19.6252   19.9281 H   0  0  0  0  0  0  0  0  0  0  0  0
   16.9930   21.2500   19.3480 H   0  0  0  0  0  0  0  0  0  0  0  0
   18.0550   19.8782   18.9732 H   0  0  0  0  0  0  0  0  0  0  0  0
   18.2026   20.5829   21.0438 C   0  0  0  0  0  0  0  0  0  0  0  0
   17.5404   21.0514   21.7854 H   0  0  0  0  0  0  0  0  0  0  0  0
   19.0073   21.3025   20.8378 H   0  0  0  0  0  0  0  0  0  0  0  0
   18.8011   19.2832   21.6261 C   0  0  0  0  0  0  0  0  0  0  0  0
   17.9928   18.5664   21.8268 H   0  0  0  0  0  0  0  0  0  0  0  0
   19.4607   18.8178   20.8806 H   0  0  0  0  0  0  0  0  0  0  0  0
   19.5947   19.5461   22.9259 C   0  0  0  0  0  0  0  0  0  0  0  0
   18.9330   20.0084   23.6717 H   0  0  0  0  0  0  0  0  0  0  0  0
   20.3957   20.2681   22.7182 H   0  0  0  0  0  0  0  0  0  0  0  0
   20.1943   18.2421   23.5061 C   0  0  0  0  0  0  0  0  0  0  0  0
   19.3848   17.5150   23.6551 H   0  0  0  0  0  0  0  0  0  0  0  0
   20.8864   17.7959   22.7795 H   0  0  0  0  0  0  0  0  0  0  0  0
   20.9217   18.4591   24.8509 C   0  0  1  0  0  0  0  0  0  0  0  0
   20.2196   18.9254   25.5490 H   0  0  0  0  0  0  0  0  0  0  0  0
   21.3658   17.1113   25.4417 C   0  0  0  0  0  0  0  0  0  0  0  0
   22.0754   16.6013   24.7782 H   0  0  0  0  0  0  0  0  0  0  0  0
   20.5042   16.4494   25.5940 H   0  0  0  0  0  0  0  0  0  0  0  0
   21.8507   17.2549   26.4152 H   0  0  0  0  0  0  0  0  0  0  0  0
   22.0947   19.3930   24.7277 N   0  3  0  0  0  0  0  0  0  0  0  0
   22.7994   19.0245   24.0837 H   0  0  0  0  0  0  0  0  0  0  0  0
   21.8071   20.3109   24.3781 H   0  0  0  0  0  0  0  0  0  0  0  0
   22.5525   19.5399   25.6317 H   0  0  0  0  0  0  0  0  0  0  0  0
  1  2  1  0  0  0  0
  1  3  1  0  0  0  0
  1  4  1  0  0  0  0
  1  5  1  0  0  0  0
  5  6  1  0  0  0  0
  5  7  1  0  0  0  0
  5  8  1  0  0  0  0
  8  9  1  0  0  0  0
  8 10  1  0  0  0  0
  8 11  1  0  0  0  0
 11 12  1  0  0  0  0
 11 13  1  0  0  0  0
 11 14  1  0  0  0  0
 14 15  1  0  0  0  0
 14 16  1  0  0  0  0
 14 17  1  0  0  0  0
 17 18  1  0  0  0  0
 17 19  1  0  0  0  0
 19 20  1  0  0  0  0
 19 21  1  0  0  0  0
 19 22  1  0  0  0  0
 17 23  1  0  0  0  0
 23 24  1  0  0  0  0
 23 25  1  0  0  0  0
 23 26  1  0  0  0  0
M  END
> <VConfSearch Rank>
921

> <Conf_Id>
122

> <Delta U+W>
0.000

> <U+W>
-30.299

> <U>
23.517

> <W>
-53.816

> <W(PB)>
-56.162

> <W(SA)>
2.346

> <Valence>
2.737

> <Coulomb>
19.862

> <VdW>
0.919

> <VdW6>
-6.793

> <VdW12>
7.712

> <Bond>
0.171

> <Angle>
0.873

> <Pdih>
1.693

> <Idih>
0.000

> <Tether>
0.000

$$$$
VeraChem MOL file


 26 25  0  0  0  0  0  0  0  0999 V2000     
   18.6558   17.2727   26.5245 C   0  0  0  0  0  0  0  0  0  0  0  0
   17.7233   16.9852   27.0274 H   0  0  0  0  0  0  0  0  0  0  0  0
   19.2733   16.3712   26.4185 H   0  0  0  0  0  0  0  0  0  0  0  0
   19.1877   17.9767   27.1777 H   0  0  0  0  0  0  0  0  0  0  0  0
   18.3598   17.9074   25.1491 C   0  0  0  0  0  0  0  0  0  0  0  0
   17.7132   18.7857   25.2846 H   0  0  0  0  0  0  0  0  0  0  0  0
   17.7982   17.1927   24.5311 H   0  0  0  0  0  0  0  0  0  0  0  0
   19.6567   18.3216   24.4192 C   0  0  0  0  0  0  0  0  0  0  0  0
   20.2154   19.0344   25.0414 H   0  0  0  0  0  0  0  0  0  0  0  0
   20.3004   17.4405   24.2894 H   0  0  0  0  0  0  0  0  0  0  0  0
   19.3644   18.9573   23.0410 C   0  0  0  0  0  0  0  0  0  0  0  0
   18.7142   19.8307   23.1817 H   0  0  0  0  0  0  0  0  0  0  0  0
   18.8099   18.2421   22.4177 H   0  0  0  0  0  0  0  0  0  0  0  0
   20.6662   19.3755   22.3138 C   0  0  0  0  0  0  0  0  0  0  0  0
   21.1909   20.1392   22.9033 H   0  0  0  0  0  0  0  0  0  0  0  0
   21.3346   18.5057   22.2664 H   0  0  0  0  0  0  0  0  0  0  0  0
   20.4375   19.8949   20.8758 C   0  0  1  0  0  0  0  0  0  0  0  0
   19.8775   19.1353   20.3217 H   0  0  0  0  0  0  0  0  0  0  0  0
   19.6323   21.2067   20.8534 C   0  0  0  0  0  0  0  0  0  0  0  0
   20.1236   21.9843   21.4514 H   0  0  0  0  0  0  0  0  0  0  0  0
   18.6192   21.0600   21.2451 H   0  0  0  0  0  0  0  0  0  0  0  0
   19.5313   21.5803   19.8269 H   0  0  0  0  0  0  0  0  0  0  0  0
   21.7422   20.0731   20.1498 N   0  3  0  0  0  0  0  0  0  0  0  0
   22.3313   20.7753   20.6052 H   0  0  0  0  0  0  0  0  0  0  0  0
   22.2763   19.2002   20.1136 H   0  0  0  0  0  0  0  0  0  0  0  0
   21.5941   20.3790   19.1839 H   0  0  0  0  0  0  0  0  0  0  0  0
  1  2  1  0  0  0  0
  1  3  1  0  0  0  0
  1  4  1  0  0  0  0
  1  5  1  0  0  0  0
  5  6  1  0  0  0  0
  5  7  1  0  0  0  0
  5  8  1  0  0  0  0
  8  9  1  0  0  0  0
  8 10  1  0  0  0  0
  8 11  1  0  0  0  0
 11 12  1  0  0  0  0
 11 13  1  0  0  0  0
 11 14  1  0  0  0  0
 14 15  1  0  0  0  0
 14 16  1  0  0  0  0
 14 17  1  0  0  0  0
 17 18  1  0  0  0  0
 17 19  1  0  0  0  0
 19 20  1  0  0  0  0
 19 21  1  0  0  0  0
 19 22  1  0  0  0  0
 17 23  1  0  0  0  0
 23 24  1  0  0  0  0
 23 25  1  0  0  0  0
 23 26  1  0  0  0  0
M  END
> <VConfSearch Rank>
922

> <Conf_Id>
54

> <Delta U+W>
0.453

> <U+W>
-29.845

> <U>
23.817

> <W>
-53.663

> <W(PB)>
-56.021

> <W(SA)>
2.358

> <Valence>
3.277

> <Coulomb>
19.492

> <VdW>
1.049

> <VdW6>
-6.949

> <VdW12>
7.998

> <Bond>
0.183

> <Angle>
1.152

> <Pdih>
1.942

> <Idih>
0.000

> <Tether>
0.000

$$$$
VeraChem MOL file


 26 25  0  0  0  0  0  0  0  0999 V2000     
   22.3476   16.4571   22.9679 C   0  0  0  0  0  0  0  0  0  0  0  0
   21.7306   15.8588   23.6508 H   0  0  0  0  0  0  0  0  0  0  0  0
   21.9728   16.3103   21.9477 H   0  0  0  0  0  0  0  0  0  0  0  0
   23.3694   16.0575   23.0027 H   0  0  0  0  0  0  0  0  0  0  0  0
   22.3376   17.9491   23.3721 C   0  0  0  0  0  0  0  0  0  0  0  0
   22.9328   18.5322   22.6555 H   0  0  0  0  0  0  0  0  0  0  0  0
   22.8410   18.0516   24.3437 H   0  0  0  0  0  0  0  0  0  0  0  0
   20.9157   18.5507   23.4867 C   0  0  0  0  0  0  0  0  0  0  0  0
   20.3175   17.9451   24.1815 H   0  0  0  0  0  0  0  0  0  0  0  0
   21.0158   19.5472   23.9329 H   0  0  0  0  0  0  0  0  0  0  0  0
   20.1861   18.6711   22.1249 C   0  0  0  0  0  0  0  0  0  0  0  0
   20.1990   17.6977   21.6188 H   0  0  0  0  0  0  0  0  0  0  0  0
   20.7410   19.3602   21.4733 H   0  0  0  0  0  0  0  0  0  0  0  0
   18.7058   19.1274   22.2164 C   0  0  0  0  0  0  0  0  0  0  0  0
   18.2892   19.0694   21.2018 H   0  0  0  0  0  0  0  0  0  0  0  0
   18.1263   18.4145   22.8177 H   0  0  0  0  0  0  0  0  0  0  0  0
   18.4981   20.5633   22.7545 C   0  0  1  0  0  0  0  0  0  0  0  0
   19.2978   21.1986   22.3616 H   0  0  0  0  0  0  0  0  0  0  0  0
   17.1527   21.1282   22.2689 C   0  0  0  0  0  0  0  0  0  0  0  0
   17.0062   22.1520   22.6348 H   0  0  0  0  0  0  0  0  0  0  0  0
   16.3141   20.5152   22.6225 H   0  0  0  0  0  0  0  0  0  0  0  0
   17.1148   21.1605   21.1729 H   0  0  0  0  0  0  0  0  0  0  0  0
   18.5657   20.6395   24.2557 N   0  3  0  0  0  0  0  0  0  0  0  0
   19.4539   20.2783   24.6103 H   0  0  0  0  0  0  0  0  0  0  0  0
   18.4707   21.6042   24.5856 H   0  0  0  0  0  0  0  0  0  0  0  0
   17.8166   20.0935   24.6893 H   0  0  0  0  0  0  0  0  0  0  0  0
  1  2  1  0  0  0  0
  1  3  1  0  0  0  0
  1  4  1  0  0  0  0
  1  5  1  0  0  0  0
  5  6  1  0  0  0  0
  5  7  1  0  0  0  0
  5  8  1  0  0  0  0
  8  9  1  0  0  0  0
  8 10  1  0  0  0  0
  8 11  1  0  0  0  0
 11 12  1  0  0  0  0
 11 13  1  0  0  0  0
 11 14  1  0  0  0  0
 14 15  1  0  0  0  0
 14 16  1  0  0  0  0
 14 17  1  0  0  0  0
 17 18  1  0  0  0  0
 17 19  1  0  0  0  0
 19 20  1  0  0  0  0
 19 21  1  0  0  0  0
 19 22  1  0  0  0  0
 17 23  1  0  0  0  0
 23 24  1  0  0  0  0
 23 25  1  0  0  0  0
 23 26  1  0  0  0  0
M  END
> <VConfSearch Rank>
923

> <Conf_Id>
110

> <Delta U+W>
3.764

> <U+W>
-26.535

> <U>
27.400

> <W>
-53.935

> <W(PB)>
-56.238

> <W(SA)>
2.303

> <Valence>
5.205

> <Coulomb>
21.096

> <VdW>
1.098

> <VdW6>
-8.389

> <VdW12>
9.488

> <Bond>
0.270

> <Angle>
1.912

> <Pdih>
3.023

> <Idih>
0.000

> <Tether>
0.000

$$$$
VeraChem MOL file


 26 25  0  0  0  0  0  0  0  0999 V2000     
   21.4387   22.2314   21.7339 C   0  0  0  0  0  0  0  0  0  0  0  0
   22.2659   22.7117   21.1953 H   0  0  0  0  0  0  0  0  0  0  0  0
   20.6207   22.0843   21.0178 H   0  0  0  0  0  0  0  0  0  0  0  0
   21.0956   22.9265   22.5111 H   0  0  0  0  0  0  0  0  0  0  0  0
   21.9007   20.8918   22.3509 C   0  0  0  0  0  0  0  0  0  0  0  0
   22.7950   21.0737   22.9632 H   0  0  0  0  0  0  0  0  0  0  0  0
   22.2104   20.2043   21.5514 H   0  0  0  0  0  0  0  0  0  0  0  0
   20.8237   20.2160   23.2334 C   0  0  0  0  0  0  0  0  0  0  0  0
   21.2737   19.3406   23.7169 H   0  0  0  0  0  0  0  0  0  0  0  0
   20.5387   20.8977   24.0466 H   0  0  0  0  0  0  0  0  0  0  0  0
   19.5572   19.7948   22.4442 C   0  0  0  0  0  0  0  0  0  0  0  0
   19.8348   19.2239   21.5475 H   0  0  0  0  0  0  0  0  0  0  0  0
   19.0543   20.7018   22.0834 H   0  0  0  0  0  0  0  0  0  0  0  0
   18.5427   18.9874   23.2971 C   0  0  0  0  0  0  0  0  0  0  0  0
   18.6419   19.2511   24.3584 H   0  0  0  0  0  0  0  0  0  0  0  0
   17.5327   19.3034   23.0042 H   0  0  0  0  0  0  0  0  0  0  0  0
   18.6201   17.4520   23.1170 C   0  0  1  0  0  0  0  0  0  0  0  0
   18.4721   17.2266   22.0564 H   0  0  0  0  0  0  0  0  0  0  0  0
   19.9767   16.8675   23.5459 C   0  0  0  0  0  0  0  0  0  0  0  0
   20.2158   17.1364   24.5823 H   0  0  0  0  0  0  0  0  0  0  0  0
   20.7832   17.2275   22.8967 H   0  0  0  0  0  0  0  0  0  0  0  0
   19.9672   15.7732   23.4716 H   0  0  0  0  0  0  0  0  0  0  0  0
   17.5030   16.7659   23.8534 N   0  3  0  0  0  0  0  0  0  0  0  0
   16.5859   17.1045   23.5485 H   0  0  0  0  0  0  0  0  0  0  0  0
   17.5198   15.7537   23.6998 H   0  0  0  0  0  0  0  0  0  0  0  0
   17.5685   16.9224   24.8627 H   0  0  0  0  0  0  0  0  0  0  0  0
  1  2  1  0  0  0  0
  1  3  1  0  0  0  0
  1  4  1  0  0  0  0
  1  5  1  0  0  0  0
  5  6  1  0  0  0  0
  5  7  1  0  0  0  0
  5  8  1  0  0  0  0
  8  9  1  0  0  0  0
  8 10  1  0  0  0  0
  8 11  1  0  0  0  0
 11 12  1  0  0  0  0
 11 13  1  0  0  0  0
 11 14  1  0  0  0  0
 14 15  1  0  0  0  0
 14 16  1  0  0  0  0
 14 17  1  0  0  0  0
 17 18  1  0  0  0  0
 17 19  1  0  0  0  0
 19 20  1  0  0  0  0
 19 21  1  0  0  0  0
 19 22  1  0  0  0  0
 17 23  1  0  0  0  0
 23 24  1  0  0  0  0
 23 25  1  0  0  0  0
 23 26  1  0  0  0  0
M  END
> <VConfSearch Rank>
924

> <Conf_Id>
34

> <Delta U+W>
3.568

> <U+W>
-26.731

> <U>
27.221

> <W>
-53.952

> <W(PB)>
-56.213

> <W(SA)>
2.261

> <Valence>
6.368

> <Coulomb>
19.698

> <VdW>
1.155

> <VdW6>
-8.532

> <VdW12>
9.687

> <Bond>
0.272

> <Angle>
1.847

> <Pdih>
4.248

> <Idih>
0.000

> <Tether>
0.000

$$$$
VeraChem MOL file


 26 25  0  0  0  0  0  0  0  0999 V2000     
   23.8069   19.9311   22.5164 C   0  0  0  0  0  0  0  0  0  0  0  0
   24.1753   19.4066   23.4077 H   0  0  0  0  0  0  0  0  0  0  0  0
   24.0068   19.2995   21.6410 H   0  0  0  0  0  0  0  0  0  0  0  0
   24.3884   20.8554   22.4049 H   0  0  0  0  0  0  0  0  0  0  0  0
   22.3011   20.2462   22.6409 C   0  0  0  0  0  0  0  0  0  0  0  0
   21.9699   20.7999   21.7511 H   0  0  0  0  0  0  0  0  0  0  0  0
   22.1371   20.9062   23.5043 H   0  0  0  0  0  0  0  0  0  0  0  0
   21.4589   18.9609   22.7991 C   0  0  0  0  0  0  0  0  0  0  0  0
   21.6285   18.3038   21.9349 H   0  0  0  0  0  0  0  0  0  0  0  0
   21.7956   18.4099   23.6882 H   0  0  0  0  0  0  0  0  0  0  0  0
   19.9502   19.2721   22.9244 C   0  0  0  0  0  0  0  0  0  0  0  0
   19.6213   19.8241   22.0340 H   0  0  0  0  0  0  0  0  0  0  0  0
   19.7923   19.9325   23.7872 H   0  0  0  0  0  0  0  0  0  0  0  0
   19.1109   17.9778   23.0859 C   0  0  0  0  0  0  0  0  0  0  0  0
   19.3168   17.3070   22.2415 H   0  0  0  0  0  0  0  0  0  0  0  0
   19.4412   17.4411   23.9852 H   0  0  0  0  0  0  0  0  0  0  0  0
   17.5821   18.1986   23.1727 C   0  0  1  0  0  0  0  0  0  0  0  0
   17.1156   17.2118   23.2531 H   0  0  0  0  0  0  0  0  0  0  0  0
   17.1835   19.0041   24.4217 C   0  0  0  0  0  0  0  0  0  0  0  0
   17.5364   20.0407   24.3659 H   0  0  0  0  0  0  0  0  0  0  0  0
   17.5981   18.5475   25.3289 H   0  0  0  0  0  0  0  0  0  0  0  0
   16.0922   19.0276   24.5304 H   0  0  0  0  0  0  0  0  0  0  0  0
   17.0203   18.8244   21.9257 N   0  3  0  0  0  0  0  0  0  0  0  0
   16.0007   18.9052   21.9743 H   0  0  0  0  0  0  0  0  0  0  0  0
   17.3958   19.7647   21.7799 H   0  0  0  0  0  0  0  0  0  0  0  0
   17.2435   18.2704   21.0940 H   0  0  0  0  0  0  0  0  0  0  0  0
  1  2  1  0  0  0  0
  1  3  1  0  0  0  0
  1  4  1  0  0  0  0
  1  5  1  0  0  0  0
  5  6  1  0  0  0  0
  5  7  1  0  0  0  0
  5  8  1  0  0  0  0
  8  9  1  0  0  0  0
  8 10  1  0  0  0  0
  8 11  1  0  0  0  0
 11 12  1  0  0  0  0
 11 13  1  0  0  0  0
 11 14  1  0  0  0  0
 14 15  1  0  0  0  0
 14 16  1  0  0  0  0
 14 17  1  0  0  0  0
 17 18  1  0  0  0  0
 17 19  1  0  0  0  0
 19 20  1  0  0  0  0
 19 21  1  0  0  0  0
 19 22  1  0  0  0  0
 17 23  1  0  0  0  0
 23 24  1  0  0  0  0
 23 25  1  0  0  0  0
 23 26  1  0  0  0  0
M  END
> <VConfSearch Rank>
925

> <Conf_Id>
132

> <Delta U+W>
0.363

> <U+W>
-29.936

> <U>
24.060

> <W>
-53.996

> <W(PB)>
-56.327

> <W(SA)>
2.332

> <Valence>
3.249

> <Coulomb>
19.781

> <VdW>
1.030

> <VdW6>
-7.421

> <VdW12>
8.451

> <Bond>
0.207

> <Angle>
1.205

> <Pdih>
1.837

> <Idih>
0.000

> <Tether>
0.000

$$$$
VeraChem MOL file


 26 25  0  0  0  0  0  0  0  0999 V2000     
   22.5487   20.0714   20.2576 C   0  0  0  0  0  0  0  0  0  0  0  0
   22.9408   21.0851   20.1033 H   0  0  0  0  0  0  0  0  0  0  0  0
   23.4043   19.3951   20.3830 H   0  0  0  0  0  0  0  0  0  0  0  0
   22.0100   19.7763   19.3478 H   0  0  0  0  0  0  0  0  0  0  0  0
   21.6208   20.0278   21.4902 C   0  0  0  0  0  0  0  0  0  0  0  0
   20.8032   20.7460   21.3446 H   0  0  0  0  0  0  0  0  0  0  0  0
   22.1794   20.3556   22.3780 H   0  0  0  0  0  0  0  0  0  0  0  0
   21.0519   18.6083   21.7250 C   0  0  0  0  0  0  0  0  0  0  0  0
   20.4475   18.3031   20.8596 H   0  0  0  0  0  0  0  0  0  0  0  0
   21.8867   17.8962   21.7834 H   0  0  0  0  0  0  0  0  0  0  0  0
   20.2095   18.4816   23.0183 C   0  0  0  0  0  0  0  0  0  0  0  0
   20.8223   18.7815   23.8786 H   0  0  0  0  0  0  0  0  0  0  0  0
   19.9712   17.4199   23.1620 H   0  0  0  0  0  0  0  0  0  0  0  0
   18.8954   19.3092   22.9817 C   0  0  0  0  0  0  0  0  0  0  0  0
   19.1339   20.3738   22.8700 H   0  0  0  0  0  0  0  0  0  0  0  0
   18.3162   19.0329   22.0908 H   0  0  0  0  0  0  0  0  0  0  0  0
   17.9937   19.1538   24.2294 C   0  0  1  0  0  0  0  0  0  0  0  0
   17.1403   19.8262   24.0979 H   0  0  0  0  0  0  0  0  0  0  0  0
   17.4391   17.7254   24.3719 C   0  0  0  0  0  0  0  0  0  0  0  0
   18.2294   17.0037   24.6099 H   0  0  0  0  0  0  0  0  0  0  0  0
   16.9465   17.4038   23.4459 H   0  0  0  0  0  0  0  0  0  0  0  0
   16.6945   17.6824   25.1762 H   0  0  0  0  0  0  0  0  0  0  0  0
   18.6805   19.5943   25.4928 N   0  3  0  0  0  0  0  0  0  0  0  0
   19.0115   20.5607   25.4231 H   0  0  0  0  0  0  0  0  0  0  0  0
   18.0503   19.5443   26.2983 H   0  0  0  0  0  0  0  0  0  0  0  0
   19.4905   19.0050   25.7000 H   0  0  0  0  0  0  0  0  0  0  0  0
  1  2  1  0  0  0  0
  1  3  1  0  0  0  0
  1  4  1  0  0  0  0
  1  5  1  0  0  0  0
  5  6  1  0  0  0  0
  5  7  1  0  0  0  0
  5  8  1  0  0  0  0
  8  9  1  0  0  0  0
  8 10  1  0  0  0  0
  8 11  1  0  0  0  0
 11 12  1  0  0  0  0
 11 13  1  0  0  0  0
 11 14  1  0  0  0  0
 14 15  1  0  0  0  0
 14 16  1  0  0  0  0
 14 17  1  0  0  0  0
 17 18  1  0  0  0  0
 17 19  1  0  0  0  0
 19 20  1  0  0  0  0
 19 21  1  0  0  0  0
 19 22  1  0  0  0  0
 17 23  1  0  0  0  0
 23 24  1  0  0  0  0
 23 25  1  0  0  0  0
 23 26  1  0  0  0  0
M  END
> <VConfSearch Rank>
926

> <Conf_Id>
46

> <Delta U+W>
1.114

> <U+W>
-29.185

> <U>
24.990

> <W>
-54.175

> <W(PB)>
-56.455

> <W(SA)>
2.279

> <Valence>
3.862

> <Coulomb>
19.956

> <VdW>
1.172

> <VdW6>
-8.054

> <VdW12>
9.226

> <Bond>
0.258

> <Angle>
1.499

> <Pdih>
2.106

> <Idih>
0.000

> <Tether>
0.000

$$$$
VeraChem MOL file


 26 25  0  0  0  0  0  0  0  0999 V2000     
   17.6448   17.2584   20.7026 C   0  0  0  0  0  0  0  0  0  0  0  0
   18.0905   16.4371   21.2771 H   0  0  0  0  0  0  0  0  0  0  0  0
   16.7028   17.5464   21.1869 H   0  0  0  0  0  0  0  0  0  0  0  0
   17.4037   16.8691   19.7050 H   0  0  0  0  0  0  0  0  0  0  0  0
   18.6056   18.4643   20.5942 C   0  0  0  0  0  0  0  0  0  0  0  0
   18.1687   19.2025   19.9073 H   0  0  0  0  0  0  0  0  0  0  0  0
   19.5524   18.1431   20.1379 H   0  0  0  0  0  0  0  0  0  0  0  0
   18.8853   19.1551   21.9509 C   0  0  0  0  0  0  0  0  0  0  0  0
   19.4649   20.0665   21.7548 H   0  0  0  0  0  0  0  0  0  0  0  0
   17.9362   19.4822   22.3974 H   0  0  0  0  0  0  0  0  0  0  0  0
   19.6518   18.2557   22.9539 C   0  0  0  0  0  0  0  0  0  0  0  0
   20.5872   17.9040   22.4990 H   0  0  0  0  0  0  0  0  0  0  0  0
   19.0596   17.3559   23.1649 H   0  0  0  0  0  0  0  0  0  0  0  0
   19.9485   18.9599   24.3031 C   0  0  0  0  0  0  0  0  0  0  0  0
   18.9953   19.2223   24.7811 H   0  0  0  0  0  0  0  0  0  0  0  0
   20.4424   18.2469   24.9765 H   0  0  0  0  0  0  0  0  0  0  0  0
   20.8178   20.2319   24.1818 C   0  0  1  0  0  0  0  0  0  0  0  0
   20.3015   20.9423   23.5297 H   0  0  0  0  0  0  0  0  0  0  0  0
   20.9963   20.8906   25.5589 C   0  0  0  0  0  0  0  0  0  0  0  0
   21.5791   21.8160   25.4740 H   0  0  0  0  0  0  0  0  0  0  0  0
   21.5171   20.2213   26.2551 H   0  0  0  0  0  0  0  0  0  0  0  0
   20.0237   21.1488   25.9962 H   0  0  0  0  0  0  0  0  0  0  0  0
   22.1543   19.9556   23.5492 N   0  3  0  0  0  0  0  0  0  0  0  0
   22.0466   19.5522   22.6147 H   0  0  0  0  0  0  0  0  0  0  0  0
   22.7076   20.8117   23.4529 H   0  0  0  0  0  0  0  0  0  0  0  0
   22.7027   19.2972   24.1086 H   0  0  0  0  0  0  0  0  0  0  0  0
  1  2  1  0  0  0  0
  1  3  1  0  0  0  0
  1  4  1  0  0  0  0
  1  5  1  0  0  0  0
  5  6  1  0  0  0  0
  5  7  1  0  0  0  0
  5  8  1  0  0  0  0
  8  9  1  0  0  0  0
  8 10  1  0  0  0  0
  8 11  1  0  0  0  0
 11 12  1  0  0  0  0
 11 13  1  0  0  0  0
 11 14  1  0  0  0  0
 14 15  1  0  0  0  0
 14 16  1  0  0  0  0
 14 17  1  0  0  0  0
 17 18  1  0  0  0  0
 17 19  1  0  0  0  0
 19 20  1  0  0  0  0
 19 21  1  0  0  0  0
 19 22  1  0  0  0  0
 17 23  1  0  0  0  0
 23 24  1  0  0  0  0
 23 25  1  0  0  0  0
 23 26  1  0  0  0  0
M  END
> <VConfSearch Rank>
927

> <Conf_Id>
113

> <Delta U+W>
1.137

> <U+W>
-29.162

> <U>
24.833

> <W>
-53.995

> <W(PB)>
-56.288

> <W(SA)>
2.294

> <Valence>
3.589

> <Coulomb>
20.270

> <VdW>
0.974

> <VdW6>
-8.255

> <VdW12>
9.229

> <Bond>
0.244

> <Angle>
1.377

> <Pdih>
1.967

> <Idih>
0.000

> <Tether>
0.000

$$$$
VeraChem MOL file


 26 25  0  0  0  0  0  0  0  0999 V2000     
   18.4667   18.2654   19.3518 C   0  0  0  0  0  0  0  0  0  0  0  0
   19.0046   18.4676   18.4165 H   0  0  0  0  0  0  0  0  0  0  0  0
   18.3766   17.1766   19.4602 H   0  0  0  0  0  0  0  0  0  0  0  0
   17.4564   18.6843   19.2565 H   0  0  0  0  0  0  0  0  0  0  0  0
   19.2128   18.8823   20.5539 C   0  0  0  0  0  0  0  0  0  0  0  0
   19.3130   19.9662   20.4028 H   0  0  0  0  0  0  0  0  0  0  0  0
   20.2298   18.4700   20.5908 H   0  0  0  0  0  0  0  0  0  0  0  0
   18.4749   18.6061   21.8853 C   0  0  0  0  0  0  0  0  0  0  0  0
   17.4365   18.9541   21.7961 H   0  0  0  0  0  0  0  0  0  0  0  0
   18.4221   17.5229   22.0618 H   0  0  0  0  0  0  0  0  0  0  0  0
   19.1216   19.3013   23.1086 C   0  0  0  0  0  0  0  0  0  0  0  0
   18.4652   19.1471   23.9750 H   0  0  0  0  0  0  0  0  0  0  0  0
   19.1515   20.3844   22.9306 H   0  0  0  0  0  0  0  0  0  0  0  0
   20.5453   18.7732   23.4353 C   0  0  0  0  0  0  0  0  0  0  0  0
   20.5179   17.6778   23.5030 H   0  0  0  0  0  0  0  0  0  0  0  0
   21.2260   19.0094   22.6080 H   0  0  0  0  0  0  0  0  0  0  0  0
   21.1602   19.3295   24.7414 C   0  0  1  0  0  0  0  0  0  0  0  0
   22.1488   18.8737   24.8547 H   0  0  0  0  0  0  0  0  0  0  0  0
   21.3548   20.8548   24.6840 C   0  0  0  0  0  0  0  0  0  0  0  0
   20.3954   21.3853   24.6631 H   0  0  0  0  0  0  0  0  0  0  0  0
   21.9262   21.1417   23.7926 H   0  0  0  0  0  0  0  0  0  0  0  0
   21.9115   21.2038   25.5623 H   0  0  0  0  0  0  0  0  0  0  0  0
   20.3767   18.9313   25.9621 N   0  3  0  0  0  0  0  0  0  0  0  0
   20.2792   17.9144   26.0306 H   0  0  0  0  0  0  0  0  0  0  0  0
   20.8327   19.2530   26.8206 H   0  0  0  0  0  0  0  0  0  0  0  0
   19.4354   19.3310   25.9468 H   0  0  0  0  0  0  0  0  0  0  0  0
  1  2  1  0  0  0  0
  1  3  1  0  0  0  0
  1  4  1  0  0  0  0
  1  5  1  0  0  0  0
  5  6  1  0  0  0  0
  5  7  1  0  0  0  0
  5  8  1  0  0  0  0
  8  9  1  0  0  0  0
  8 10  1  0  0  0  0
  8 11  1  0  0  0  0
 11 12  1  0  0  0  0
 11 13  1  0  0  0  0
 11 14  1  0  0  0  0
 14 15  1  0  0  0  0
 14 16  1  0  0  0  0
 14 17  1  0  0  0  0
 17 18  1  0  0  0  0
 17 19  1  0  0  0  0
 19 20  1  0  0  0  0
 19 21  1  0  0  0  0
 19 22  1  0  0  0  0
 17 23  1  0  0  0  0
 23 24  1  0  0  0  0
 23 25  1  0  0  0  0
 23 26  1  0  0  0  0
M  END
> <VConfSearch Rank>
928

> <Conf_Id>
45

> <Delta U+W>
1.035

> <U+W>
-29.264

> <U>
24.725

> <W>
-53.989

> <W(PB)>
-56.298

> <W(SA)>
2.309

> <Valence>
3.780

> <Coulomb>
19.804

> <VdW>
1.141

> <VdW6>
-8.104

> <VdW12>
9.246

> <Bond>
0.254

> <Angle>
1.437

> <Pdih>
2.089

> <Idih>
0.000

> <Tether>
0.000

$$$$
VeraChem MOL file


 26 25  0  0  0  0  0  0  0  0999 V2000     
   23.3789   17.4442   22.5307 C   0  0  0  0  0  0  0  0  0  0  0  0
   24.1386   17.4168   23.3225 H   0  0  0  0  0  0  0  0  0  0  0  0
   23.3040   16.4368   22.1009 H   0  0  0  0  0  0  0  0  0  0  0  0
   23.7341   18.1252   21.7462 H   0  0  0  0  0  0  0  0  0  0  0  0
   22.0199   17.9098   23.0952 C   0  0  0  0  0  0  0  0  0  0  0  0
   22.1458   18.9003   23.5518 H   0  0  0  0  0  0  0  0  0  0  0  0
   21.7054   17.2265   23.8964 H   0  0  0  0  0  0  0  0  0  0  0  0
   20.9333   17.9607   21.9950 C   0  0  0  0  0  0  0  0  0  0  0  0
   21.2218   18.6864   21.2222 H   0  0  0  0  0  0  0  0  0  0  0  0
   20.8868   16.9826   21.4963 H   0  0  0  0  0  0  0  0  0  0  0  0
   19.5209   18.3045   22.5295 C   0  0  0  0  0  0  0  0  0  0  0  0
   19.2331   17.5767   23.3009 H   0  0  0  0  0  0  0  0  0  0  0  0
   18.8070   18.1792   21.7048 H   0  0  0  0  0  0  0  0  0  0  0  0
   19.4073   19.7422   23.0989 C   0  0  0  0  0  0  0  0  0  0  0  0
   20.1047   19.8563   23.9379 H   0  0  0  0  0  0  0  0  0  0  0  0
   19.7121   20.4698   22.3350 H   0  0  0  0  0  0  0  0  0  0  0  0
   17.9862   20.0809   23.6000 C   0  0  1  0  0  0  0  0  0  0  0  0
   17.6912   19.3229   24.3323 H   0  0  0  0  0  0  0  0  0  0  0  0
   17.9776   21.4519   24.2953 C   0  0  0  0  0  0  0  0  0  0  0  0
   18.2674   22.2508   23.6013 H   0  0  0  0  0  0  0  0  0  0  0  0
   18.6756   21.4646   25.1417 H   0  0  0  0  0  0  0  0  0  0  0  0
   16.9787   21.6834   24.6851 H   0  0  0  0  0  0  0  0  0  0  0  0
   16.9607   20.0433   22.4998 N   0  3  0  0  0  0  0  0  0  0  0  0
   16.9197   19.1215   22.0571 H   0  0  0  0  0  0  0  0  0  0  0  0
   16.0235   20.2536   22.8546 H   0  0  0  0  0  0  0  0  0  0  0  0
   17.1720   20.7275   21.7688 H   0  0  0  0  0  0  0  0  0  0  0  0
  1  2  1  0  0  0  0
  1  3  1  0  0  0  0
  1  4  1  0  0  0  0
  1  5  1  0  0  0  0
  5  6  1  0  0  0  0
  5  7  1  0  0  0  0
  5  8  1  0  0  0  0
  8  9  1  0  0  0  0
  8 10  1  0  0  0  0
  8 11  1  0  0  0  0
 11 12  1  0  0  0  0
 11 13  1  0  0  0  0
 11 14  1  0  0  0  0
 14 15  1  0  0  0  0
 14 16  1  0  0  0  0
 14 17  1  0  0  0  0
 17 18  1  0  0  0  0
 17 19  1  0  0  0  0
 19 20  1  0  0  0  0
 19 21  1  0  0  0  0
 19 22  1  0  0  0  0
 17 23  1  0  0  0  0
 23 24  1  0  0  0  0
 23 25  1  0  0  0  0
 23 26  1  0  0  0  0
M  END
> <VConfSearch Rank>
929

> <Conf_Id>
121

> <Delta U+W>
0.736

> <U+W>
-29.562

> <U>
24.282

> <W>
-53.844

> <W(PB)>
-56.205

> <W(SA)>
2.361

> <Valence>
3.311

> <Coulomb>
19.887

> <VdW>
1.083

> <VdW6>
-7.444

> <VdW12>
8.527

> <Bond>
0.219

> <Angle>
1.167

> <Pdih>
1.926

> <Idih>
0.000

> <Tether>
0.000

$$$$
VeraChem MOL file


 26 25  0  0  0  0  0  0  0  0999 V2000     
   18.0328   16.5264   21.1212 C   0  0  0  0  0  0  0  0  0  0  0  0
   17.1033   16.0842   20.7400 H   0  0  0  0  0  0  0  0  0  0  0  0
   18.8152   16.3630   20.3687 H   0  0  0  0  0  0  0  0  0  0  0  0
   18.3092   15.9780   22.0301 H   0  0  0  0  0  0  0  0  0  0  0  0
   17.8382   18.0337   21.4027 C   0  0  0  0  0  0  0  0  0  0  0  0
   17.0757   18.1691   22.1825 H   0  0  0  0  0  0  0  0  0  0  0  0
   17.4399   18.5128   20.4974 H   0  0  0  0  0  0  0  0  0  0  0  0
   19.1425   18.7588   21.8138 C   0  0  0  0  0  0  0  0  0  0  0  0
   19.8984   18.6273   21.0273 H   0  0  0  0  0  0  0  0  0  0  0  0
   18.9312   19.8350   21.8638 H   0  0  0  0  0  0  0  0  0  0  0  0
   19.7124   18.2787   23.1727 C   0  0  0  0  0  0  0  0  0  0  0  0
   19.9377   17.2059   23.1169 H   0  0  0  0  0  0  0  0  0  0  0  0
   18.9503   18.3868   23.9556 H   0  0  0  0  0  0  0  0  0  0  0  0
   21.0113   19.0181   23.5868 C   0  0  0  0  0  0  0  0  0  0  0  0
   21.3673   18.6053   24.5401 H   0  0  0  0  0  0  0  0  0  0  0  0
   21.7902   18.7900   22.8472 H   0  0  0  0  0  0  0  0  0  0  0  0
   20.8841   20.5548   23.7143 C   0  0  1  0  0  0  0  0  0  0  0  0
   20.5413   20.9543   22.7554 H   0  0  0  0  0  0  0  0  0  0  0  0
   19.8742   20.9641   24.8012 C   0  0  0  0  0  0  0  0  0  0  0  0
   20.1449   20.5377   25.7751 H   0  0  0  0  0  0  0  0  0  0  0  0
   18.8612   20.6297   24.5488 H   0  0  0  0  0  0  0  0  0  0  0  0
   19.8392   22.0555   24.9052 H   0  0  0  0  0  0  0  0  0  0  0  0
   22.2214   21.1888   23.9795 N   0  3  0  0  0  0  0  0  0  0  0  0
   22.8981   20.9641   23.2445 H   0  0  0  0  0  0  0  0  0  0  0  0
   22.1495   22.2092   24.0249 H   0  0  0  0  0  0  0  0  0  0  0  0
   22.6166   20.8712   24.8686 H   0  0  0  0  0  0  0  0  0  0  0  0
  1  2  1  0  0  0  0
  1  3  1  0  0  0  0
  1  4  1  0  0  0  0
  1  5  1  0  0  0  0
  5  6  1  0  0  0  0
  5  7  1  0  0  0  0
  5  8  1  0  0  0  0
  8  9  1  0  0  0  0
  8 10  1  0  0  0  0
  8 11  1  0  0  0  0
 11 12  1  0  0  0  0
 11 13  1  0  0  0  0
 11 14  1  0  0  0  0
 14 15  1  0  0  0  0
 14 16  1  0  0  0  0
 14 17  1  0  0  0  0
 17 18  1  0  0  0  0
 17 19  1  0  0  0  0
 19 20  1  0  0  0  0
 19 21  1  0  0  0  0
 19 22  1  0  0  0  0
 17 23  1  0  0  0  0
 23 24  1  0  0  0  0
 23 25  1  0  0  0  0
 23 26  1  0  0  0  0
M  END
> <VConfSearch Rank>
930

> <Conf_Id>
5

> <Delta U+W>
1.233

> <U+W>
-29.065

> <U>
25.023

> <W>
-54.088

> <W(PB)>
-56.383

> <W(SA)>
2.296

> <Valence>
4.083

> <Coulomb>
19.893

> <VdW>
1.047

> <VdW6>
-8.479

> <VdW12>
9.527

> <Bond>
0.256

> <Angle>
1.716

> <Pdih>
2.112

> <Idih>
0.000

> <Tether>
0.000

$$$$
VeraChem MOL file


 26 25  0  0  0  0  0  0  0  0999 V2000     
   18.7430   22.6036   22.2643 C   0  0  0  0  0  0  0  0  0  0  0  0
   18.8918   23.6143   21.8626 H   0  0  0  0  0  0  0  0  0  0  0  0
   18.0484   22.0828   21.5939 H   0  0  0  0  0  0  0  0  0  0  0  0
   18.2652   22.7008   23.2478 H   0  0  0  0  0  0  0  0  0  0  0  0
   20.0945   21.8616   22.3736 C   0  0  0  0  0  0  0  0  0  0  0  0
   20.7933   22.4864   22.9472 H   0  0  0  0  0  0  0  0  0  0  0  0
   20.5359   21.7462   21.3737 H   0  0  0  0  0  0  0  0  0  0  0  0
   19.9873   20.4794   23.0623 C   0  0  0  0  0  0  0  0  0  0  0  0
   21.0059   20.1009   23.2176 H   0  0  0  0  0  0  0  0  0  0  0  0
   19.5410   20.6003   24.0589 H   0  0  0  0  0  0  0  0  0  0  0  0
   19.1750   19.4441   22.2449 C   0  0  0  0  0  0  0  0  0  0  0  0
   19.6437   19.3066   21.2607 H   0  0  0  0  0  0  0  0  0  0  0  0
   18.1676   19.8355   22.0541 H   0  0  0  0  0  0  0  0  0  0  0  0
   19.0273   18.0665   22.9397 C   0  0  0  0  0  0  0  0  0  0  0  0
   18.4822   18.1796   23.8864 H   0  0  0  0  0  0  0  0  0  0  0  0
   18.3849   17.4444   22.3024 H   0  0  0  0  0  0  0  0  0  0  0  0
   20.3723   17.3362   23.1731 C   0  0  1  0  0  0  0  0  0  0  0  0
   21.1257   17.7929   22.5239 H   0  0  0  0  0  0  0  0  0  0  0  0
   20.8388   17.4616   24.6350 C   0  0  0  0  0  0  0  0  0  0  0  0
   20.1361   16.9672   25.3174 H   0  0  0  0  0  0  0  0  0  0  0  0
   20.9237   18.5101   24.9415 H   0  0  0  0  0  0  0  0  0  0  0  0
   21.8235   16.9967   24.7675 H   0  0  0  0  0  0  0  0  0  0  0  0
   20.3017   15.8868   22.7767 N   0  3  0  0  0  0  0  0  0  0  0  0
   20.0391   15.7778   21.7929 H   0  0  0  0  0  0  0  0  0  0  0  0
   21.2041   15.4198   22.9040 H   0  0  0  0  0  0  0  0  0  0  0  0
   19.6131   15.3782   23.3377 H   0  0  0  0  0  0  0  0  0  0  0  0
  1  2  1  0  0  0  0
  1  3  1  0  0  0  0
  1  4  1  0  0  0  0
  1  5  1  0  0  0  0
  5  6  1  0  0  0  0
  5  7  1  0  0  0  0
  5  8  1  0  0  0  0
  8  9  1  0  0  0  0
  8 10  1  0  0  0  0
  8 11  1  0  0  0  0
 11 12  1  0  0  0  0
 11 13  1  0  0  0  0
 11 14  1  0  0  0  0
 14 15  1  0  0  0  0
 14 16  1  0  0  0  0
 14 17  1  0  0  0  0
 17 18  1  0  0  0  0
 17 19  1  0  0  0  0
 19 20  1  0  0  0  0
 19 21  1  0  0  0  0
 19 22  1  0  0  0  0
 17 23  1  0  0  0  0
 23 24  1  0  0  0  0
 23 25  1  0  0  0  0
 23 26  1  0  0  0  0
M  END
> <VConfSearch Rank>
931

> <Conf_Id>
100

> <Delta U+W>
3.818

> <U+W>
-26.481

> <U>
27.496

> <W>
-53.977

> <W(PB)>
-56.267

> <W(SA)>
2.290

> <Valence>
6.472

> <Coulomb>
19.839

> <VdW>
1.185

> <VdW6>
-8.405

> <VdW12>
9.590

> <Bond>
0.248

> <Angle>
1.619

> <Pdih>
4.604

> <Idih>
0.000

> <Tether>
0.000

$$$$
VeraChem MOL file


 26 25  0  0  0  0  0  0  0  0999 V2000     
   20.1991   15.9835   24.9665 C   0  0  0  0  0  0  0  0  0  0  0  0
   20.2924   15.6688   26.0140 H   0  0  0  0  0  0  0  0  0  0  0  0
   19.1742   15.7655   24.6392 H   0  0  0  0  0  0  0  0  0  0  0  0
   20.8866   15.3713   24.3683 H   0  0  0  0  0  0  0  0  0  0  0  0
   20.5215   17.4855   24.8180 C   0  0  0  0  0  0  0  0  0  0  0  0
   21.5394   17.6778   25.1853 H   0  0  0  0  0  0  0  0  0  0  0  0
   19.8399   18.0688   25.4528 H   0  0  0  0  0  0  0  0  0  0  0  0
   20.3981   17.9550   23.3515 C   0  0  0  0  0  0  0  0  0  0  0  0
   21.0816   17.3670   22.7234 H   0  0  0  0  0  0  0  0  0  0  0  0
   19.3841   17.7454   22.9912 H   0  0  0  0  0  0  0  0  0  0  0  0
   20.7281   19.4604   23.2009 C   0  0  0  0  0  0  0  0  0  0  0  0
   21.7578   19.6186   23.5506 H   0  0  0  0  0  0  0  0  0  0  0  0
   20.0902   20.0570   23.8658 H   0  0  0  0  0  0  0  0  0  0  0  0
   20.6272   19.9746   21.7374 C   0  0  0  0  0  0  0  0  0  0  0  0
   21.4143   20.7238   21.5807 H   0  0  0  0  0  0  0  0  0  0  0  0
   20.8607   19.1608   21.0383 H   0  0  0  0  0  0  0  0  0  0  0  0
   19.2807   20.6267   21.3357 C   0  0  1  0  0  0  0  0  0  0  0  0
   19.3680   20.9212   20.2852 H   0  0  0  0  0  0  0  0  0  0  0  0
   18.0903   19.6603   21.4458 C   0  0  0  0  0  0  0  0  0  0  0  0
   17.8643   19.4186   22.4911 H   0  0  0  0  0  0  0  0  0  0  0  0
   18.2939   18.7267   20.9069 H   0  0  0  0  0  0  0  0  0  0  0  0
   17.1914   20.1087   21.0055 H   0  0  0  0  0  0  0  0  0  0  0  0
   19.0118   21.8955   22.0980 N   0  3  0  0  0  0  0  0  0  0  0  0
   19.7743   22.5697   21.9862 H   0  0  0  0  0  0  0  0  0  0  0  0
   18.1527   22.3501   21.7759 H   0  0  0  0  0  0  0  0  0  0  0  0
   18.9059   21.7137   23.0989 H   0  0  0  0  0  0  0  0  0  0  0  0
  1  2  1  0  0  0  0
  1  3  1  0  0  0  0
  1  4  1  0  0  0  0
  1  5  1  0  0  0  0
  5  6  1  0  0  0  0
  5  7  1  0  0  0  0
  5  8  1  0  0  0  0
  8  9  1  0  0  0  0
  8 10  1  0  0  0  0
  8 11  1  0  0  0  0
 11 12  1  0  0  0  0
 11 13  1  0  0  0  0
 11 14  1  0  0  0  0
 14 15  1  0  0  0  0
 14 16  1  0  0  0  0
 14 17  1  0  0  0  0
 17 18  1  0  0  0  0
 17 19  1  0  0  0  0
 19 20  1  0  0  0  0
 19 21  1  0  0  0  0
 19 22  1  0  0  0  0
 17 23  1  0  0  0  0
 23 24  1  0  0  0  0
 23 25  1  0  0  0  0
 23 26  1  0  0  0  0
M  END
> <VConfSearch Rank>
932

> <Conf_Id>
142

> <Delta U+W>
2.978

> <U+W>
-27.320

> <U>
26.848

> <W>
-54.168

> <W(PB)>
-56.427

> <W(SA)>
2.259

> <Valence>
5.823

> <Coulomb>
20.057

> <VdW>
0.968

> <VdW6>
-8.367

> <VdW12>
9.335

> <Bond>
0.267

> <Angle>
1.799

> <Pdih>
3.758

> <Idih>
0.000

> <Tether>
0.000

$$$$
VeraChem MOL file


 26 25  0  0  0  0  0  0  0  0999 V2000     
   21.7842   21.4072   24.6989 C   0  0  0  0  0  0  0  0  0  0  0  0
   21.1982   22.2781   24.3780 H   0  0  0  0  0  0  0  0  0  0  0  0
   22.3340   21.6893   25.6062 H   0  0  0  0  0  0  0  0  0  0  0  0
   22.5257   21.1858   23.9217 H   0  0  0  0  0  0  0  0  0  0  0  0
   20.8688   20.1932   24.9781 C   0  0  0  0  0  0  0  0  0  0  0  0
   20.2383   20.4229   25.8485 H   0  0  0  0  0  0  0  0  0  0  0  0
   21.4799   19.3252   25.2626 H   0  0  0  0  0  0  0  0  0  0  0  0
   19.9514   19.8222   23.7878 C   0  0  0  0  0  0  0  0  0  0  0  0
   19.2439   19.0631   24.1411 H   0  0  0  0  0  0  0  0  0  0  0  0
   19.3591   20.6999   23.4945 H   0  0  0  0  0  0  0  0  0  0  0  0
   20.7239   19.2725   22.5621 C   0  0  0  0  0  0  0  0  0  0  0  0
   21.2628   18.3585   22.8450 H   0  0  0  0  0  0  0  0  0  0  0  0
   21.4974   19.9942   22.2712 H   0  0  0  0  0  0  0  0  0  0  0  0
   19.8462   19.0075   21.3059 C   0  0  0  0  0  0  0  0  0  0  0  0
   19.4095   19.9545   20.9628 H   0  0  0  0  0  0  0  0  0  0  0  0
   20.5144   18.6862   20.4961 H   0  0  0  0  0  0  0  0  0  0  0  0
   18.7204   17.9486   21.4264 C   0  0  1  0  0  0  0  0  0  0  0  0
   18.3813   17.7336   20.4082 H   0  0  0  0  0  0  0  0  0  0  0  0
   19.2188   16.6245   22.0313 C   0  0  0  0  0  0  0  0  0  0  0  0
   19.4919   16.7387   23.0871 H   0  0  0  0  0  0  0  0  0  0  0  0
   20.0963   16.2546   21.4866 H   0  0  0  0  0  0  0  0  0  0  0  0
   18.4391   15.8556   21.9678 H   0  0  0  0  0  0  0  0  0  0  0  0
   17.5023   18.4578   22.1472 N   0  3  0  0  0  0  0  0  0  0  0  0
   17.1276   19.2995   21.7005 H   0  0  0  0  0  0  0  0  0  0  0  0
   16.7542   17.7586   22.1556 H   0  0  0  0  0  0  0  0  0  0  0  0
   17.7148   18.6932   23.1185 H   0  0  0  0  0  0  0  0  0  0  0  0
  1  2  1  0  0  0  0
  1  3  1  0  0  0  0
  1  4  1  0  0  0  0
  1  5  1  0  0  0  0
  5  6  1  0  0  0  0
  5  7  1  0  0  0  0
  5  8  1  0  0  0  0
  8  9  1  0  0  0  0
  8 10  1  0  0  0  0
  8 11  1  0  0  0  0
 11 12  1  0  0  0  0
 11 13  1  0  0  0  0
 11 14  1  0  0  0  0
 14 15  1  0  0  0  0
 14 16  1  0  0  0  0
 14 17  1  0  0  0  0
 17 18  1  0  0  0  0
 17 19  1  0  0  0  0
 19 20  1  0  0  0  0
 19 21  1  0  0  0  0
 19 22  1  0  0  0  0
 17 23  1  0  0  0  0
 23 24  1  0  0  0  0
 23 25  1  0  0  0  0
 23 26  1  0  0  0  0
M  END
> <VConfSearch Rank>
933

> <Conf_Id>
119

> <Delta U+W>
3.538

> <U+W>
-26.761

> <U>
27.482

> <W>
-54.243

> <W(PB)>
-56.494

> <W(SA)>
2.251

> <Valence>
5.284

> <Coulomb>
21.247

> <VdW>
0.951

> <VdW6>
-9.416

> <VdW12>
10.367

> <Bond>
0.323

> <Angle>
2.522

> <Pdih>
2.439

> <Idih>
0.000

> <Tether>
0.000

$$$$
VeraChem MOL file


 26 25  0  0  0  0  0  0  0  0999 V2000     
   21.1040   16.7589   25.2534 C   0  0  0  0  0  0  0  0  0  0  0  0
   21.0798   15.8169   24.6905 H   0  0  0  0  0  0  0  0  0  0  0  0
   21.9788   17.3339   24.9254 H   0  0  0  0  0  0  0  0  0  0  0  0
   21.2497   16.5130   26.3132 H   0  0  0  0  0  0  0  0  0  0  0  0
   19.7946   17.5566   25.0586 C   0  0  0  0  0  0  0  0  0  0  0  0
   19.8565   18.5076   25.6060 H   0  0  0  0  0  0  0  0  0  0  0  0
   18.9668   16.9942   25.5129 H   0  0  0  0  0  0  0  0  0  0  0  0
   19.4535   17.8291   23.5737 C   0  0  0  0  0  0  0  0  0  0  0  0
   19.3666   16.8734   23.0387 H   0  0  0  0  0  0  0  0  0  0  0  0
   18.4609   18.2926   23.5292 H   0  0  0  0  0  0  0  0  0  0  0  0
   20.4931   18.7303   22.8588 C   0  0  0  0  0  0  0  0  0  0  0  0
   21.4478   18.1899   22.8144 H   0  0  0  0  0  0  0  0  0  0  0  0
   20.6841   19.6330   23.4530 H   0  0  0  0  0  0  0  0  0  0  0  0
   20.0882   19.1055   21.4057 C   0  0  0  0  0  0  0  0  0  0  0  0
   20.9956   19.1199   20.7876 H   0  0  0  0  0  0  0  0  0  0  0  0
   19.4597   18.3140   20.9766 H   0  0  0  0  0  0  0  0  0  0  0  0
   19.3848   20.4743   21.2284 C   0  0  1  0  0  0  0  0  0  0  0  0
   19.1590   20.5839   20.1632 H   0  0  0  0  0  0  0  0  0  0  0  0
   18.0548   20.5670   21.9939 C   0  0  0  0  0  0  0  0  0  0  0  0
   18.2148   20.5738   23.0786 H   0  0  0  0  0  0  0  0  0  0  0  0
   17.4004   19.7233   21.7424 H   0  0  0  0  0  0  0  0  0  0  0  0
   17.5238   21.4895   21.7288 H   0  0  0  0  0  0  0  0  0  0  0  0
   20.2853   21.6272   21.5791 N   0  3  0  0  0  0  0  0  0  0  0  0
   21.1520   21.6062   21.0342 H   0  0  0  0  0  0  0  0  0  0  0  0
   19.8308   22.5260   21.3951 H   0  0  0  0  0  0  0  0  0  0  0  0
   20.5435   21.6110   22.5686 H   0  0  0  0  0  0  0  0  0  0  0  0
  1  2  1  0  0  0  0
  1  3  1  0  0  0  0
  1  4  1  0  0  0  0
  1  5  1  0  0  0  0
  5  6  1  0  0  0  0
  5  7  1  0  0  0  0
  5  8  1  0  0  0  0
  8  9  1  0  0  0  0
  8 10  1  0  0  0  0
  8 11  1  0  0  0  0
 11 12  1  0  0  0  0
 11 13  1  0  0  0  0
 11 14  1  0  0  0  0
 14 15  1  0  0  0  0
 14 16  1  0  0  0  0
 14 17  1  0  0  0  0
 17 18  1  0  0  0  0
 17 19  1  0  0  0  0
 19 20  1  0  0  0  0
 19 21  1  0  0  0  0
 19 22  1  0  0  0  0
 17 23  1  0  0  0  0
 23 24  1  0  0  0  0
 23 25  1  0  0  0  0
 23 26  1  0  0  0  0
M  END
> <VConfSearch Rank>
934

> <Conf_Id>
127

> <Delta U+W>
3.544

> <U+W>
-26.754

> <U>
27.509

> <W>
-54.263

> <W(PB)>
-56.496

> <W(SA)>
2.232

> <Valence>
6.375

> <Coulomb>
20.014

> <VdW>
1.120

> <VdW6>
-8.976

> <VdW12>
10.096

> <Bond>
0.304

> <Angle>
1.986

> <Pdih>
4.086

> <Idih>
0.000

> <Tether>
0.000

$$$$
VeraChem MOL file


 26 25  0  0  0  0  0  0  0  0999 V2000     
   17.4549   17.0739   22.5654 C   0  0  0  0  0  0  0  0  0  0  0  0
   16.4250   17.0948   22.1862 H   0  0  0  0  0  0  0  0  0  0  0  0
   17.6541   16.0582   22.9309 H   0  0  0  0  0  0  0  0  0  0  0  0
   17.5074   17.7559   23.4212 H   0  0  0  0  0  0  0  0  0  0  0  0
   18.4507   17.4629   21.4478 C   0  0  0  0  0  0  0  0  0  0  0  0
   18.1974   18.4499   21.0365 H   0  0  0  0  0  0  0  0  0  0  0  0
   18.3255   16.7502   20.6205 H   0  0  0  0  0  0  0  0  0  0  0  0
   19.9317   17.4326   21.9059 C   0  0  0  0  0  0  0  0  0  0  0  0
   20.0664   16.6956   22.7095 H   0  0  0  0  0  0  0  0  0  0  0  0
   20.5409   17.0686   21.0669 H   0  0  0  0  0  0  0  0  0  0  0  0
   20.5087   18.8052   22.3390 C   0  0  0  0  0  0  0  0  0  0  0  0
   20.4623   19.4972   21.4877 H   0  0  0  0  0  0  0  0  0  0  0  0
   21.5737   18.6631   22.5624 H   0  0  0  0  0  0  0  0  0  0  0  0
   19.7971   19.4340   23.5665 C   0  0  0  0  0  0  0  0  0  0  0  0
   18.7578   19.6630   23.3019 H   0  0  0  0  0  0  0  0  0  0  0  0
   19.7540   18.6988   24.3808 H   0  0  0  0  0  0  0  0  0  0  0  0
   20.4445   20.7339   24.1006 C   0  0  1  0  0  0  0  0  0  0  0  0
   19.8040   21.1071   24.9058 H   0  0  0  0  0  0  0  0  0  0  0  0
   21.8403   20.4851   24.6990 C   0  0  0  0  0  0  0  0  0  0  0  0
   21.8065   19.6849   25.4486 H   0  0  0  0  0  0  0  0  0  0  0  0
   22.2101   21.3902   25.1963 H   0  0  0  0  0  0  0  0  0  0  0  0
   22.5698   20.2056   23.9300 H   0  0  0  0  0  0  0  0  0  0  0  0
   20.4877   21.8226   23.0638 N   0  3  0  0  0  0  0  0  0  0  0  0
   19.5548   22.0276   22.6952 H   0  0  0  0  0  0  0  0  0  0  0  0
   20.8619   22.6935   23.4510 H   0  0  0  0  0  0  0  0  0  0  0  0
   21.0806   21.5586   22.2731 H   0  0  0  0  0  0  0  0  0  0  0  0
  1  2  1  0  0  0  0
  1  3  1  0  0  0  0
  1  4  1  0  0  0  0
  1  5  1  0  0  0  0
  5  6  1  0  0  0  0
  5  7  1  0  0  0  0
  5  8  1  0  0  0  0
  8  9  1  0  0  0  0
  8 10  1  0  0  0  0
  8 11  1  0  0  0  0
 11 12  1  0  0  0  0
 11 13  1  0  0  0  0
 11 14  1  0  0  0  0
 14 15  1  0  0  0  0
 14 16  1  0  0  0  0
 14 17  1  0  0  0  0
 17 18  1  0  0  0  0
 17 19  1  0  0  0  0
 19 20  1  0  0  0  0
 19 21  1  0  0  0  0
 19 22  1  0  0  0  0
 17 23  1  0  0  0  0
 23 24  1  0  0  0  0
 23 25  1  0  0  0  0
 23 26  1  0  0  0  0
M  END
> <VConfSearch Rank>
935

> <Conf_Id>
131

> <Delta U+W>
3.589

> <U+W>
-26.710

> <U>
27.573

> <W>
-54.283

> <W(PB)>
-56.537

> <W(SA)>
2.254

> <Valence>
6.363

> <Coulomb>
20.026

> <VdW>
1.184

> <VdW6>
-8.939

> <VdW12>
10.123

> <Bond>
0.298

> <Angle>
2.018

> <Pdih>
4.047

> <Idih>
0.000

> <Tether>
0.000

$$$$
VeraChem MOL file


 26 25  0  0  0  0  0  0  0  0999 V2000     
   22.5504   18.9870   22.5049 C   0  0  0  0  0  0  0  0  0  0  0  0
   22.6354   18.7128   23.5643 H   0  0  0  0  0  0  0  0  0  0  0  0
   21.7846   18.3548   22.0391 H   0  0  0  0  0  0  0  0  0  0  0  0
   23.5067   18.7532   22.0195 H   0  0  0  0  0  0  0  0  0  0  0  0
   22.2153   20.4855   22.3417 C   0  0  0  0  0  0  0  0  0  0  0  0
   22.0651   20.7110   21.2767 H   0  0  0  0  0  0  0  0  0  0  0  0
   23.0857   21.0774   22.6577 H   0  0  0  0  0  0  0  0  0  0  0  0
   20.9808   20.9571   23.1520 C   0  0  0  0  0  0  0  0  0  0  0  0
   21.1684   20.8387   24.2280 H   0  0  0  0  0  0  0  0  0  0  0  0
   20.8728   22.0384   22.9886 H   0  0  0  0  0  0  0  0  0  0  0  0
   19.6452   20.2738   22.7574 C   0  0  0  0  0  0  0  0  0  0  0  0
   19.6751   19.9981   21.6954 H   0  0  0  0  0  0  0  0  0  0  0  0
   18.8357   21.0099   22.8589 H   0  0  0  0  0  0  0  0  0  0  0  0
   19.2949   19.0487   23.6431 C   0  0  0  0  0  0  0  0  0  0  0  0
   20.0661   18.2752   23.5575 H   0  0  0  0  0  0  0  0  0  0  0  0
   19.2979   19.3696   24.6930 H   0  0  0  0  0  0  0  0  0  0  0  0
   17.9135   18.4314   23.3274 C   0  0  1  0  0  0  0  0  0  0  0  0
   17.1642   19.2281   23.3651 H   0  0  0  0  0  0  0  0  0  0  0  0
   17.8730   17.7884   21.9292 C   0  0  0  0  0  0  0  0  0  0  0  0
   18.6513   17.0226   21.8219 H   0  0  0  0  0  0  0  0  0  0  0  0
   18.0159   18.5362   21.1409 H   0  0  0  0  0  0  0  0  0  0  0  0
   16.9010   17.3123   21.7511 H   0  0  0  0  0  0  0  0  0  0  0  0
   17.5162   17.4262   24.3728 N   0  3  0  0  0  0  0  0  0  0  0  0
   18.1694   16.6388   24.4028 H   0  0  0  0  0  0  0  0  0  0  0  0
   17.4936   17.8431   25.3078 H   0  0  0  0  0  0  0  0  0  0  0  0
   16.5847   17.0432   24.1883 H   0  0  0  0  0  0  0  0  0  0  0  0
  1  2  1  0  0  0  0
  1  3  1  0  0  0  0
  1  4  1  0  0  0  0
  1  5  1  0  0  0  0
  5  6  1  0  0  0  0
  5  7  1  0  0  0  0
  5  8  1  0  0  0  0
  8  9  1  0  0  0  0
  8 10  1  0  0  0  0
  8 11  1  0  0  0  0
 11 12  1  0  0  0  0
 11 13  1  0  0  0  0
 11 14  1  0  0  0  0
 14 15  1  0  0  0  0
 14 16  1  0  0  0  0
 14 17  1  0  0  0  0
 17 18  1  0  0  0  0
 17 19  1  0  0  0  0
 19 20  1  0  0  0  0
 19 21  1  0  0  0  0
 19 22  1  0  0  0  0
 17 23  1  0  0  0  0
 23 24  1  0  0  0  0
 23 25  1  0  0  0  0
 23 26  1  0  0  0  0
M  END
> <VConfSearch Rank>
936

> <Conf_Id>
80

> <Delta U+W>
3.351

> <U+W>
-26.948

> <U>
27.261

> <W>
-54.209

> <W(PB)>
-56.471

> <W(SA)>
2.263

> <Valence>
6.230

> <Coulomb>
19.945

> <VdW>
1.087

> <VdW6>
-8.618

> <VdW12>
9.704

> <Bond>
0.277

> <Angle>
1.928

> <Pdih>
4.025

> <Idih>
0.000

> <Tether>
0.000

$$$$
VeraChem MOL file


 26 25  0  0  0  0  0  0  0  0999 V2000     
   18.5286   16.6039   21.2624 C   0  0  0  0  0  0  0  0  0  0  0  0
   17.9315   15.7172   21.5115 H   0  0  0  0  0  0  0  0  0  0  0  0
   18.4738   16.7519   20.1761 H   0  0  0  0  0  0  0  0  0  0  0  0
   19.5702   16.3854   21.5290 H   0  0  0  0  0  0  0  0  0  0  0  0
   17.9994   17.8428   22.0195 C   0  0  0  0  0  0  0  0  0  0  0  0
   18.0896   17.6812   23.1014 H   0  0  0  0  0  0  0  0  0  0  0  0
   16.9226   17.9414   21.8236 H   0  0  0  0  0  0  0  0  0  0  0  0
   18.6946   19.1670   21.6090 C   0  0  0  0  0  0  0  0  0  0  0  0
   18.4486   19.3749   20.5586 H   0  0  0  0  0  0  0  0  0  0  0  0
   18.2466   19.9876   22.1807 H   0  0  0  0  0  0  0  0  0  0  0  0
   20.2424   19.1908   21.7574 C   0  0  0  0  0  0  0  0  0  0  0  0
   20.6300   20.1417   21.3667 H   0  0  0  0  0  0  0  0  0  0  0  0
   20.6647   18.4210   21.0982 H   0  0  0  0  0  0  0  0  0  0  0  0
   20.7892   18.9652   23.1951 C   0  0  0  0  0  0  0  0  0  0  0  0
   20.1373   18.2934   23.7645 H   0  0  0  0  0  0  0  0  0  0  0  0
   21.7452   18.4333   23.1017 H   0  0  0  0  0  0  0  0  0  0  0  0
   21.0616   20.2546   24.0069 C   0  0  1  0  0  0  0  0  0  0  0  0
   21.7665   20.8714   23.4409 H   0  0  0  0  0  0  0  0  0  0  0  0
   19.7928   21.0859   24.2582 C   0  0  0  0  0  0  0  0  0  0  0  0
   19.4213   21.5237   23.3252 H   0  0  0  0  0  0  0  0  0  0  0  0
   20.0038   21.9189   24.9400 H   0  0  0  0  0  0  0  0  0  0  0  0
   18.9970   20.4748   24.7018 H   0  0  0  0  0  0  0  0  0  0  0  0
   21.7374   19.9338   25.3115 N   0  3  0  0  0  0  0  0  0  0  0  0
   22.6119   19.4208   25.1675 H   0  0  0  0  0  0  0  0  0  0  0  0
   21.9665   20.7845   25.8331 H   0  0  0  0  0  0  0  0  0  0  0  0
   21.1391   19.3597   25.9114 H   0  0  0  0  0  0  0  0  0  0  0  0
  1  2  1  0  0  0  0
  1  3  1  0  0  0  0
  1  4  1  0  0  0  0
  1  5  1  0  0  0  0
  5  6  1  0  0  0  0
  5  7  1  0  0  0  0
  5  8  1  0  0  0  0
  8  9  1  0  0  0  0
  8 10  1  0  0  0  0
  8 11  1  0  0  0  0
 11 12  1  0  0  0  0
 11 13  1  0  0  0  0
 11 14  1  0  0  0  0
 14 15  1  0  0  0  0
 14 16  1  0  0  0  0
 14 17  1  0  0  0  0
 17 18  1  0  0  0  0
 17 19  1  0  0  0  0
 19 20  1  0  0  0  0
 19 21  1  0  0  0  0
 19 22  1  0  0  0  0
 17 23  1  0  0  0  0
 23 24  1  0  0  0  0
 23 25  1  0  0  0  0
 23 26  1  0  0  0  0
M  END
> <VConfSearch Rank>
937

> <Conf_Id>
136

> <Delta U+W>
4.272

> <U+W>
-26.026

> <U>
28.262

> <W>
-54.288

> <W(PB)>
-56.488

> <W(SA)>
2.200

> <Valence>
7.096

> <Coulomb>
19.990

> <VdW>
1.175

> <VdW6>
-9.404

> <VdW12>
10.580

> <Bond>
0.360

> <Angle>
2.785

> <Pdih>
3.951

> <Idih>
0.000

> <Tether>
0.000

$$$$
VeraChem MOL file


 26 25  0  0  0  0  0  0  0  0999 V2000     
   17.7119   20.6677   24.5120 C   0  0  0  0  0  0  0  0  0  0  0  0
   18.3279   19.8656   24.9369 H   0  0  0  0  0  0  0  0  0  0  0  0
   17.1293   21.1036   25.3338 H   0  0  0  0  0  0  0  0  0  0  0  0
   17.0056   20.2262   23.7972 H   0  0  0  0  0  0  0  0  0  0  0  0
   18.5849   21.7485   23.8375 C   0  0  0  0  0  0  0  0  0  0  0  0
   19.3172   22.1300   24.5628 H   0  0  0  0  0  0  0  0  0  0  0  0
   17.9460   22.6026   23.5729 H   0  0  0  0  0  0  0  0  0  0  0  0
   19.3206   21.2702   22.5596 C   0  0  0  0  0  0  0  0  0  0  0  0
   18.5919   20.9817   21.7896 H   0  0  0  0  0  0  0  0  0  0  0  0
   19.8605   22.1337   22.1470 H   0  0  0  0  0  0  0  0  0  0  0  0
   20.3424   20.1264   22.7905 C   0  0  0  0  0  0  0  0  0  0  0  0
   20.7382   20.1775   23.8142 H   0  0  0  0  0  0  0  0  0  0  0  0
   21.1982   20.2938   22.1231 H   0  0  0  0  0  0  0  0  0  0  0  0
   19.7602   18.7173   22.5060 C   0  0  0  0  0  0  0  0  0  0  0  0
   18.8421   18.5720   23.0862 H   0  0  0  0  0  0  0  0  0  0  0  0
   19.4704   18.6455   21.4493 H   0  0  0  0  0  0  0  0  0  0  0  0
   20.7460   17.5797   22.8501 C   0  0  1  0  0  0  0  0  0  0  0  0
   21.0391   17.6863   23.8991 H   0  0  0  0  0  0  0  0  0  0  0  0
   20.0659   16.2122   22.6763 C   0  0  0  0  0  0  0  0  0  0  0  0
   19.7521   16.0540   21.6369 H   0  0  0  0  0  0  0  0  0  0  0  0
   19.1786   16.1336   23.3168 H   0  0  0  0  0  0  0  0  0  0  0  0
   20.7494   15.4004   22.9543 H   0  0  0  0  0  0  0  0  0  0  0  0
   22.0107   17.6469   22.0381 N   0  3  0  0  0  0  0  0  0  0  0  0
   21.8171   17.5565   21.0373 H   0  0  0  0  0  0  0  0  0  0  0  0
   22.4989   18.5353   22.1790 H   0  0  0  0  0  0  0  0  0  0  0  0
   22.6598   16.8974   22.2937 H   0  0  0  0  0  0  0  0  0  0  0  0
  1  2  1  0  0  0  0
  1  3  1  0  0  0  0
  1  4  1  0  0  0  0
  1  5  1  0  0  0  0
  5  6  1  0  0  0  0
  5  7  1  0  0  0  0
  5  8  1  0  0  0  0
  8  9  1  0  0  0  0
  8 10  1  0  0  0  0
  8 11  1  0  0  0  0
 11 12  1  0  0  0  0
 11 13  1  0  0  0  0
 11 14  1  0  0  0  0
 14 15  1  0  0  0  0
 14 16  1  0  0  0  0
 14 17  1  0  0  0  0
 17 18  1  0  0  0  0
 17 19  1  0  0  0  0
 19 20  1  0  0  0  0
 19 21  1  0  0  0  0
 19 22  1  0  0  0  0
 17 23  1  0  0  0  0
 23 24  1  0  0  0  0
 23 25  1  0  0  0  0
 23 26  1  0  0  0  0
M  END
> <VConfSearch Rank>
938

> <Conf_Id>
124

> <Delta U+W>
3.001

> <U+W>
-27.298

> <U>
26.787

> <W>
-54.085

> <W(PB)>
-56.347

> <W(SA)>
2.262

> <Valence>
5.742

> <Coulomb>
20.023

> <VdW>
1.022

> <VdW6>
-8.392

> <VdW12>
9.414

> <Bond>
0.261

> <Angle>
1.576

> <Pdih>
3.904

> <Idih>
0.000

> <Tether>
0.000

$$$$
VeraChem MOL file


 26 25  0  0  0  0  0  0  0  0999 V2000     
   16.7176   19.8420   22.7423 C   0  0  0  0  0  0  0  0  0  0  0  0
   16.2396   19.4467   21.8366 H   0  0  0  0  0  0  0  0  0  0  0  0
   15.9617   20.4159   23.2938 H   0  0  0  0  0  0  0  0  0  0  0  0
   17.5022   20.5405   22.4319 H   0  0  0  0  0  0  0  0  0  0  0  0
   17.2713   18.6949   23.6195 C   0  0  0  0  0  0  0  0  0  0  0  0
   16.4259   18.0578   23.9151 H   0  0  0  0  0  0  0  0  0  0  0  0
   17.6884   19.0955   24.5539 H   0  0  0  0  0  0  0  0  0  0  0  0
   18.3214   17.8147   22.8937 C   0  0  0  0  0  0  0  0  0  0  0  0
   18.1933   16.7787   23.2368 H   0  0  0  0  0  0  0  0  0  0  0  0
   18.1202   17.7948   21.8138 H   0  0  0  0  0  0  0  0  0  0  0  0
   19.7973   18.2120   23.1550 C   0  0  0  0  0  0  0  0  0  0  0  0
   20.4388   17.4710   22.6608 H   0  0  0  0  0  0  0  0  0  0  0  0
   20.0031   18.1284   24.2304 H   0  0  0  0  0  0  0  0  0  0  0  0
   20.1697   19.6339   22.6578 C   0  0  0  0  0  0  0  0  0  0  0  0
   19.8244   19.7590   21.6233 H   0  0  0  0  0  0  0  0  0  0  0  0
   19.6321   20.3798   23.2561 H   0  0  0  0  0  0  0  0  0  0  0  0
   21.6791   19.9682   22.7161 C   0  0  1  0  0  0  0  0  0  0  0  0
   21.8000   20.9907   22.3451 H   0  0  0  0  0  0  0  0  0  0  0  0
   22.2243   19.9270   24.1544 C   0  0  0  0  0  0  0  0  0  0  0  0
   22.2181   18.9086   24.5610 H   0  0  0  0  0  0  0  0  0  0  0  0
   21.6262   20.5654   24.8164 H   0  0  0  0  0  0  0  0  0  0  0  0
   23.2578   20.2934   24.1837 H   0  0  0  0  0  0  0  0  0  0  0  0
   22.4976   19.0960   21.8039 N   0  3  0  0  0  0  0  0  0  0  0  0
   23.4833   19.3730   21.8068 H   0  0  0  0  0  0  0  0  0  0  0  0
   22.4542   18.1148   22.0892 H   0  0  0  0  0  0  0  0  0  0  0  0
   22.1676   19.1508   20.8362 H   0  0  0  0  0  0  0  0  0  0  0  0
  1  2  1  0  0  0  0
  1  3  1  0  0  0  0
  1  4  1  0  0  0  0
  1  5  1  0  0  0  0
  5  6  1  0  0  0  0
  5  7  1  0  0  0  0
  5  8  1  0  0  0  0
  8  9  1  0  0  0  0
  8 10  1  0  0  0  0
  8 11  1  0  0  0  0
 11 12  1  0  0  0  0
 11 13  1  0  0  0  0
 11 14  1  0  0  0  0
 14 15  1  0  0  0  0
 14 16  1  0  0  0  0
 14 17  1  0  0  0  0
 17 18  1  0  0  0  0
 17 19  1  0  0  0  0
 19 20  1  0  0  0  0
 19 21  1  0  0  0  0
 19 22  1  0  0  0  0
 17 23  1  0  0  0  0
 23 24  1  0  0  0  0
 23 25  1  0  0  0  0
 23 26  1  0  0  0  0
M  END
> <VConfSearch Rank>
939

> <Conf_Id>
105

> <Delta U+W>
3.442

> <U+W>
-26.857

> <U>
27.313

> <W>
-54.169

> <W(PB)>
-56.414

> <W(SA)>
2.245

> <Valence>
6.229

> <Coulomb>
19.943

> <VdW>
1.140

> <VdW6>
-9.001

> <VdW12>
10.140

> <Bond>
0.294

> <Angle>
1.969

> <Pdih>
3.967

> <Idih>
0.000

> <Tether>
0.000

$$$$
VeraChem MOL file


 26 25  0  0  0  0  0  0  0  0999 V2000     
   22.7392   19.8722   23.1844 C   0  0  0  0  0  0  0  0  0  0  0  0
   23.0419   20.8095   22.6996 H   0  0  0  0  0  0  0  0  0  0  0  0
   23.6514   19.3608   23.5179 H   0  0  0  0  0  0  0  0  0  0  0  0
   22.2632   19.2395   22.4276 H   0  0  0  0  0  0  0  0  0  0  0  0
   21.8052   20.1489   24.3856 C   0  0  0  0  0  0  0  0  0  0  0  0
   22.3620   20.7562   25.1131 H   0  0  0  0  0  0  0  0  0  0  0  0
   21.5585   19.2107   24.9018 H   0  0  0  0  0  0  0  0  0  0  0  0
   20.5099   20.9085   23.9991 C   0  0  0  0  0  0  0  0  0  0  0  0
   20.2474   21.5790   24.8292 H   0  0  0  0  0  0  0  0  0  0  0  0
   20.6964   21.5645   23.1377 H   0  0  0  0  0  0  0  0  0  0  0  0
   19.2810   20.0033   23.7258 C   0  0  0  0  0  0  0  0  0  0  0  0
   18.4128   20.6505   23.5390 H   0  0  0  0  0  0  0  0  0  0  0  0
   19.0490   19.4313   24.6341 H   0  0  0  0  0  0  0  0  0  0  0  0
   19.4551   19.0387   22.5270 C   0  0  0  0  0  0  0  0  0  0  0  0
   19.8284   19.6059   21.6640 H   0  0  0  0  0  0  0  0  0  0  0  0
   20.2117   18.2808   22.7652 H   0  0  0  0  0  0  0  0  0  0  0  0
   18.1405   18.3335   22.1294 C   0  0  1  0  0  0  0  0  0  0  0  0
   17.3918   19.1015   21.9120 H   0  0  0  0  0  0  0  0  0  0  0  0
   18.3487   17.4902   20.8613 C   0  0  0  0  0  0  0  0  0  0  0  0
   19.0918   16.7002   21.0272 H   0  0  0  0  0  0  0  0  0  0  0  0
   18.6955   18.1161   20.0296 H   0  0  0  0  0  0  0  0  0  0  0  0
   17.4092   17.0163   20.5515 H   0  0  0  0  0  0  0  0  0  0  0  0
   17.5826   17.4875   23.2413 N   0  3  0  0  0  0  0  0  0  0  0  0
   17.3993   18.0456   24.0794 H   0  0  0  0  0  0  0  0  0  0  0  0
   16.7000   17.0458   22.9687 H   0  0  0  0  0  0  0  0  0  0  0  0
   18.2310   16.7406   23.5036 H   0  0  0  0  0  0  0  0  0  0  0  0
  1  2  1  0  0  0  0
  1  3  1  0  0  0  0
  1  4  1  0  0  0  0
  1  5  1  0  0  0  0
  5  6  1  0  0  0  0
  5  7  1  0  0  0  0
  5  8  1  0  0  0  0
  8  9  1  0  0  0  0
  8 10  1  0  0  0  0
  8 11  1  0  0  0  0
 11 12  1  0  0  0  0
 11 13  1  0  0  0  0
 11 14  1  0  0  0  0
 14 15  1  0  0  0  0
 14 16  1  0  0  0  0
 14 17  1  0  0  0  0
 17 18  1  0  0  0  0
 17 19  1  0  0  0  0
 19 20  1  0  0  0  0
 19 21  1  0  0  0  0
 19 22  1  0  0  0  0
 17 23  1  0  0  0  0
 23 24  1  0  0  0  0
 23 25  1  0  0  0  0
 23 26  1  0  0  0  0
M  END
> <VConfSearch Rank>
940

> <Conf_Id>
107

> <Delta U+W>
2.995

> <U+W>
-27.304

> <U>
26.796

> <W>
-54.100

> <W(PB)>
-56.404

> <W(SA)>
2.304

> <Valence>
5.706

> <Coulomb>
20.107

> <VdW>
0.982

> <VdW6>
-8.396

> <VdW12>
9.378

> <Bond>
0.254

> <Angle>
1.644

> <Pdih>
3.808

> <Idih>
0.000

> <Tether>
0.000

$$$$
VeraChem MOL file


 26 25  0  0  0  0  0  0  0  0999 V2000     
   15.8003   19.4880   21.8681 C   0  0  0  0  0  0  0  0  0  0  0  0
   15.8492   20.5099   21.4698 H   0  0  0  0  0  0  0  0  0  0  0  0
   15.0643   18.9300   21.2747 H   0  0  0  0  0  0  0  0  0  0  0  0
   15.4307   19.5406   22.9005 H   0  0  0  0  0  0  0  0  0  0  0  0
   17.1817   18.8023   21.8076 C   0  0  0  0  0  0  0  0  0  0  0  0
   17.5092   18.7339   20.7607 H   0  0  0  0  0  0  0  0  0  0  0  0
   17.0938   17.7721   22.1802 H   0  0  0  0  0  0  0  0  0  0  0  0
   18.2373   19.5684   22.6353 C   0  0  0  0  0  0  0  0  0  0  0  0
   18.3186   20.5982   22.2609 H   0  0  0  0  0  0  0  0  0  0  0  0
   17.9048   19.6356   23.6805 H   0  0  0  0  0  0  0  0  0  0  0  0
   19.6224   18.8852   22.5767 C   0  0  0  0  0  0  0  0  0  0  0  0
   19.9553   18.8218   21.5313 H   0  0  0  0  0  0  0  0  0  0  0  0
   19.5310   17.8551   22.9461 H   0  0  0  0  0  0  0  0  0  0  0  0
   20.6776   19.6545   23.4082 C   0  0  0  0  0  0  0  0  0  0  0  0
   20.7141   20.6952   23.0595 H   0  0  0  0  0  0  0  0  0  0  0  0
   20.3686   19.6876   24.4615 H   0  0  0  0  0  0  0  0  0  0  0  0
   22.0919   19.0440   23.3008 C   0  0  1  0  0  0  0  0  0  0  0  0
   22.3667   19.0000   22.2424 H   0  0  0  0  0  0  0  0  0  0  0  0
   23.1140   19.9324   24.0279 C   0  0  0  0  0  0  0  0  0  0  0  0
   22.8839   20.0085   25.0980 H   0  0  0  0  0  0  0  0  0  0  0  0
   23.1194   20.9455   23.6068 H   0  0  0  0  0  0  0  0  0  0  0  0
   24.1269   19.5240   23.9242 H   0  0  0  0  0  0  0  0  0  0  0  0
   22.1526   17.6344   23.8230 N   0  3  0  0  0  0  0  0  0  0  0  0
   21.9034   17.5926   24.8147 H   0  0  0  0  0  0  0  0  0  0  0  0
   21.5094   17.0198   23.3170 H   0  0  0  0  0  0  0  0  0  0  0  0
   23.0924   17.2397   23.7263 H   0  0  0  0  0  0  0  0  0  0  0  0
  1  2  1  0  0  0  0
  1  3  1  0  0  0  0
  1  4  1  0  0  0  0
  1  5  1  0  0  0  0
  5  6  1  0  0  0  0
  5  7  1  0  0  0  0
  5  8  1  0  0  0  0
  8  9  1  0  0  0  0
  8 10  1  0  0  0  0
  8 11  1  0  0  0  0
 11 12  1  0  0  0  0
 11 13  1  0  0  0  0
 11 14  1  0  0  0  0
 14 15  1  0  0  0  0
 14 16  1  0  0  0  0
 14 17  1  0  0  0  0
 17 18  1  0  0  0  0
 17 19  1  0  0  0  0
 19 20  1  0  0  0  0
 19 21  1  0  0  0  0
 19 22  1  0  0  0  0
 17 23  1  0  0  0  0
 23 24  1  0  0  0  0
 23 25  1  0  0  0  0
 23 26  1  0  0  0  0
M  END
> <VConfSearch Rank>
941

> <Conf_Id>
122

> <Delta U+W>
0.000

> <U+W>
-30.299

> <U>
23.517

> <W>
-53.816

> <W(PB)>
-56.162

> <W(SA)>
2.346

> <Valence>
2.737

> <Coulomb>
19.862

> <VdW>
0.919

> <VdW6>
-6.793

> <VdW12>
7.712

> <Bond>
0.171

> <Angle>
0.873

> <Pdih>
1.693

> <Idih>
0.000

> <Tether>
0.000

$$$$
VeraChem MOL file


 26 25  0  0  0  0  0  0  0  0999 V2000     
   18.7607   23.0682   21.9060 C   0  0  0  0  0  0  0  0  0  0  0  0
   19.1924   24.0743   21.9862 H   0  0  0  0  0  0  0  0  0  0  0  0
   18.5416   22.8790   20.8470 H   0  0  0  0  0  0  0  0  0  0  0  0
   17.8115   23.0638   22.4576 H   0  0  0  0  0  0  0  0  0  0  0  0
   19.7342   22.0109   22.4686 C   0  0  0  0  0  0  0  0  0  0  0  0
   19.9606   22.2460   23.5181 H   0  0  0  0  0  0  0  0  0  0  0  0
   20.6851   22.0624   21.9199 H   0  0  0  0  0  0  0  0  0  0  0  0
   19.1502   20.5843   22.3676 C   0  0  0  0  0  0  0  0  0  0  0  0
   18.1991   20.5383   22.9160 H   0  0  0  0  0  0  0  0  0  0  0  0
   18.9228   20.3561   21.3171 H   0  0  0  0  0  0  0  0  0  0  0  0
   20.1226   19.5225   22.9299 C   0  0  0  0  0  0  0  0  0  0  0  0
   20.3494   19.7651   23.9763 H   0  0  0  0  0  0  0  0  0  0  0  0
   21.0717   19.5660   22.3779 H   0  0  0  0  0  0  0  0  0  0  0  0
   19.5325   18.0941   22.8313 C   0  0  0  0  0  0  0  0  0  0  0  0
   18.6178   18.0287   23.4353 H   0  0  0  0  0  0  0  0  0  0  0  0
   19.2321   17.9114   21.7911 H   0  0  0  0  0  0  0  0  0  0  0  0
   20.5180   16.9819   23.2577 C   0  0  1  0  0  0  0  0  0  0  0  0
   21.4358   17.0938   22.6722 H   0  0  0  0  0  0  0  0  0  0  0  0
   20.8795   17.0678   24.7515 C   0  0  0  0  0  0  0  0  0  0  0  0
   19.9816   17.0243   25.3804 H   0  0  0  0  0  0  0  0  0  0  0  0
   21.4150   17.9965   24.9798 H   0  0  0  0  0  0  0  0  0  0  0  0
   21.5359   16.2370   25.0383 H   0  0  0  0  0  0  0  0  0  0  0  0
   19.9714   15.6194   22.9324 N   0  3  0  0  0  0  0  0  0  0  0  0
   19.1058   15.4309   23.4449 H   0  0  0  0  0  0  0  0  0  0  0  0
   19.7647   15.5240   21.9340 H   0  0  0  0  0  0  0  0  0  0  0  0
   20.6376   14.8810   23.1765 H   0  0  0  0  0  0  0  0  0  0  0  0
  1  2  1  0  0  0  0
  1  3  1  0  0  0  0
  1  4  1  0  0  0  0
  1  5  1  0  0  0  0
  5  6  1  0  0  0  0
  5  7  1  0  0  0  0
  5  8  1  0  0  0  0
  8  9  1  0  0  0  0
  8 10  1  0  0  0  0
  8 11  1  0  0  0  0
 11 12  1  0  0  0  0
 11 13  1  0  0  0  0
 11 14  1  0  0  0  0
 14 15  1  0  0  0  0
 14 16  1  0  0  0  0
 14 17  1  0  0  0  0
 17 18  1  0  0  0  0
 17 19  1  0  0  0  0
 19 20  1  0  0  0  0
 19 21  1  0  0  0  0
 19 22  1  0  0  0  0
 17 23  1  0  0  0  0
 23 24  1  0  0  0  0
 23 25  1  0  0  0  0
 23 26  1  0  0  0  0
M  END
> <VConfSearch Rank>
942

> <Conf_Id>
54

> <Delta U+W>
0.453

> <U+W>
-29.845

> <U>
23.817

> <W>
-53.663

> <W(PB)>
-56.021

> <W(SA)>
2.358

> <Valence>
3.277

> <Coulomb>
19.492

> <VdW>
1.049

> <VdW6>
-6.949

> <VdW12>
7.998

> <Bond>
0.183

> <Angle>
1.152

> <Pdih>
1.942

> <Idih>
0.000

> <Tether>
0.000

$$$$
VeraChem MOL file


 26 25  0  0  0  0  0  0  0  0999 V2000     
   23.4314   18.7208   22.4312 C   0  0  0  0  0  0  0  0  0  0  0  0
   23.6206   19.6860   22.9187 H   0  0  0  0  0  0  0  0  0  0  0  0
   23.3073   17.9599   23.2112 H   0  0  0  0  0  0  0  0  0  0  0  0
   24.3267   18.4560   21.8539 H   0  0  0  0  0  0  0  0  0  0  0  0
   22.1958   18.7982   21.5054 C   0  0  0  0  0  0  0  0  0  0  0  0
   22.0060   17.8133   21.0561 H   0  0  0  0  0  0  0  0  0  0  0  0
   22.4254   19.4764   20.6716 H   0  0  0  0  0  0  0  0  0  0  0  0
   20.9185   19.3059   22.2177 C   0  0  0  0  0  0  0  0  0  0  0  0
   21.1246   20.2764   22.6898 H   0  0  0  0  0  0  0  0  0  0  0  0
   20.1589   19.4786   21.4461 H   0  0  0  0  0  0  0  0  0  0  0  0
   20.3629   18.3122   23.2689 C   0  0  0  0  0  0  0  0  0  0  0  0
   21.1627   18.0391   23.9686 H   0  0  0  0  0  0  0  0  0  0  0  0
   20.0650   17.3804   22.7685 H   0  0  0  0  0  0  0  0  0  0  0  0
   19.1739   18.8490   24.1092 C   0  0  0  0  0  0  0  0  0  0  0  0
   18.9530   18.0911   24.8727 H   0  0  0  0  0  0  0  0  0  0  0  0
   19.4762   19.7488   24.6611 H   0  0  0  0  0  0  0  0  0  0  0  0
   17.8823   19.1317   23.3053 C   0  0  1  0  0  0  0  0  0  0  0  0
   17.7740   18.3558   22.5412 H   0  0  0  0  0  0  0  0  0  0  0  0
   16.6532   19.0731   24.2277 C   0  0  0  0  0  0  0  0  0  0  0  0
   15.7324   19.2578   23.6607 H   0  0  0  0  0  0  0  0  0  0  0  0
   16.7199   19.8231   25.0259 H   0  0  0  0  0  0  0  0  0  0  0  0
   16.5612   18.0843   24.6941 H   0  0  0  0  0  0  0  0  0  0  0  0
   17.9165   20.4565   22.5928 N   0  3  0  0  0  0  0  0  0  0  0  0
   18.7194   20.5239   21.9637 H   0  0  0  0  0  0  0  0  0  0  0  0
   17.0718   20.6014   22.0323 H   0  0  0  0  0  0  0  0  0  0  0  0
   17.9795   21.2334   23.2561 H   0  0  0  0  0  0  0  0  0  0  0  0
  1  2  1  0  0  0  0
  1  3  1  0  0  0  0
  1  4  1  0  0  0  0
  1  5  1  0  0  0  0
  5  6  1  0  0  0  0
  5  7  1  0  0  0  0
  5  8  1  0  0  0  0
  8  9  1  0  0  0  0
  8 10  1  0  0  0  0
  8 11  1  0  0  0  0
 11 12  1  0  0  0  0
 11 13  1  0  0  0  0
 11 14  1  0  0  0  0
 14 15  1  0  0  0  0
 14 16  1  0  0  0  0
 14 17  1  0  0  0  0
 17 18  1  0  0  0  0
 17 19  1  0  0  0  0
 19 20  1  0  0  0  0
 19 21  1  0  0  0  0
 19 22  1  0  0  0  0
 17 23  1  0  0  0  0
 23 24  1  0  0  0  0
 23 25  1  0  0  0  0
 23 26  1  0  0  0  0
M  END
> <VConfSearch Rank>
943

> <Conf_Id>
110

> <Delta U+W>
3.764

> <U+W>
-26.535

> <U>
27.400

> <W>
-53.935

> <W(PB)>
-56.238

> <W(SA)>
2.303

> <Valence>
5.205

> <Coulomb>
21.096

> <VdW>
1.098

> <VdW6>
-8.389

> <VdW12>
9.488

> <Bond>
0.270

> <Angle>
1.912

> <Pdih>
3.023

> <Idih>
0.000

> <Tether>
0.000

$$$$
VeraChem MOL file


 26 25  0  0  0  0  0  0  0  0999 V2000     
   22.8263   21.2818   22.9627 C   0  0  0  0  0  0  0  0  0  0  0  0
   23.8233   21.5021   23.3657 H   0  0  0  0  0  0  0  0  0  0  0  0
   22.9626   20.6688   22.0632 H   0  0  0  0  0  0  0  0  0  0  0  0
   22.3669   22.2333   22.6650 H   0  0  0  0  0  0  0  0  0  0  0  0
   21.9643   20.5550   24.0197 C   0  0  0  0  0  0  0  0  0  0  0  0
   21.9584   21.1515   24.9428 H   0  0  0  0  0  0  0  0  0  0  0  0
   22.4297   19.5937   24.2782 H   0  0  0  0  0  0  0  0  0  0  0  0
   20.5019   20.3234   23.5688 C   0  0  0  0  0  0  0  0  0  0  0  0
   19.9411   19.9108   24.4160 H   0  0  0  0  0  0  0  0  0  0  0  0
   20.0342   21.2905   23.3385 H   0  0  0  0  0  0  0  0  0  0  0  0
   20.3781   19.3839   22.3414 C   0  0  0  0  0  0  0  0  0  0  0  0
   20.9564   18.4635   22.5016 H   0  0  0  0  0  0  0  0  0  0  0  0
   20.8331   19.8817   21.4749 H   0  0  0  0  0  0  0  0  0  0  0  0
   18.9095   19.0348   21.9814 C   0  0  0  0  0  0  0  0  0  0  0  0
   18.2352   19.8362   22.3112 H   0  0  0  0  0  0  0  0  0  0  0  0
   18.8301   19.0096   20.8865 H   0  0  0  0  0  0  0  0  0  0  0  0
   18.4177   17.6674   22.5147 C   0  0  1  0  0  0  0  0  0  0  0  0
   19.0865   16.8919   22.1288 H   0  0  0  0  0  0  0  0  0  0  0  0
   18.4270   17.5866   24.0507 C   0  0  0  0  0  0  0  0  0  0  0  0
   17.8364   18.3973   24.4952 H   0  0  0  0  0  0  0  0  0  0  0  0
   19.4495   17.6444   24.4417 H   0  0  0  0  0  0  0  0  0  0  0  0
   18.0055   16.6326   24.3904 H   0  0  0  0  0  0  0  0  0  0  0  0
   17.0479   17.3437   21.9860 N   0  3  0  0  0  0  0  0  0  0  0  0
   17.0287   17.3431   20.9622 H   0  0  0  0  0  0  0  0  0  0  0  0
   16.7360   16.4191   22.2964 H   0  0  0  0  0  0  0  0  0  0  0  0
   16.3529   18.0234   22.3061 H   0  0  0  0  0  0  0  0  0  0  0  0
  1  2  1  0  0  0  0
  1  3  1  0  0  0  0
  1  4  1  0  0  0  0
  1  5  1  0  0  0  0
  5  6  1  0  0  0  0
  5  7  1  0  0  0  0
  5  8  1  0  0  0  0
  8  9  1  0  0  0  0
  8 10  1  0  0  0  0
  8 11  1  0  0  0  0
 11 12  1  0  0  0  0
 11 13  1  0  0  0  0
 11 14  1  0  0  0  0
 14 15  1  0  0  0  0
 14 16  1  0  0  0  0
 14 17  1  0  0  0  0
 17 18  1  0  0  0  0
 17 19  1  0  0  0  0
 19 20  1  0  0  0  0
 19 21  1  0  0  0  0
 19 22  1  0  0  0  0
 17 23  1  0  0  0  0
 23 24  1  0  0  0  0
 23 25  1  0  0  0  0
 23 26  1  0  0  0  0
M  END
> <VConfSearch Rank>
944

> <Conf_Id>
34

> <Delta U+W>
3.568

> <U+W>
-26.731

> <U>
27.221

> <W>
-53.952

> <W(PB)>
-56.213

> <W(SA)>
2.261

> <Valence>
6.368

> <Coulomb>
19.698

> <VdW>
1.155

> <VdW6>
-8.532

> <VdW12>
9.687

> <Bond>
0.272

> <Angle>
1.847

> <Pdih>
4.248

> <Idih>
0.000

> <Tether>
0.000

$$$$
VeraChem MOL file


 26 25  0  0  0  0  0  0  0  0999 V2000     
   22.8534   21.7520   22.2186 C   0  0  0  0  0  0  0  0  0  0  0  0
   22.9716   21.5769   21.1413 H   0  0  0  0  0  0  0  0  0  0  0  0
   22.2815   22.6793   22.3535 H   0  0  0  0  0  0  0  0  0  0  0  0
   23.8524   21.9069   22.6464 H   0  0  0  0  0  0  0  0  0  0  0  0
   22.1474   20.5607   22.9000 C   0  0  0  0  0  0  0  0  0  0  0  0
   22.0742   20.7498   23.9802 H   0  0  0  0  0  0  0  0  0  0  0  0
   22.7591   19.6559   22.7773 H   0  0  0  0  0  0  0  0  0  0  0  0
   20.7376   20.3207   22.3157 C   0  0  0  0  0  0  0  0  0  0  0  0
   20.1314   21.2289   22.4386 H   0  0  0  0  0  0  0  0  0  0  0  0
   20.8160   20.1349   21.2355 H   0  0  0  0  0  0  0  0  0  0  0  0
   20.0272   19.1282   22.9953 C   0  0  0  0  0  0  0  0  0  0  0  0
   19.9541   19.3199   24.0739 H   0  0  0  0  0  0  0  0  0  0  0  0
   20.6430   18.2278   22.8708 H   0  0  0  0  0  0  0  0  0  0  0  0
   18.6139   18.8911   22.4019 C   0  0  0  0  0  0  0  0  0  0  0  0
   18.0268   19.8148   22.4890 H   0  0  0  0  0  0  0  0  0  0  0  0
   18.7013   18.6894   21.3261 H   0  0  0  0  0  0  0  0  0  0  0  0
   17.8151   17.7410   23.0597 C   0  0  1  0  0  0  0  0  0  0  0  0
   16.8366   17.7042   22.5708 H   0  0  0  0  0  0  0  0  0  0  0  0
   18.4903   16.3741   22.8511 C   0  0  0  0  0  0  0  0  0  0  0  0
   19.4385   16.3020   23.3969 H   0  0  0  0  0  0  0  0  0  0  0  0
   18.6911   16.1966   21.7872 H   0  0  0  0  0  0  0  0  0  0  0  0
   17.8381   15.5664   23.2053 H   0  0  0  0  0  0  0  0  0  0  0  0
   17.5431   17.9908   24.5177 N   0  3  0  0  0  0  0  0  0  0  0  0
   16.9605   17.2520   24.9216 H   0  0  0  0  0  0  0  0  0  0  0  0
   18.4114   18.0260   25.0573 H   0  0  0  0  0  0  0  0  0  0  0  0
   17.0539   18.8788   24.6618 H   0  0  0  0  0  0  0  0  0  0  0  0
  1  2  1  0  0  0  0
  1  3  1  0  0  0  0
  1  4  1  0  0  0  0
  1  5  1  0  0  0  0
  5  6  1  0  0  0  0
  5  7  1  0  0  0  0
  5  8  1  0  0  0  0
  8  9  1  0  0  0  0
  8 10  1  0  0  0  0
  8 11  1  0  0  0  0
 11 12  1  0  0  0  0
 11 13  1  0  0  0  0
 11 14  1  0  0  0  0
 14 15  1  0  0  0  0
 14 16  1  0  0  0  0
 14 17  1  0  0  0  0
 17 18  1  0  0  0  0
 17 19  1  0  0  0  0
 19 20  1  0  0  0  0
 19 21  1  0  0  0  0
 19 22  1  0  0  0  0
 17 23  1  0  0  0  0
 23 24  1  0  0  0  0
 23 25  1  0  0  0  0
 23 26  1  0  0  0  0
M  END
> <VConfSearch Rank>
945

> <Conf_Id>
132

> <Delta U+W>
0.363

> <U+W>
-29.936

> <U>
24.060

> <W>
-53.996

> <W(PB)>
-56.327

> <W(SA)>
2.332

> <Valence>
3.249

> <Coulomb>
19.781

> <VdW>
1.030

> <VdW6>
-7.421

> <VdW12>
8.451

> <Bond>
0.207

> <Angle>
1.205

> <Pdih>
1.837

> <Idih>
0.000

> <Tether>
0.000

$$$$
VeraChem MOL file


 26 25  0  0  0  0  0  0  0  0999 V2000     
   21.1384   22.8279   22.7987 C   0  0  0  0  0  0  0  0  0  0  0  0
   21.7036   23.3194   23.6012 H   0  0  0  0  0  0  0  0  0  0  0  0
   21.7003   22.9555   21.8643 H   0  0  0  0  0  0  0  0  0  0  0  0
   20.1781   23.3497   22.6943 H   0  0  0  0  0  0  0  0  0  0  0  0
   20.9250   21.3331   23.1190 C   0  0  0  0  0  0  0  0  0  0  0  0
   20.3981   21.2473   24.0783 H   0  0  0  0  0  0  0  0  0  0  0  0
   21.9015   20.8453   23.2462 H   0  0  0  0  0  0  0  0  0  0  0  0
   20.1258   20.6198   22.0027 C   0  0  0  0  0  0  0  0  0  0  0  0
   19.1286   21.0725   21.9134 H   0  0  0  0  0  0  0  0  0  0  0  0
   20.6284   20.7913   21.0408 H   0  0  0  0  0  0  0  0  0  0  0  0
   19.9863   19.0923   22.2162 C   0  0  0  0  0  0  0  0  0  0  0  0
   20.9865   18.6467   22.2975 H   0  0  0  0  0  0  0  0  0  0  0  0
   19.5293   18.6667   21.3136 H   0  0  0  0  0  0  0  0  0  0  0  0
   19.1308   18.7189   23.4579 C   0  0  0  0  0  0  0  0  0  0  0  0
   19.6036   19.1168   24.3639 H   0  0  0  0  0  0  0  0  0  0  0  0
   18.1515   19.2103   23.3860 H   0  0  0  0  0  0  0  0  0  0  0  0
   18.9120   17.2012   23.6647 C   0  0  1  0  0  0  0  0  0  0  0  0
   18.3478   17.0792   24.5946 H   0  0  0  0  0  0  0  0  0  0  0  0
   18.0790   16.5741   22.5328 C   0  0  0  0  0  0  0  0  0  0  0  0
   18.6250   16.5658   21.5822 H   0  0  0  0  0  0  0  0  0  0  0  0
   17.1416   17.1250   22.3869 H   0  0  0  0  0  0  0  0  0  0  0  0
   17.8198   15.5369   22.7780 H   0  0  0  0  0  0  0  0  0  0  0  0
   20.2038   16.4562   23.8603 N   0  3  0  0  0  0  0  0  0  0  0  0
   20.7429   16.8381   24.6425 H   0  0  0  0  0  0  0  0  0  0  0  0
   20.0380   15.4653   24.0580 H   0  0  0  0  0  0  0  0  0  0  0  0
   20.7925   16.5082   23.0254 H   0  0  0  0  0  0  0  0  0  0  0  0
  1  2  1  0  0  0  0
  1  3  1  0  0  0  0
  1  4  1  0  0  0  0
  1  5  1  0  0  0  0
  5  6  1  0  0  0  0
  5  7  1  0  0  0  0
  5  8  1  0  0  0  0
  8  9  1  0  0  0  0
  8 10  1  0  0  0  0
  8 11  1  0  0  0  0
 11 12  1  0  0  0  0
 11 13  1  0  0  0  0
 11 14  1  0  0  0  0
 14 15  1  0  0  0  0
 14 16  1  0  0  0  0
 14 17  1  0  0  0  0
 17 18  1  0  0  0  0
 17 19  1  0  0  0  0
 19 20  1  0  0  0  0
 19 21  1  0  0  0  0
 19 22  1  0  0  0  0
 17 23  1  0  0  0  0
 23 24  1  0  0  0  0
 23 25  1  0  0  0  0
 23 26  1  0  0  0  0
M  END
> <VConfSearch Rank>
946

> <Conf_Id>
46

> <Delta U+W>
1.114

> <U+W>
-29.185

> <U>
24.990

> <W>
-54.175

> <W(PB)>
-56.455

> <W(SA)>
2.279

> <Valence>
3.862

> <Coulomb>
19.956

> <VdW>
1.172

> <VdW6>
-8.054

> <VdW12>
9.226

> <Bond>
0.258

> <Angle>
1.499

> <Pdih>
2.106

> <Idih>
0.000

> <Tether>
0.000

$$$$
VeraChem MOL file


 26 25  0  0  0  0  0  0  0  0999 V2000     
   23.1238   20.6375   23.6313 C   0  0  0  0  0  0  0  0  0  0  0  0
   23.4153   19.7953   22.9917 H   0  0  0  0  0  0  0  0  0  0  0  0
   22.9821   21.5207   22.9950 H   0  0  0  0  0  0  0  0  0  0  0  0
   23.9634   20.8427   24.3080 H   0  0  0  0  0  0  0  0  0  0  0  0
   21.8438   20.3227   24.4386 C   0  0  0  0  0  0  0  0  0  0  0  0
   21.6679   21.1392   25.1530 H   0  0  0  0  0  0  0  0  0  0  0  0
   21.9996   19.4165   25.0405 H   0  0  0  0  0  0  0  0  0  0  0  0
   20.5827   20.1561   23.5567 C   0  0  0  0  0  0  0  0  0  0  0  0
   19.7132   20.0666   24.2210 H   0  0  0  0  0  0  0  0  0  0  0  0
   20.4269   21.0685   22.9648 H   0  0  0  0  0  0  0  0  0  0  0  0
   20.6475   18.9270   22.6147 C   0  0  0  0  0  0  0  0  0  0  0  0
   20.8320   18.0174   23.2014 H   0  0  0  0  0  0  0  0  0  0  0  0
   21.5049   19.0303   21.9370 H   0  0  0  0  0  0  0  0  0  0  0  0
   19.3728   18.7522   21.7494 C   0  0  0  0  0  0  0  0  0  0  0  0
   19.2590   19.6353   21.1065 H   0  0  0  0  0  0  0  0  0  0  0  0
   19.5146   17.8982   21.0737 H   0  0  0  0  0  0  0  0  0  0  0  0
   18.0732   18.5493   22.5607 C   0  0  1  0  0  0  0  0  0  0  0  0
   17.9317   19.4186   23.2094 H   0  0  0  0  0  0  0  0  0  0  0  0
   16.8634   18.4554   21.6175 C   0  0  0  0  0  0  0  0  0  0  0  0
   15.9328   18.3512   22.1889 H   0  0  0  0  0  0  0  0  0  0  0  0
   16.9499   17.5928   20.9449 H   0  0  0  0  0  0  0  0  0  0  0  0
   16.7772   19.3603   21.0032 H   0  0  0  0  0  0  0  0  0  0  0  0
   18.1396   17.3447   23.4592 N   0  3  0  0  0  0  0  0  0  0  0  0
   18.9197   17.4154   24.1181 H   0  0  0  0  0  0  0  0  0  0  0  0
   17.2818   17.2386   24.0081 H   0  0  0  0  0  0  0  0  0  0  0  0
   18.2674   16.4841   22.9204 H   0  0  0  0  0  0  0  0  0  0  0  0
  1  2  1  0  0  0  0
  1  3  1  0  0  0  0
  1  4  1  0  0  0  0
  1  5  1  0  0  0  0
  5  6  1  0  0  0  0
  5  7  1  0  0  0  0
  5  8  1  0  0  0  0
  8  9  1  0  0  0  0
  8 10  1  0  0  0  0
  8 11  1  0  0  0  0
 11 12  1  0  0  0  0
 11 13  1  0  0  0  0
 11 14  1  0  0  0  0
 14 15  1  0  0  0  0
 14 16  1  0  0  0  0
 14 17  1  0  0  0  0
 17 18  1  0  0  0  0
 17 19  1  0  0  0  0
 19 20  1  0  0  0  0
 19 21  1  0  0  0  0
 19 22  1  0  0  0  0
 17 23  1  0  0  0  0
 23 24  1  0  0  0  0
 23 25  1  0  0  0  0
 23 26  1  0  0  0  0
M  END
> <VConfSearch Rank>
947

> <Conf_Id>
113

> <Delta U+W>
1.137

> <U+W>
-29.162

> <U>
24.833

> <W>
-53.995

> <W(PB)>
-56.288

> <W(SA)>
2.294

> <Valence>
3.589

> <Coulomb>
20.270

> <VdW>
0.974

> <VdW6>
-8.255

> <VdW12>
9.229

> <Bond>
0.244

> <Angle>
1.377

> <Pdih>
1.967

> <Idih>
0.000

> <Tether>
0.000

$$$$
VeraChem MOL file


 26 25  0  0  0  0  0  0  0  0999 V2000     
   23.5471   19.4539   21.7439 C   0  0  0  0  0  0  0  0  0  0  0  0
   24.0005   20.3739   21.3524 H   0  0  0  0  0  0  0  0  0  0  0  0
   24.0524   19.2036   22.6859 H   0  0  0  0  0  0  0  0  0  0  0  0
   23.7455   18.6485   21.0248 H   0  0  0  0  0  0  0  0  0  0  0  0
   22.0309   19.6435   21.9615 C   0  0  0  0  0  0  0  0  0  0  0  0
   21.5584   19.9215   21.0090 H   0  0  0  0  0  0  0  0  0  0  0  0
   21.8729   20.4820   22.6526 H   0  0  0  0  0  0  0  0  0  0  0  0
   21.3701   18.3600   22.5177 C   0  0  0  0  0  0  0  0  0  0  0  0
   21.6096   17.5189   21.8525 H   0  0  0  0  0  0  0  0  0  0  0  0
   21.8062   18.1126   23.4954 H   0  0  0  0  0  0  0  0  0  0  0  0
   19.8301   18.4607   22.6457 C   0  0  0  0  0  0  0  0  0  0  0  0
   19.4461   17.4722   22.9296 H   0  0  0  0  0  0  0  0  0  0  0  0
   19.4029   18.6884   21.6602 H   0  0  0  0  0  0  0  0  0  0  0  0
   19.3668   19.5163   23.6867 C   0  0  0  0  0  0  0  0  0  0  0  0
   19.8864   19.3390   24.6374 H   0  0  0  0  0  0  0  0  0  0  0  0
   19.6696   20.5180   23.3572 H   0  0  0  0  0  0  0  0  0  0  0  0
   17.8437   19.5361   23.9573 C   0  0  1  0  0  0  0  0  0  0  0  0
   17.6573   20.3101   24.7084 H   0  0  0  0  0  0  0  0  0  0  0  0
   17.0384   19.9049   22.6991 C   0  0  0  0  0  0  0  0  0  0  0  0
   17.1036   19.1235   21.9327 H   0  0  0  0  0  0  0  0  0  0  0  0
   17.4024   20.8443   22.2648 H   0  0  0  0  0  0  0  0  0  0  0  0
   15.9791   20.0423   22.9483 H   0  0  0  0  0  0  0  0  0  0  0  0
   17.3484   18.2483   24.5563 N   0  3  0  0  0  0  0  0  0  0  0  0
   17.8506   18.0172   25.4182 H   0  0  0  0  0  0  0  0  0  0  0  0
   16.3525   18.3022   24.7881 H   0  0  0  0  0  0  0  0  0  0  0  0
   17.4704   17.4656   23.9092 H   0  0  0  0  0  0  0  0  0  0  0  0
  1  2  1  0  0  0  0
  1  3  1  0  0  0  0
  1  4  1  0  0  0  0
  1  5  1  0  0  0  0
  5  6  1  0  0  0  0
  5  7  1  0  0  0  0
  5  8  1  0  0  0  0
  8  9  1  0  0  0  0
  8 10  1  0  0  0  0
  8 11  1  0  0  0  0
 11 12  1  0  0  0  0
 11 13  1  0  0  0  0
 11 14  1  0  0  0  0
 14 15  1  0  0  0  0
 14 16  1  0  0  0  0
 14 17  1  0  0  0  0
 17 18  1  0  0  0  0
 17 19  1  0  0  0  0
 19 20  1  0  0  0  0
 19 21  1  0  0  0  0
 19 22  1  0  0  0  0
 17 23  1  0  0  0  0
 23 24  1  0  0  0  0
 23 25  1  0  0  0  0
 23 26  1  0  0  0  0
M  END
> <VConfSearch Rank>
948

> <Conf_Id>
45

> <Delta U+W>
1.035

> <U+W>
-29.264

> <U>
24.725

> <W>
-53.989

> <W(PB)>
-56.298

> <W(SA)>
2.309

> <Valence>
3.780

> <Coulomb>
19.804

> <VdW>
1.141

> <VdW6>
-8.104

> <VdW12>
9.246

> <Bond>
0.254

> <Angle>
1.437

> <Pdih>
2.089

> <Idih>
0.000

> <Tether>
0.000

$$$$
VeraChem MOL file


 26 25  0  0  0  0  0  0  0  0999 V2000     
   18.7938   15.3821   23.7816 C   0  0  0  0  0  0  0  0  0  0  0  0
   19.5178   14.5961   24.0327 H   0  0  0  0  0  0  0  0  0  0  0  0
   17.9761   15.3325   24.5125 H   0  0  0  0  0  0  0  0  0  0  0  0
   18.3805   15.1555   22.7901 H   0  0  0  0  0  0  0  0  0  0  0  0
   19.4690   16.7700   23.7967 C   0  0  0  0  0  0  0  0  0  0  0  0
   20.3050   16.7656   23.0850 H   0  0  0  0  0  0  0  0  0  0  0  0
   19.8975   16.9554   24.7916 H   0  0  0  0  0  0  0  0  0  0  0  0
   18.4677   17.8945   23.4408 C   0  0  0  0  0  0  0  0  0  0  0  0
   18.0823   17.7396   22.4236 H   0  0  0  0  0  0  0  0  0  0  0  0
   17.6008   17.8236   24.1122 H   0  0  0  0  0  0  0  0  0  0  0  0
   19.0628   19.3194   23.5598 C   0  0  0  0  0  0  0  0  0  0  0  0
   19.4461   19.4733   24.5781 H   0  0  0  0  0  0  0  0  0  0  0  0
   18.2456   20.0400   23.4251 H   0  0  0  0  0  0  0  0  0  0  0  0
   20.1847   19.6100   22.5295 C   0  0  0  0  0  0  0  0  0  0  0  0
   21.0097   18.9035   22.6827 H   0  0  0  0  0  0  0  0  0  0  0  0
   19.8085   19.4389   21.5121 H   0  0  0  0  0  0  0  0  0  0  0  0
   20.7472   21.0441   22.6402 C   0  0  1  0  0  0  0  0  0  0  0  0
   21.0820   21.2024   23.6700 H   0  0  0  0  0  0  0  0  0  0  0  0
   21.9572   21.2166   21.7080 C   0  0  0  0  0  0  0  0  0  0  0  0
   21.6743   21.0676   20.6584 H   0  0  0  0  0  0  0  0  0  0  0  0
   22.7461   20.4952   21.9549 H   0  0  0  0  0  0  0  0  0  0  0  0
   22.3839   22.2223   21.8075 H   0  0  0  0  0  0  0  0  0  0  0  0
   19.7099   22.0959   22.3549 N   0  3  0  0  0  0  0  0  0  0  0  0
   18.9176   22.0252   22.9988 H   0  0  0  0  0  0  0  0  0  0  0  0
   20.0974   23.0389   22.4498 H   0  0  0  0  0  0  0  0  0  0  0  0
   19.3429   22.0100   21.4035 H   0  0  0  0  0  0  0  0  0  0  0  0
  1  2  1  0  0  0  0
  1  3  1  0  0  0  0
  1  4  1  0  0  0  0
  1  5  1  0  0  0  0
  5  6  1  0  0  0  0
  5  7  1  0  0  0  0
  5  8  1  0  0  0  0
  8  9  1  0  0  0  0
  8 10  1  0  0  0  0
  8 11  1  0  0  0  0
 11 12  1  0  0  0  0
 11 13  1  0  0  0  0
 11 14  1  0  0  0  0
 14 15  1  0  0  0  0
 14 16  1  0  0  0  0
 14 17  1  0  0  0  0
 17 18  1  0  0  0  0
 17 19  1  0  0  0  0
 19 20  1  0  0  0  0
 19 21  1  0  0  0  0
 19 22  1  0  0  0  0
 17 23  1  0  0  0  0
 23 24  1  0  0  0  0
 23 25  1  0  0  0  0
 23 26  1  0  0  0  0
M  END
> <VConfSearch Rank>
949

> <Conf_Id>
121

> <Delta U+W>
0.736

> <U+W>
-29.562

> <U>
24.282

> <W>
-53.844

> <W(PB)>
-56.205

> <W(SA)>
2.361

> <Valence>
3.311

> <Coulomb>
19.887

> <VdW>
1.083

> <VdW6>
-7.444

> <VdW12>
8.527

> <Bond>
0.219

> <Angle>
1.167

> <Pdih>
1.926

> <Idih>
0.000

> <Tether>
0.000

$$$$
VeraChem MOL file


 26 25  0  0  0  0  0  0  0  0999 V2000     
   18.9004   15.7115   23.8349 C   0  0  0  0  0  0  0  0  0  0  0  0
   18.1515   14.9605   24.1178 H   0  0  0  0  0  0  0  0  0  0  0  0
   19.6240   15.2281   23.1657 H   0  0  0  0  0  0  0  0  0  0  0  0
   19.4253   16.0130   24.7496 H   0  0  0  0  0  0  0  0  0  0  0  0
   18.2228   16.9166   23.1438 C   0  0  0  0  0  0  0  0  0  0  0  0
   17.5297   17.4032   23.8443 H   0  0  0  0  0  0  0  0  0  0  0  0
   17.6081   16.5458   22.3116 H   0  0  0  0  0  0  0  0  0  0  0  0
   19.2270   17.9574   22.5923 C   0  0  0  0  0  0  0  0  0  0  0  0
   19.9119   17.4675   21.8865 H   0  0  0  0  0  0  0  0  0  0  0  0
   18.6626   18.6992   22.0122 H   0  0  0  0  0  0  0  0  0  0  0  0
   20.0411   18.6747   23.6989 C   0  0  0  0  0  0  0  0  0  0  0  0
   20.6169   17.9339   24.2685 H   0  0  0  0  0  0  0  0  0  0  0  0
   19.3582   19.1446   24.4187 H   0  0  0  0  0  0  0  0  0  0  0  0
   21.0356   19.7265   23.1421 C   0  0  0  0  0  0  0  0  0  0  0  0
   21.5919   20.1684   23.9794 H   0  0  0  0  0  0  0  0  0  0  0  0
   21.7793   19.2064   22.5241 H   0  0  0  0  0  0  0  0  0  0  0  0
   20.3977   20.8584   22.3020 C   0  0  1  0  0  0  0  0  0  0  0  0
   19.8578   20.4059   21.4652 H   0  0  0  0  0  0  0  0  0  0  0  0
   19.4052   21.7003   23.1235 C   0  0  0  0  0  0  0  0  0  0  0  0
   19.8882   22.1305   24.0096 H   0  0  0  0  0  0  0  0  0  0  0  0
   18.5520   21.0973   23.4555 H   0  0  0  0  0  0  0  0  0  0  0  0
   19.0049   22.5242   22.5201 H   0  0  0  0  0  0  0  0  0  0  0  0
   21.4518   21.7413   21.6936 N   0  3  0  0  0  0  0  0  0  0  0  0
   22.0992   21.2069   21.1072 H   0  0  0  0  0  0  0  0  0  0  0  0
   21.0366   22.4681   21.1039 H   0  0  0  0  0  0  0  0  0  0  0  0
   22.0065   22.2124   22.4132 H   0  0  0  0  0  0  0  0  0  0  0  0
  1  2  1  0  0  0  0
  1  3  1  0  0  0  0
  1  4  1  0  0  0  0
  1  5  1  0  0  0  0
  5  6  1  0  0  0  0
  5  7  1  0  0  0  0
  5  8  1  0  0  0  0
  8  9  1  0  0  0  0
  8 10  1  0  0  0  0
  8 11  1  0  0  0  0
 11 12  1  0  0  0  0
 11 13  1  0  0  0  0
 11 14  1  0  0  0  0
 14 15  1  0  0  0  0
 14 16  1  0  0  0  0
 14 17  1  0  0  0  0
 17 18  1  0  0  0  0
 17 19  1  0  0  0  0
 19 20  1  0  0  0  0
 19 21  1  0  0  0  0
 19 22  1  0  0  0  0
 17 23  1  0  0  0  0
 23 24  1  0  0  0  0
 23 25  1  0  0  0  0
 23 26  1  0  0  0  0
M  END
> <VConfSearch Rank>
950

> <Conf_Id>
5

> <Delta U+W>
1.233

> <U+W>
-29.065

> <U>
25.023

> <W>
-54.088

> <W(PB)>
-56.383

> <W(SA)>
2.296

> <Valence>
4.083

> <Coulomb>
19.893

> <VdW>
1.047

> <VdW6>
-8.479

> <VdW12>
9.527

> <Bond>
0.256

> <Angle>
1.716

> <Pdih>
2.112

> <Idih>
0.000

> <Tether>
0.000

$$$$
VeraChem MOL file


 26 25  0  0  0  0  0  0  0  0999 V2000     
   19.8800   15.6854   24.1602 C   0  0  0  0  0  0  0  0  0  0  0  0
   20.1687   14.6288   24.0893 H   0  0  0  0  0  0  0  0  0  0  0  0
   20.4901   16.1402   24.9502 H   0  0  0  0  0  0  0  0  0  0  0  0
   18.8280   15.7254   24.4711 H   0  0  0  0  0  0  0  0  0  0  0  0
   20.0857   16.3937   22.8018 C   0  0  0  0  0  0  0  0  0  0  0  0
   19.5577   15.8236   22.0245 H   0  0  0  0  0  0  0  0  0  0  0  0
   21.1501   16.3709   22.5294 H   0  0  0  0  0  0  0  0  0  0  0  0
   19.5700   17.8531   22.7809 C   0  0  0  0  0  0  0  0  0  0  0  0
   19.6307   18.2166   21.7469 H   0  0  0  0  0  0  0  0  0  0  0  0
   18.5072   17.8702   23.0588 H   0  0  0  0  0  0  0  0  0  0  0  0
   20.3704   18.8036   23.7060 C   0  0  0  0  0  0  0  0  0  0  0  0
   21.4268   18.8038   23.4038 H   0  0  0  0  0  0  0  0  0  0  0  0
   20.3446   18.4225   24.7349 H   0  0  0  0  0  0  0  0  0  0  0  0
   19.8417   20.2605   23.7241 C   0  0  0  0  0  0  0  0  0  0  0  0
   18.8128   20.2821   24.1076 H   0  0  0  0  0  0  0  0  0  0  0  0
   20.4407   20.8181   24.4562 H   0  0  0  0  0  0  0  0  0  0  0  0
   19.9234   20.9726   22.3519 C   0  0  1  0  0  0  0  0  0  0  0  0
   20.6223   20.4163   21.7198 H   0  0  0  0  0  0  0  0  0  0  0  0
   18.5520   21.0150   21.6531 C   0  0  0  0  0  0  0  0  0  0  0  0
   17.8336   21.6113   22.2295 H   0  0  0  0  0  0  0  0  0  0  0  0
   18.1325   20.0104   21.5295 H   0  0  0  0  0  0  0  0  0  0  0  0
   18.6405   21.4624   20.6555 H   0  0  0  0  0  0  0  0  0  0  0  0
   20.4841   22.3632   22.4722 N   0  3  0  0  0  0  0  0  0  0  0  0
   21.4184   22.3576   22.8916 H   0  0  0  0  0  0  0  0  0  0  0  0
   20.5646   22.8147   21.5566 H   0  0  0  0  0  0  0  0  0  0  0  0
   19.8886   22.9582   23.0545 H   0  0  0  0  0  0  0  0  0  0  0  0
  1  2  1  0  0  0  0
  1  3  1  0  0  0  0
  1  4  1  0  0  0  0
  1  5  1  0  0  0  0
  5  6  1  0  0  0  0
  5  7  1  0  0  0  0
  5  8  1  0  0  0  0
  8  9  1  0  0  0  0
  8 10  1  0  0  0  0
  8 11  1  0  0  0  0
 11 12  1  0  0  0  0
 11 13  1  0  0  0  0
 11 14  1  0  0  0  0
 14 15  1  0  0  0  0
 14 16  1  0  0  0  0
 14 17  1  0  0  0  0
 17 18  1  0  0  0  0
 17 19  1  0  0  0  0
 19 20  1  0  0  0  0
 19 21  1  0  0  0  0
 19 22  1  0  0  0  0
 17 23  1  0  0  0  0
 23 24  1  0  0  0  0
 23 25  1  0  0  0  0
 23 26  1  0  0  0  0
M  END
> <VConfSearch Rank>
951

> <Conf_Id>
100

> <Delta U+W>
3.818

> <U+W>
-26.481

> <U>
27.496

> <W>
-53.977

> <W(PB)>
-56.267

> <W(SA)>
2.290

> <Valence>
6.472

> <Coulomb>
19.839

> <VdW>
1.185

> <VdW6>
-8.405

> <VdW12>
9.590

> <Bond>
0.248

> <Angle>
1.619

> <Pdih>
4.604

> <Idih>
0.000

> <Tether>
0.000

$$$$
VeraChem MOL file


 26 25  0  0  0  0  0  0  0  0999 V2000     
   16.1274   19.5355   22.4074 C   0  0  0  0  0  0  0  0  0  0  0  0
   15.1813   18.9960   22.5449 H   0  0  0  0  0  0  0  0  0  0  0  0
   16.2166   20.2712   23.2174 H   0  0  0  0  0  0  0  0  0  0  0  0
   16.0697   20.0798   21.4558 H   0  0  0  0  0  0  0  0  0  0  0  0
   17.3195   18.5552   22.4144 C   0  0  0  0  0  0  0  0  0  0  0  0
   17.1845   17.8116   21.6164 H   0  0  0  0  0  0  0  0  0  0  0  0
   17.3310   18.0025   23.3642 H   0  0  0  0  0  0  0  0  0  0  0  0
   18.6650   19.2893   22.2219 C   0  0  0  0  0  0  0  0  0  0  0  0
   18.6455   19.8398   21.2712 H   0  0  0  0  0  0  0  0  0  0  0  0
   18.7825   20.0378   23.0143 H   0  0  0  0  0  0  0  0  0  0  0  0
   19.8609   18.3055   22.2220 C   0  0  0  0  0  0  0  0  0  0  0  0
   19.7126   17.5913   21.4002 H   0  0  0  0  0  0  0  0  0  0  0  0
   19.8606   17.7080   23.1428 H   0  0  0  0  0  0  0  0  0  0  0  0
   21.2365   19.0006   22.0200 C   0  0  0  0  0  0  0  0  0  0  0  0
   21.8717   18.3382   21.4173 H   0  0  0  0  0  0  0  0  0  0  0  0
   21.1113   19.9084   21.4151 H   0  0  0  0  0  0  0  0  0  0  0  0
   22.0211   19.3467   23.3101 C   0  0  1  0  0  0  0  0  0  0  0  0
   22.9499   19.8349   22.9990 H   0  0  0  0  0  0  0  0  0  0  0  0
   21.2688   20.3273   24.2241 C   0  0  0  0  0  0  0  0  0  0  0  0
   20.3856   19.8595   24.6750 H   0  0  0  0  0  0  0  0  0  0  0  0
   20.9476   21.2147   23.6648 H   0  0  0  0  0  0  0  0  0  0  0  0
   21.9194   20.6661   25.0396 H   0  0  0  0  0  0  0  0  0  0  0  0
   22.4370   18.1177   24.0714 N   0  3  0  0  0  0  0  0  0  0  0  0
   22.9873   17.4820   23.4870 H   0  0  0  0  0  0  0  0  0  0  0  0
   23.0105   18.3581   24.8848 H   0  0  0  0  0  0  0  0  0  0  0  0
   21.6249   17.5974   24.4118 H   0  0  0  0  0  0  0  0  0  0  0  0
  1  2  1  0  0  0  0
  1  3  1  0  0  0  0
  1  4  1  0  0  0  0
  1  5  1  0  0  0  0
  5  6  1  0  0  0  0
  5  7  1  0  0  0  0
  5  8  1  0  0  0  0
  8  9  1  0  0  0  0
  8 10  1  0  0  0  0
  8 11  1  0  0  0  0
 11 12  1  0  0  0  0
 11 13  1  0  0  0  0
 11 14  1  0  0  0  0
 14 15  1  0  0  0  0
 14 16  1  0  0  0  0
 14 17  1  0  0  0  0
 17 18  1  0  0  0  0
 17 19  1  0  0  0  0
 19 20  1  0  0  0  0
 19 21  1  0  0  0  0
 19 22  1  0  0  0  0
 17 23  1  0  0  0  0
 23 24  1  0  0  0  0
 23 25  1  0  0  0  0
 23 26  1  0  0  0  0
M  END
> <VConfSearch Rank>
952

> <Conf_Id>
142

> <Delta U+W>
2.978

> <U+W>
-27.320

> <U>
26.848

> <W>
-54.168

> <W(PB)>
-56.427

> <W(SA)>
2.259

> <Valence>
5.823

> <Coulomb>
20.057

> <VdW>
0.968

> <VdW6>
-8.367

> <VdW12>
9.335

> <Bond>
0.267

> <Angle>
1.799

> <Pdih>
3.758

> <Idih>
0.000

> <Tether>
0.000

$$$$
VeraChem MOL file


 26 25  0  0  0  0  0  0  0  0999 V2000     
   16.9518   17.1688   23.3632 C   0  0  0  0  0  0  0  0  0  0  0  0
   16.8727   16.8959   22.3029 H   0  0  0  0  0  0  0  0  0  0  0  0
   16.3783   16.4334   23.9421 H   0  0  0  0  0  0  0  0  0  0  0  0
   16.4710   18.1444   23.5044 H   0  0  0  0  0  0  0  0  0  0  0  0
   18.4272   17.1865   23.8242 C   0  0  0  0  0  0  0  0  0  0  0  0
   18.8186   16.1603   23.7855 H   0  0  0  0  0  0  0  0  0  0  0  0
   18.4834   17.4967   24.8770 H   0  0  0  0  0  0  0  0  0  0  0  0
   19.3356   18.0946   22.9601 C   0  0  0  0  0  0  0  0  0  0  0  0
   20.3717   17.9136   23.2688 H   0  0  0  0  0  0  0  0  0  0  0  0
   19.2582   17.7933   21.9063 H   0  0  0  0  0  0  0  0  0  0  0  0
   19.0138   19.6036   23.1032 C   0  0  0  0  0  0  0  0  0  0  0  0
   19.1551   19.9138   24.1470 H   0  0  0  0  0  0  0  0  0  0  0  0
   17.9505   19.7667   22.8872 H   0  0  0  0  0  0  0  0  0  0  0  0
   19.8235   20.5336   22.1557 C   0  0  0  0  0  0  0  0  0  0  0  0
   19.5790   20.2905   21.1134 H   0  0  0  0  0  0  0  0  0  0  0  0
   19.4604   21.5587   22.3070 H   0  0  0  0  0  0  0  0  0  0  0  0
   21.3651   20.5585   22.3182 C   0  0  1  0  0  0  0  0  0  0  0  0
   21.7268   21.4213   21.7501 H   0  0  0  0  0  0  0  0  0  0  0  0
   21.8005   20.7589   23.7803 C   0  0  0  0  0  0  0  0  0  0  0  0
   21.5538   19.8882   24.3995 H   0  0  0  0  0  0  0  0  0  0  0  0
   21.3112   21.6397   24.2141 H   0  0  0  0  0  0  0  0  0  0  0  0
   22.8843   20.9169   23.8401 H   0  0  0  0  0  0  0  0  0  0  0  0
   22.0455   19.3677   21.7006 N   0  3  0  0  0  0  0  0  0  0  0  0
   21.8122   19.2765   20.7077 H   0  0  0  0  0  0  0  0  0  0  0  0
   23.0644   19.4435   21.7683 H   0  0  0  0  0  0  0  0  0  0  0  0
   21.7698   18.4992   22.1628 H   0  0  0  0  0  0  0  0  0  0  0  0
  1  2  1  0  0  0  0
  1  3  1  0  0  0  0
  1  4  1  0  0  0  0
  1  5  1  0  0  0  0
  5  6  1  0  0  0  0
  5  7  1  0  0  0  0
  5  8  1  0  0  0  0
  8  9  1  0  0  0  0
  8 10  1  0  0  0  0
  8 11  1  0  0  0  0
 11 12  1  0  0  0  0
 11 13  1  0  0  0  0
 11 14  1  0  0  0  0
 14 15  1  0  0  0  0
 14 16  1  0  0  0  0
 14 17  1  0  0  0  0
 17 18  1  0  0  0  0
 17 19  1  0  0  0  0
 19 20  1  0  0  0  0
 19 21  1  0  0  0  0
 19 22  1  0  0  0  0
 17 23  1  0  0  0  0
 23 24  1  0  0  0  0
 23 25  1  0  0  0  0
 23 26  1  0  0  0  0
M  END
> <VConfSearch Rank>
953

> <Conf_Id>
119

> <Delta U+W>
3.538

> <U+W>
-26.761

> <U>
27.482

> <W>
-54.243

> <W(PB)>
-56.494

> <W(SA)>
2.251

> <Valence>
5.284

> <Coulomb>
21.247

> <VdW>
0.951

> <VdW6>
-9.416

> <VdW12>
10.367

> <Bond>
0.323

> <Angle>
2.522

> <Pdih>
2.439

> <Idih>
0.000

> <Tether>
0.000

$$$$
VeraChem MOL file


 26 25  0  0  0  0  0  0  0  0999 V2000     
   18.7911   19.7048   26.2361 C   0  0  0  0  0  0  0  0  0  0  0  0
   19.5027   20.4652   26.5830 H   0  0  0  0  0  0  0  0  0  0  0  0
   18.0433   20.1968   25.6019 H   0  0  0  0  0  0  0  0  0  0  0  0
   18.2677   19.3087   27.1159 H   0  0  0  0  0  0  0  0  0  0  0  0
   19.5165   18.5679   25.4811 C   0  0  0  0  0  0  0  0  0  0  0  0
   18.7804   17.8373   25.1179 H   0  0  0  0  0  0  0  0  0  0  0  0
   20.1613   18.0283   26.1889 H   0  0  0  0  0  0  0  0  0  0  0  0
   20.3843   19.0671   24.3006 C   0  0  0  0  0  0  0  0  0  0  0  0
   21.1352   19.7764   24.6750 H   0  0  0  0  0  0  0  0  0  0  0  0
   20.9456   18.2136   23.9026 H   0  0  0  0  0  0  0  0  0  0  0  0
   19.5597   19.7344   23.1698 C   0  0  0  0  0  0  0  0  0  0  0  0
   19.1045   20.6510   23.5676 H   0  0  0  0  0  0  0  0  0  0  0  0
   18.7250   19.0853   22.8761 H   0  0  0  0  0  0  0  0  0  0  0  0
   20.4142   20.1237   21.9311 C   0  0  0  0  0  0  0  0  0  0  0  0
   20.0325   21.0733   21.5334 H   0  0  0  0  0  0  0  0  0  0  0  0
   21.4464   20.3349   22.2404 H   0  0  0  0  0  0  0  0  0  0  0  0
   20.4247   19.1037   20.7653 C   0  0  1  0  0  0  0  0  0  0  0  0
   21.0709   19.5155   19.9839 H   0  0  0  0  0  0  0  0  0  0  0  0
   21.0032   17.7382   21.1703 C   0  0  0  0  0  0  0  0  0  0  0  0
   20.3452   17.2158   21.8749 H   0  0  0  0  0  0  0  0  0  0  0  0
   21.9902   17.8549   21.6345 H   0  0  0  0  0  0  0  0  0  0  0  0
   21.1247   17.0970   20.2887 H   0  0  0  0  0  0  0  0  0  0  0  0
   19.0677   18.9443   20.1356 N   0  3  0  0  0  0  0  0  0  0  0  0
   18.6961   19.8418   19.8117 H   0  0  0  0  0  0  0  0  0  0  0  0
   19.1024   18.3183   19.3261 H   0  0  0  0  0  0  0  0  0  0  0  0
   18.3933   18.5528   20.7974 H   0  0  0  0  0  0  0  0  0  0  0  0
  1  2  1  0  0  0  0
  1  3  1  0  0  0  0
  1  4  1  0  0  0  0
  1  5  1  0  0  0  0
  5  6  1  0  0  0  0
  5  7  1  0  0  0  0
  5  8  1  0  0  0  0
  8  9  1  0  0  0  0
  8 10  1  0  0  0  0
  8 11  1  0  0  0  0
 11 12  1  0  0  0  0
 11 13  1  0  0  0  0
 11 14  1  0  0  0  0
 14 15  1  0  0  0  0
 14 16  1  0  0  0  0
 14 17  1  0  0  0  0
 17 18  1  0  0  0  0
 17 19  1  0  0  0  0
 19 20  1  0  0  0  0
 19 21  1  0  0  0  0
 19 22  1  0  0  0  0
 17 23  1  0  0  0  0
 23 24  1  0  0  0  0
 23 25  1  0  0  0  0
 23 26  1  0  0  0  0
M  END
> <VConfSearch Rank>
954

> <Conf_Id>
127

> <Delta U+W>
3.544

> <U+W>
-26.754

> <U>
27.509

> <W>
-54.263

> <W(PB)>
-56.496

> <W(SA)>
2.232

> <Valence>
6.375

> <Coulomb>
20.014

> <VdW>
1.120

> <VdW6>
-8.976

> <VdW12>
10.096

> <Bond>
0.304

> <Angle>
1.986

> <Pdih>
4.086

> <Idih>
0.000

> <Tether>
0.000

$$$$
VeraChem MOL file


 26 25  0  0  0  0  0  0  0  0999 V2000     
   16.6474   19.3061   22.9052 C   0  0  0  0  0  0  0  0  0  0  0  0
   15.8429   18.9855   22.2307 H   0  0  0  0  0  0  0  0  0  0  0  0
   16.1855   19.8530   23.7373 H   0  0  0  0  0  0  0  0  0  0  0  0
   17.2836   20.0069   22.3536 H   0  0  0  0  0  0  0  0  0  0  0  0
   17.4395   18.0824   23.4220 C   0  0  0  0  0  0  0  0  0  0  0  0
   17.8350   17.4990   22.5789 H   0  0  0  0  0  0  0  0  0  0  0  0
   16.7349   17.4193   23.9433 H   0  0  0  0  0  0  0  0  0  0  0  0
   18.5812   18.4578   24.4016 C   0  0  0  0  0  0  0  0  0  0  0  0
   18.3317   19.3824   24.9402 H   0  0  0  0  0  0  0  0  0  0  0  0
   18.6416   17.6756   25.1710 H   0  0  0  0  0  0  0  0  0  0  0  0
   19.9839   18.5812   23.7520 C   0  0  0  0  0  0  0  0  0  0  0  0
   20.2600   17.6141   23.3113 H   0  0  0  0  0  0  0  0  0  0  0  0
   20.7071   18.7711   24.5551 H   0  0  0  0  0  0  0  0  0  0  0  0
   20.0903   19.6972   22.6788 C   0  0  0  0  0  0  0  0  0  0  0  0
   19.4361   19.4484   21.8346 H   0  0  0  0  0  0  0  0  0  0  0  0
   19.7139   20.6413   23.0940 H   0  0  0  0  0  0  0  0  0  0  0  0
   21.5138   19.9298   22.1188 C   0  0  1  0  0  0  0  0  0  0  0  0
   21.4308   20.6789   21.3252 H   0  0  0  0  0  0  0  0  0  0  0  0
   22.4732   20.4903   23.1836 C   0  0  0  0  0  0  0  0  0  0  0  0
   22.0495   21.3834   23.6593 H   0  0  0  0  0  0  0  0  0  0  0  0
   23.4268   20.7795   22.7251 H   0  0  0  0  0  0  0  0  0  0  0  0
   22.6894   19.7535   23.9660 H   0  0  0  0  0  0  0  0  0  0  0  0
   22.0854   18.6984   21.4717 N   0  3  0  0  0  0  0  0  0  0  0  0
   21.4751   18.3469   20.7284 H   0  0  0  0  0  0  0  0  0  0  0  0
   23.0006   18.8862   21.0528 H   0  0  0  0  0  0  0  0  0  0  0  0
   22.2083   17.9447   22.1522 H   0  0  0  0  0  0  0  0  0  0  0  0
  1  2  1  0  0  0  0
  1  3  1  0  0  0  0
  1  4  1  0  0  0  0
  1  5  1  0  0  0  0
  5  6  1  0  0  0  0
  5  7  1  0  0  0  0
  5  8  1  0  0  0  0
  8  9  1  0  0  0  0
  8 10  1  0  0  0  0
  8 11  1  0  0  0  0
 11 12  1  0  0  0  0
 11 13  1  0  0  0  0
 11 14  1  0  0  0  0
 14 15  1  0  0  0  0
 14 16  1  0  0  0  0
 14 17  1  0  0  0  0
 17 18  1  0  0  0  0
 17 19  1  0  0  0  0
 19 20  1  0  0  0  0
 19 21  1  0  0  0  0
 19 22  1  0  0  0  0
 17 23  1  0  0  0  0
 23 24  1  0  0  0  0
 23 25  1  0  0  0  0
 23 26  1  0  0  0  0
M  END
> <VConfSearch Rank>
955

> <Conf_Id>
131

> <Delta U+W>
3.589

> <U+W>
-26.710

> <U>
27.573

> <W>
-54.283

> <W(PB)>
-56.537

> <W(SA)>
2.254

> <Valence>
6.363

> <Coulomb>
20.026

> <VdW>
1.184

> <VdW6>
-8.939

> <VdW12>
10.123

> <Bond>
0.298

> <Angle>
2.018

> <Pdih>
4.047

> <Idih>
0.000

> <Tether>
0.000

$$$$
VeraChem MOL file


 26 25  0  0  0  0  0  0  0  0999 V2000     
   21.0699   18.2247   25.3397 C   0  0  0  0  0  0  0  0  0  0  0  0
   21.0653   19.2847   25.6247 H   0  0  0  0  0  0  0  0  0  0  0  0
   20.0614   17.9451   25.0112 H   0  0  0  0  0  0  0  0  0  0  0  0
   21.2958   17.6361   26.2383 H   0  0  0  0  0  0  0  0  0  0  0  0
   22.1152   17.9480   24.2373 C   0  0  0  0  0  0  0  0  0  0  0  0
   22.0441   16.8972   23.9237 H   0  0  0  0  0  0  0  0  0  0  0  0
   23.1198   18.0697   24.6661 H   0  0  0  0  0  0  0  0  0  0  0  0
   21.9962   18.8699   22.9967 C   0  0  0  0  0  0  0  0  0  0  0  0
   22.1781   19.9145   23.2845 H   0  0  0  0  0  0  0  0  0  0  0  0
   22.8130   18.6063   22.3107 H   0  0  0  0  0  0  0  0  0  0  0  0
   20.6574   18.7474   22.2226 C   0  0  0  0  0  0  0  0  0  0  0  0
   20.2638   17.7287   22.3316 H   0  0  0  0  0  0  0  0  0  0  0  0
   20.8626   18.8824   21.1516 H   0  0  0  0  0  0  0  0  0  0  0  0
   19.6019   19.8028   22.6467 C   0  0  0  0  0  0  0  0  0  0  0  0
   19.3482   19.6930   23.7069 H   0  0  0  0  0  0  0  0  0  0  0  0
   20.0486   20.8000   22.5401 H   0  0  0  0  0  0  0  0  0  0  0  0
   18.3074   19.7572   21.8033 C   0  0  1  0  0  0  0  0  0  0  0  0
   18.5839   19.8142   20.7460 H   0  0  0  0  0  0  0  0  0  0  0  0
   17.5137   18.4580   22.0314 C   0  0  0  0  0  0  0  0  0  0  0  0
   17.2665   18.3250   23.0920 H   0  0  0  0  0  0  0  0  0  0  0  0
   18.0789   17.5804   21.6977 H   0  0  0  0  0  0  0  0  0  0  0  0
   16.5756   18.4739   21.4632 H   0  0  0  0  0  0  0  0  0  0  0  0
   17.4375   20.9523   22.0789 N   0  3  0  0  0  0  0  0  0  0  0  0
   17.1297   20.9746   23.0547 H   0  0  0  0  0  0  0  0  0  0  0  0
   17.9312   21.8297   21.8917 H   0  0  0  0  0  0  0  0  0  0  0  0
   16.5971   20.9459   21.4938 H   0  0  0  0  0  0  0  0  0  0  0  0
  1  2  1  0  0  0  0
  1  3  1  0  0  0  0
  1  4  1  0  0  0  0
  1  5  1  0  0  0  0
  5  6  1  0  0  0  0
  5  7  1  0  0  0  0
  5  8  1  0  0  0  0
  8  9  1  0  0  0  0
  8 10  1  0  0  0  0
  8 11  1  0  0  0  0
 11 12  1  0  0  0  0
 11 13  1  0  0  0  0
 11 14  1  0  0  0  0
 14 15  1  0  0  0  0
 14 16  1  0  0  0  0
 14 17  1  0  0  0  0
 17 18  1  0  0  0  0
 17 19  1  0  0  0  0
 19 20  1  0  0  0  0
 19 21  1  0  0  0  0
 19 22  1  0  0  0  0
 17 23  1  0  0  0  0
 23 24  1  0  0  0  0
 23 25  1  0  0  0  0
 23 26  1  0  0  0  0
M  END
> <VConfSearch Rank>
956

> <Conf_Id>
80

> <Delta U+W>
3.351

> <U+W>
-26.948

> <U>
27.261

> <W>
-54.209

> <W(PB)>
-56.471

> <W(SA)>
2.263

> <Valence>
6.230

> <Coulomb>
19.945

> <VdW>
1.087

> <VdW6>
-8.618

> <VdW12>
9.704

> <Bond>
0.277

> <Angle>
1.928

> <Pdih>
4.025

> <Idih>
0.000

> <Tether>
0.000

$$$$
VeraChem MOL file


 26 25  0  0  0  0  0  0  0  0999 V2000     
   20.6993   16.6017   21.0069 C   0  0  0  0  0  0  0  0  0  0  0  0
   20.6981   16.4203   19.9243 H   0  0  0  0  0  0  0  0  0  0  0  0
   21.3279   15.8337   21.4758 H   0  0  0  0  0  0  0  0  0  0  0  0
   19.6701   16.4710   21.3640 H   0  0  0  0  0  0  0  0  0  0  0  0
   21.2294   18.0197   21.3173 C   0  0  0  0  0  0  0  0  0  0  0  0
   20.5699   18.7691   20.8609 H   0  0  0  0  0  0  0  0  0  0  0  0
   22.2048   18.1459   20.8270 H   0  0  0  0  0  0  0  0  0  0  0  0
   21.4034   18.3013   22.8325 C   0  0  0  0  0  0  0  0  0  0  0  0
   22.1874   17.6360   23.2195 H   0  0  0  0  0  0  0  0  0  0  0  0
   21.7966   19.3168   22.9553 H   0  0  0  0  0  0  0  0  0  0  0  0
   20.1308   18.1084   23.7052 C   0  0  0  0  0  0  0  0  0  0  0  0
   20.3897   18.2577   24.7625 H   0  0  0  0  0  0  0  0  0  0  0  0
   19.8201   17.0577   23.6358 H   0  0  0  0  0  0  0  0  0  0  0  0
   18.9165   19.0084   23.3416 C   0  0  0  0  0  0  0  0  0  0  0  0
   18.8865   19.2154   22.2661 H   0  0  0  0  0  0  0  0  0  0  0  0
   18.0067   18.4310   23.5524 H   0  0  0  0  0  0  0  0  0  0  0  0
   18.8132   20.3306   24.1398 C   0  0  1  0  0  0  0  0  0  0  0  0
   18.7786   20.0839   25.2054 H   0  0  0  0  0  0  0  0  0  0  0  0
   20.0079   21.2695   23.9044 C   0  0  0  0  0  0  0  0  0  0  0  0
   20.9229   20.8548   24.3413 H   0  0  0  0  0  0  0  0  0  0  0  0
   19.8374   22.2415   24.3834 H   0  0  0  0  0  0  0  0  0  0  0  0
   20.1753   21.4412   22.8338 H   0  0  0  0  0  0  0  0  0  0  0  0
   17.5256   21.0435   23.8314 N   0  3  0  0  0  0  0  0  0  0  0  0
   16.7115   20.4538   24.0264 H   0  0  0  0  0  0  0  0  0  0  0  0
   17.4257   21.8945   24.3920 H   0  0  0  0  0  0  0  0  0  0  0  0
   17.4772   21.3193   22.8470 H   0  0  0  0  0  0  0  0  0  0  0  0
  1  2  1  0  0  0  0
  1  3  1  0  0  0  0
  1  4  1  0  0  0  0
  1  5  1  0  0  0  0
  5  6  1  0  0  0  0
  5  7  1  0  0  0  0
  5  8  1  0  0  0  0
  8  9  1  0  0  0  0
  8 10  1  0  0  0  0
  8 11  1  0  0  0  0
 11 12  1  0  0  0  0
 11 13  1  0  0  0  0
 11 14  1  0  0  0  0
 14 15  1  0  0  0  0
 14 16  1  0  0  0  0
 14 17  1  0  0  0  0
 17 18  1  0  0  0  0
 17 19  1  0  0  0  0
 19 20  1  0  0  0  0
 19 21  1  0  0  0  0
 19 22  1  0  0  0  0
 17 23  1  0  0  0  0
 23 24  1  0  0  0  0
 23 25  1  0  0  0  0
 23 26  1  0  0  0  0
M  END
> <VConfSearch Rank>
957

> <Conf_Id>
136

> <Delta U+W>
4.272

> <U+W>
-26.026

> <U>
28.262

> <W>
-54.288

> <W(PB)>
-56.488

> <W(SA)>
2.200

> <Valence>
7.096

> <Coulomb>
19.990

> <VdW>
1.175

> <VdW6>
-9.404

> <VdW12>
10.580

> <Bond>
0.360

> <Angle>
2.785

> <Pdih>
3.951

> <Idih>
0.000

> <Tether>
0.000

$$$$
VeraChem MOL file


 26 25  0  0  0  0  0  0  0  0999 V2000     
   21.8117   21.1919   22.1119 C   0  0  0  0  0  0  0  0  0  0  0  0
   21.7555   20.7845   23.1289 H   0  0  0  0  0  0  0  0  0  0  0  0
   22.7213   21.8036   22.0540 H   0  0  0  0  0  0  0  0  0  0  0  0
   20.9512   21.8542   21.9514 H   0  0  0  0  0  0  0  0  0  0  0  0
   21.8519   20.0648   21.0570 C   0  0  0  0  0  0  0  0  0  0  0  0
   22.6897   19.3887   21.2782 H   0  0  0  0  0  0  0  0  0  0  0  0
   22.0704   20.5085   20.0757 H   0  0  0  0  0  0  0  0  0  0  0  0
   20.5400   19.2466   20.9455 C   0  0  0  0  0  0  0  0  0  0  0  0
   19.7148   19.8973   20.6250 H   0  0  0  0  0  0  0  0  0  0  0  0
   20.6738   18.5175   20.1343 H   0  0  0  0  0  0  0  0  0  0  0  0
   20.1482   18.4727   22.2313 C   0  0  0  0  0  0  0  0  0  0  0  0
   21.0494   18.2221   22.8080 H   0  0  0  0  0  0  0  0  0  0  0  0
   19.7018   17.5155   21.9306 H   0  0  0  0  0  0  0  0  0  0  0  0
   19.1324   19.2357   23.1208 C   0  0  0  0  0  0  0  0  0  0  0  0
   19.5155   20.2377   23.3444 H   0  0  0  0  0  0  0  0  0  0  0  0
   18.1955   19.3816   22.5670 H   0  0  0  0  0  0  0  0  0  0  0  0
   18.8382   18.5119   24.4527 C   0  0  1  0  0  0  0  0  0  0  0  0
   19.7875   18.3559   24.9744 H   0  0  0  0  0  0  0  0  0  0  0  0
   17.9351   19.3792   25.3443 C   0  0  0  0  0  0  0  0  0  0  0  0
   16.9655   19.5653   24.8657 H   0  0  0  0  0  0  0  0  0  0  0  0
   18.4058   20.3484   25.5509 H   0  0  0  0  0  0  0  0  0  0  0  0
   17.7519   18.8867   26.3073 H   0  0  0  0  0  0  0  0  0  0  0  0
   18.2281   17.1521   24.2479 N   0  3  0  0  0  0  0  0  0  0  0  0
   17.3311   17.2150   23.7594 H   0  0  0  0  0  0  0  0  0  0  0  0
   18.8398   16.5474   23.6932 H   0  0  0  0  0  0  0  0  0  0  0  0
   18.0586   16.6797   25.1404 H   0  0  0  0  0  0  0  0  0  0  0  0
  1  2  1  0  0  0  0
  1  3  1  0  0  0  0
  1  4  1  0  0  0  0
  1  5  1  0  0  0  0
  5  6  1  0  0  0  0
  5  7  1  0  0  0  0
  5  8  1  0  0  0  0
  8  9  1  0  0  0  0
  8 10  1  0  0  0  0
  8 11  1  0  0  0  0
 11 12  1  0  0  0  0
 11 13  1  0  0  0  0
 11 14  1  0  0  0  0
 14 15  1  0  0  0  0
 14 16  1  0  0  0  0
 14 17  1  0  0  0  0
 17 18  1  0  0  0  0
 17 19  1  0  0  0  0
 19 20  1  0  0  0  0
 19 21  1  0  0  0  0
 19 22  1  0  0  0  0
 17 23  1  0  0  0  0
 23 24  1  0  0  0  0
 23 25  1  0  0  0  0
 23 26  1  0  0  0  0
M  END
> <VConfSearch Rank>
958

> <Conf_Id>
124

> <Delta U+W>
3.001

> <U+W>
-27.298

> <U>
26.787

> <W>
-54.085

> <W(PB)>
-56.347

> <W(SA)>
2.262

> <Valence>
5.742

> <Coulomb>
20.023

> <VdW>
1.022

> <VdW6>
-8.392

> <VdW12>
9.414

> <Bond>
0.261

> <Angle>
1.576

> <Pdih>
3.904

> <Idih>
0.000

> <Tether>
0.000

$$$$
VeraChem MOL file


 26 25  0  0  0  0  0  0  0  0999 V2000     
   22.4740   20.8629   23.6003 C   0  0  0  0  0  0  0  0  0  0  0  0
   22.9522   21.2942   22.7113 H   0  0  0  0  0  0  0  0  0  0  0  0
   23.1002   21.1095   24.4674 H   0  0  0  0  0  0  0  0  0  0  0  0
   22.4765   19.7732   23.4892 H   0  0  0  0  0  0  0  0  0  0  0  0
   21.0461   21.4271   23.7871 C   0  0  0  0  0  0  0  0  0  0  0  0
   21.1279   22.5147   23.9221 H   0  0  0  0  0  0  0  0  0  0  0  0
   20.6008   21.0406   24.7144 H   0  0  0  0  0  0  0  0  0  0  0  0
   20.1102   21.1490   22.5825 C   0  0  0  0  0  0  0  0  0  0  0  0
   19.4428   22.0137   22.4629 H   0  0  0  0  0  0  0  0  0  0  0  0
   20.6928   21.0952   21.6525 H   0  0  0  0  0  0  0  0  0  0  0  0
   19.2178   19.8893   22.7277 C   0  0  0  0  0  0  0  0  0  0  0  0
   18.5476   19.8487   21.8593 H   0  0  0  0  0  0  0  0  0  0  0  0
   18.5730   20.0098   23.6084 H   0  0  0  0  0  0  0  0  0  0  0  0
   20.0096   18.5591   22.8343 C   0  0  0  0  0  0  0  0  0  0  0  0
   20.7577   18.5163   22.0321 H   0  0  0  0  0  0  0  0  0  0  0  0
   20.5671   18.5435   23.7789 H   0  0  0  0  0  0  0  0  0  0  0  0
   19.1426   17.2796   22.7668 C   0  0  1  0  0  0  0  0  0  0  0  0
   19.8188   16.4238   22.8571 H   0  0  0  0  0  0  0  0  0  0  0  0
   18.1359   17.2025   23.9280 C   0  0  0  0  0  0  0  0  0  0  0  0
   17.3682   17.9816   23.8509 H   0  0  0  0  0  0  0  0  0  0  0  0
   18.6449   17.3153   24.8933 H   0  0  0  0  0  0  0  0  0  0  0  0
   17.6279   16.2303   23.9315 H   0  0  0  0  0  0  0  0  0  0  0  0
   18.4496   17.1230   21.4410 N   0  3  0  0  0  0  0  0  0  0  0  0
   17.9329   16.2405   21.3909 H   0  0  0  0  0  0  0  0  0  0  0  0
   17.7805   17.8795   21.2789 H   0  0  0  0  0  0  0  0  0  0  0  0
   19.1175   17.1305   20.6649 H   0  0  0  0  0  0  0  0  0  0  0  0
  1  2  1  0  0  0  0
  1  3  1  0  0  0  0
  1  4  1  0  0  0  0
  1  5  1  0  0  0  0
  5  6  1  0  0  0  0
  5  7  1  0  0  0  0
  5  8  1  0  0  0  0
  8  9  1  0  0  0  0
  8 10  1  0  0  0  0
  8 11  1  0  0  0  0
 11 12  1  0  0  0  0
 11 13  1  0  0  0  0
 11 14  1  0  0  0  0
 14 15  1  0  0  0  0
 14 16  1  0  0  0  0
 14 17  1  0  0  0  0
 17 18  1  0  0  0  0
 17 19  1  0  0  0  0
 19 20  1  0  0  0  0
 19 21  1  0  0  0  0
 19 22  1  0  0  0  0
 17 23  1  0  0  0  0
 23 24  1  0  0  0  0
 23 25  1  0  0  0  0
 23 26  1  0  0  0  0
M  END
> <VConfSearch Rank>
959

> <Conf_Id>
105

> <Delta U+W>
3.442

> <U+W>
-26.857

> <U>
27.313

> <W>
-54.169

> <W(PB)>
-56.414

> <W(SA)>
2.245

> <Valence>
6.229

> <Coulomb>
19.943

> <VdW>
1.140

> <VdW6>
-9.001

> <VdW12>
10.140

> <Bond>
0.294

> <Angle>
1.969

> <Pdih>
3.967

> <Idih>
0.000

> <Tether>
0.000

$$$$
VeraChem MOL file


 26 25  0  0  0  0  0  0  0  0999 V2000     
   18.1068   20.5598   20.8477 C   0  0  0  0  0  0  0  0  0  0  0  0
   18.1314   21.6571   20.8671 H   0  0  0  0  0  0  0  0  0  0  0  0
   17.3433   20.2573   20.1195 H   0  0  0  0  0  0  0  0  0  0  0  0
   17.7797   20.2123   21.8336 H   0  0  0  0  0  0  0  0  0  0  0  0
   19.4871   19.9838   20.4540 C   0  0  0  0  0  0  0  0  0  0  0  0
   19.7290   20.3471   19.4453 H   0  0  0  0  0  0  0  0  0  0  0  0
   19.4361   18.8889   20.3763 H   0  0  0  0  0  0  0  0  0  0  0  0
   20.6289   20.4035   21.4154 C   0  0  0  0  0  0  0  0  0  0  0  0
   21.5458   20.5270   20.8225 H   0  0  0  0  0  0  0  0  0  0  0  0
   20.4199   21.3929   21.8450 H   0  0  0  0  0  0  0  0  0  0  0  0
   20.9380   19.3853   22.5433 C   0  0  0  0  0  0  0  0  0  0  0  0
   21.8066   19.7517   23.1079 H   0  0  0  0  0  0  0  0  0  0  0  0
   21.2442   18.4325   22.0910 H   0  0  0  0  0  0  0  0  0  0  0  0
   19.7646   19.1480   23.5256 C   0  0  0  0  0  0  0  0  0  0  0  0
   19.3746   20.1196   23.8567 H   0  0  0  0  0  0  0  0  0  0  0  0
   18.9454   18.6316   23.0100 H   0  0  0  0  0  0  0  0  0  0  0  0
   20.1784   18.3276   24.7663 C   0  0  1  0  0  0  0  0  0  0  0  0
   21.0067   18.8458   25.2592 H   0  0  0  0  0  0  0  0  0  0  0  0
   19.0088   18.2337   25.7592 C   0  0  0  0  0  0  0  0  0  0  0  0
   18.1494   17.7177   25.3131 H   0  0  0  0  0  0  0  0  0  0  0  0
   18.6822   19.2332   26.0724 H   0  0  0  0  0  0  0  0  0  0  0  0
   19.3076   17.6840   26.6603 H   0  0  0  0  0  0  0  0  0  0  0  0
   20.6788   16.9550   24.4074 N   0  3  0  0  0  0  0  0  0  0  0  0
   21.4853   17.0038   23.7792 H   0  0  0  0  0  0  0  0  0  0  0  0
   20.9698   16.4335   25.2391 H   0  0  0  0  0  0  0  0  0  0  0  0
   19.9550   16.4045   23.9382 H   0  0  0  0  0  0  0  0  0  0  0  0
  1  2  1  0  0  0  0
  1  3  1  0  0  0  0
  1  4  1  0  0  0  0
  1  5  1  0  0  0  0
  5  6  1  0  0  0  0
  5  7  1  0  0  0  0
  5  8  1  0  0  0  0
  8  9  1  0  0  0  0
  8 10  1  0  0  0  0
  8 11  1  0  0  0  0
 11 12  1  0  0  0  0
 11 13  1  0  0  0  0
 11 14  1  0  0  0  0
 14 15  1  0  0  0  0
 14 16  1  0  0  0  0
 14 17  1  0  0  0  0
 17 18  1  0  0  0  0
 17 19  1  0  0  0  0
 19 20  1  0  0  0  0
 19 21  1  0  0  0  0
 19 22  1  0  0  0  0
 17 23  1  0  0  0  0
 23 24  1  0  0  0  0
 23 25  1  0  0  0  0
 23 26  1  0  0  0  0
M  END
> <VConfSearch Rank>
960

> <Conf_Id>
107

> <Delta U+W>
2.995

> <U+W>
-27.304

> <U>
26.796

> <W>
-54.100

> <W(PB)>
-56.404

> <W(SA)>
2.304

> <Valence>
5.706

> <Coulomb>
20.107

> <VdW>
0.982

> <VdW6>
-8.396

> <VdW12>
9.378

> <Bond>
0.254

> <Angle>
1.644

> <Pdih>
3.808

> <Idih>
0.000

> <Tether>
0.000

$$$$
VeraChem MOL file


 26 25  0  0  0  0  0  0  0  0999 V2000     
   22.5644   19.6223   26.0863 C   0  0  0  0  0  0  0  0  0  0  0  0
   23.4304   19.9166   25.4790 H   0  0  0  0  0  0  0  0  0  0  0  0
   22.6184   20.1684   27.0371 H   0  0  0  0  0  0  0  0  0  0  0  0
   22.6506   18.5505   26.3080 H   0  0  0  0  0  0  0  0  0  0  0  0
   21.2419   19.9328   25.3538 C   0  0  0  0  0  0  0  0  0  0  0  0
   21.1688   21.0150   25.1764 H   0  0  0  0  0  0  0  0  0  0  0  0
   20.3951   19.6595   25.9990 H   0  0  0  0  0  0  0  0  0  0  0  0
   21.1403   19.1760   24.0110 C   0  0  0  0  0  0  0  0  0  0  0  0
   21.9908   19.4503   23.3715 H   0  0  0  0  0  0  0  0  0  0  0  0
   21.2156   18.0950   24.1933 H   0  0  0  0  0  0  0  0  0  0  0  0
   19.8175   19.4849   23.2740 C   0  0  0  0  0  0  0  0  0  0  0  0
   19.7452   20.5658   23.0892 H   0  0  0  0  0  0  0  0  0  0  0  0
   18.9733   19.2143   23.9221 H   0  0  0  0  0  0  0  0  0  0  0  0
   19.7182   18.7240   21.9294 C   0  0  0  0  0  0  0  0  0  0  0  0
   20.5985   18.9659   21.3191 H   0  0  0  0  0  0  0  0  0  0  0  0
   19.7512   17.6415   22.1118 H   0  0  0  0  0  0  0  0  0  0  0  0
   18.4457   19.0774   21.1292 C   0  0  1  0  0  0  0  0  0  0  0  0
   18.4238   20.1616   20.9813 H   0  0  0  0  0  0  0  0  0  0  0  0
   18.4784   18.4029   19.7483 C   0  0  0  0  0  0  0  0  0  0  0  0
   18.4992   17.3098   19.8407 H   0  0  0  0  0  0  0  0  0  0  0  0
   19.3652   18.7150   19.1827 H   0  0  0  0  0  0  0  0  0  0  0  0
   17.5947   18.6795   19.1601 H   0  0  0  0  0  0  0  0  0  0  0  0
   17.1837   18.7149   21.8635 N   0  3  0  0  0  0  0  0  0  0  0  0
   17.1319   17.7087   22.0428 H   0  0  0  0  0  0  0  0  0  0  0  0
   17.1257   19.1928   22.7666 H   0  0  0  0  0  0  0  0  0  0  0  0
   16.3510   18.9736   21.3266 H   0  0  0  0  0  0  0  0  0  0  0  0
  1  2  1  0  0  0  0
  1  3  1  0  0  0  0
  1  4  1  0  0  0  0
  1  5  1  0  0  0  0
  5  6  1  0  0  0  0
  5  7  1  0  0  0  0
  5  8  1  0  0  0  0
  8  9  1  0  0  0  0
  8 10  1  0  0  0  0
  8 11  1  0  0  0  0
 11 12  1  0  0  0  0
 11 13  1  0  0  0  0
 11 14  1  0  0  0  0
 14 15  1  0  0  0  0
 14 16  1  0  0  0  0
 14 17  1  0  0  0  0
 17 18  1  0  0  0  0
 17 19  1  0  0  0  0
 19 20  1  0  0  0  0
 19 21  1  0  0  0  0
 19 22  1  0  0  0  0
 17 23  1  0  0  0  0
 23 24  1  0  0  0  0
 23 25  1  0  0  0  0
 23 26  1  0  0  0  0
M  END
> <VConfSearch Rank>
961

> <Conf_Id>
122

> <Delta U+W>
0.000

> <U+W>
-30.299

> <U>
23.517

> <W>
-53.816

> <W(PB)>
-56.162

> <W(SA)>
2.346

> <Valence>
2.737

> <Coulomb>
19.862

> <VdW>
0.919

> <VdW6>
-6.793

> <VdW12>
7.712

> <Bond>
0.171

> <Angle>
0.873

> <Pdih>
1.693

> <Idih>
0.000

> <Tether>
0.000

$$$$
VeraChem MOL file


 26 25  0  0  0  0  0  0  0  0999 V2000     
   22.7308   21.7323   24.4914 C   0  0  0  0  0  0  0  0  0  0  0  0
   23.6513   22.2198   24.1449 H   0  0  0  0  0  0  0  0  0  0  0  0
   22.0485   22.5151   24.8477 H   0  0  0  0  0  0  0  0  0  0  0  0
   22.9896   21.0905   25.3436 H   0  0  0  0  0  0  0  0  0  0  0  0
   22.0874   20.9114   23.3537 C   0  0  0  0  0  0  0  0  0  0  0  0
   22.8052   20.1600   22.9957 H   0  0  0  0  0  0  0  0  0  0  0  0
   21.8712   21.5736   22.5036 H   0  0  0  0  0  0  0  0  0  0  0  0
   20.7885   20.2141   23.8153 C   0  0  0  0  0  0  0  0  0  0  0  0
   21.0093   19.5548   24.6662 H   0  0  0  0  0  0  0  0  0  0  0  0
   20.0762   20.9695   24.1752 H   0  0  0  0  0  0  0  0  0  0  0  0
   20.1410   19.3911   22.6785 C   0  0  0  0  0  0  0  0  0  0  0  0
   20.8638   18.6460   22.3212 H   0  0  0  0  0  0  0  0  0  0  0  0
   19.9161   20.0521   21.8299 H   0  0  0  0  0  0  0  0  0  0  0  0
   18.8416   18.6899   23.1456 C   0  0  0  0  0  0  0  0  0  0  0  0
   19.0728   17.9796   23.9506 H   0  0  0  0  0  0  0  0  0  0  0  0
   18.1737   19.4455   23.5799 H   0  0  0  0  0  0  0  0  0  0  0  0
   18.0839   17.9620   22.0116 C   0  0  1  0  0  0  0  0  0  0  0  0
   17.9024   18.6790   21.2050 H   0  0  0  0  0  0  0  0  0  0  0  0
   18.8886   16.7802   21.4409 C   0  0  0  0  0  0  0  0  0  0  0  0
   19.1512   16.0621   22.2276 H   0  0  0  0  0  0  0  0  0  0  0  0
   19.8143   17.1212   20.9632 H   0  0  0  0  0  0  0  0  0  0  0  0
   18.3067   16.2499   20.6770 H   0  0  0  0  0  0  0  0  0  0  0  0
   16.7321   17.4949   22.4754 N   0  3  0  0  0  0  0  0  0  0  0  0
   16.8116   16.8131   23.2346 H   0  0  0  0  0  0  0  0  0  0  0  0
   16.1614   18.2726   22.8191 H   0  0  0  0  0  0  0  0  0  0  0  0
   16.2102   17.0473   21.7166 H   0  0  0  0  0  0  0  0  0  0  0  0
  1  2  1  0  0  0  0
  1  3  1  0  0  0  0
  1  4  1  0  0  0  0
  1  5  1  0  0  0  0
  5  6  1  0  0  0  0
  5  7  1  0  0  0  0
  5  8  1  0  0  0  0
  8  9  1  0  0  0  0
  8 10  1  0  0  0  0
  8 11  1  0  0  0  0
 11 12  1  0  0  0  0
 11 13  1  0  0  0  0
 11 14  1  0  0  0  0
 14 15  1  0  0  0  0
 14 16  1  0  0  0  0
 14 17  1  0  0  0  0
 17 18  1  0  0  0  0
 17 19  1  0  0  0  0
 19 20  1  0  0  0  0
 19 21  1  0  0  0  0
 19 22  1  0  0  0  0
 17 23  1  0  0  0  0
 23 24  1  0  0  0  0
 23 25  1  0  0  0  0
 23 26  1  0  0  0  0
M  END
> <VConfSearch Rank>
962

> <Conf_Id>
54

> <Delta U+W>
0.453

> <U+W>
-29.845

> <U>
23.817

> <W>
-53.663

> <W(PB)>
-56.021

> <W(SA)>
2.358

> <Valence>
3.277

> <Coulomb>
19.492

> <VdW>
1.049

> <VdW6>
-6.949

> <VdW12>
7.998

> <Bond>
0.183

> <Angle>
1.152

> <Pdih>
1.942

> <Idih>
0.000

> <Tether>
0.000

$$$$
VeraChem MOL file


 26 25  0  0  0  0  0  0  0  0999 V2000     
   20.3927   19.7017   19.3949 C   0  0  0  0  0  0  0  0  0  0  0  0
   20.2722   18.6307   19.1866 H   0  0  0  0  0  0  0  0  0  0  0  0
   19.3955   20.1519   19.4705 H   0  0  0  0  0  0  0  0  0  0  0  0
   20.8934   20.1567   18.5305 H   0  0  0  0  0  0  0  0  0  0  0  0
   21.2219   19.9286   20.6798 C   0  0  0  0  0  0  0  0  0  0  0  0
   21.2998   21.0052   20.8864 H   0  0  0  0  0  0  0  0  0  0  0  0
   22.2473   19.5756   20.5012 H   0  0  0  0  0  0  0  0  0  0  0  0
   20.6561   19.1949   21.9201 C   0  0  0  0  0  0  0  0  0  0  0  0
   20.5527   18.1243   21.6959 H   0  0  0  0  0  0  0  0  0  0  0  0
   21.3984   19.2852   22.7220 H   0  0  0  0  0  0  0  0  0  0  0  0
   19.3019   19.7673   22.4100 C   0  0  0  0  0  0  0  0  0  0  0  0
   18.5953   19.7963   21.5712 H   0  0  0  0  0  0  0  0  0  0  0  0
   19.4400   20.8100   22.7277 H   0  0  0  0  0  0  0  0  0  0  0  0
   18.6305   18.9639   23.5553 C   0  0  0  0  0  0  0  0  0  0  0  0
   17.6446   19.4157   23.7285 H   0  0  0  0  0  0  0  0  0  0  0  0
   18.4335   17.9338   23.2302 H   0  0  0  0  0  0  0  0  0  0  0  0
   19.4118   18.9556   24.8910 C   0  0  1  0  0  0  0  0  0  0  0  0
   19.8606   19.9432   25.0349 H   0  0  0  0  0  0  0  0  0  0  0  0
   18.4593   18.6842   26.0674 C   0  0  0  0  0  0  0  0  0  0  0  0
   19.0048   18.6920   27.0191 H   0  0  0  0  0  0  0  0  0  0  0  0
   17.9674   17.7089   25.9629 H   0  0  0  0  0  0  0  0  0  0  0  0
   17.6810   19.4553   26.1264 H   0  0  0  0  0  0  0  0  0  0  0  0
   20.5319   17.9511   24.9058 N   0  3  0  0  0  0  0  0  0  0  0  0
   21.1889   18.1101   24.1389 H   0  0  0  0  0  0  0  0  0  0  0  0
   21.0619   17.9951   25.7808 H   0  0  0  0  0  0  0  0  0  0  0  0
   20.1756   16.9962   24.8125 H   0  0  0  0  0  0  0  0  0  0  0  0
  1  2  1  0  0  0  0
  1  3  1  0  0  0  0
  1  4  1  0  0  0  0
  1  5  1  0  0  0  0
  5  6  1  0  0  0  0
  5  7  1  0  0  0  0
  5  8  1  0  0  0  0
  8  9  1  0  0  0  0
  8 10  1  0  0  0  0
  8 11  1  0  0  0  0
 11 12  1  0  0  0  0
 11 13  1  0  0  0  0
 11 14  1  0  0  0  0
 14 15  1  0  0  0  0
 14 16  1  0  0  0  0
 14 17  1  0  0  0  0
 17 18  1  0  0  0  0
 17 19  1  0  0  0  0
 19 20  1  0  0  0  0
 19 21  1  0  0  0  0
 19 22  1  0  0  0  0
 17 23  1  0  0  0  0
 23 24  1  0  0  0  0
 23 25  1  0  0  0  0
 23 26  1  0  0  0  0
M  END
> <VConfSearch Rank>
963

> <Conf_Id>
110

> <Delta U+W>
3.764

> <U+W>
-26.535

> <U>
27.400

> <W>
-53.935

> <W(PB)>
-56.238

> <W(SA)>
2.303

> <Valence>
5.205

> <Coulomb>
21.096

> <VdW>
1.098

> <VdW6>
-8.389

> <VdW12>
9.488

> <Bond>
0.270

> <Angle>
1.912

> <Pdih>
3.023

> <Idih>
0.000

> <Tether>
0.000

$$$$
VeraChem MOL file


 26 25  0  0  0  0  0  0  0  0999 V2000     
   21.4147   22.3469   22.0379 C   0  0  0  0  0  0  0  0  0  0  0  0
   21.6897   23.0763   21.2651 H   0  0  0  0  0  0  0  0  0  0  0  0
   20.4549   22.6645   22.4640 H   0  0  0  0  0  0  0  0  0  0  0  0
   22.1748   22.3929   22.8285 H   0  0  0  0  0  0  0  0  0  0  0  0
   21.3257   20.9270   21.4342 C   0  0  0  0  0  0  0  0  0  0  0  0
   22.2680   20.7033   20.9148 H   0  0  0  0  0  0  0  0  0  0  0  0
   20.5386   20.9003   20.6677 H   0  0  0  0  0  0  0  0  0  0  0  0
   21.0660   19.8243   22.4887 C   0  0  0  0  0  0  0  0  0  0  0  0
   21.1328   18.8492   21.9915 H   0  0  0  0  0  0  0  0  0  0  0  0
   21.8710   19.8384   23.2364 H   0  0  0  0  0  0  0  0  0  0  0  0
   19.6961   19.9648   23.2013 C   0  0  0  0  0  0  0  0  0  0  0  0
   18.8903   20.0892   22.4648 H   0  0  0  0  0  0  0  0  0  0  0  0
   19.7071   20.8865   23.7981 H   0  0  0  0  0  0  0  0  0  0  0  0
   19.3729   18.7797   24.1496 C   0  0  0  0  0  0  0  0  0  0  0  0
   20.3007   18.3209   24.5163 H   0  0  0  0  0  0  0  0  0  0  0  0
   18.8709   19.1879   25.0368 H   0  0  0  0  0  0  0  0  0  0  0  0
   18.4436   17.6994   23.5454 C   0  0  1  0  0  0  0  0  0  0  0  0
   17.5144   18.1864   23.2339 H   0  0  0  0  0  0  0  0  0  0  0  0
   19.0548   17.0042   22.3170 C   0  0  0  0  0  0  0  0  0  0  0  0
   20.0334   16.5681   22.5528 H   0  0  0  0  0  0  0  0  0  0  0  0
   19.1774   17.7089   21.4864 H   0  0  0  0  0  0  0  0  0  0  0  0
   18.3997   16.1989   21.9625 H   0  0  0  0  0  0  0  0  0  0  0  0
   18.0580   16.6795   24.5808 N   0  3  0  0  0  0  0  0  0  0  0  0
   17.6034   17.1148   25.3886 H   0  0  0  0  0  0  0  0  0  0  0  0
   17.4051   15.9886   24.2004 H   0  0  0  0  0  0  0  0  0  0  0  0
   18.8753   16.1692   24.9260 H   0  0  0  0  0  0  0  0  0  0  0  0
  1  2  1  0  0  0  0
  1  3  1  0  0  0  0
  1  4  1  0  0  0  0
  1  5  1  0  0  0  0
  5  6  1  0  0  0  0
  5  7  1  0  0  0  0
  5  8  1  0  0  0  0
  8  9  1  0  0  0  0
  8 10  1  0  0  0  0
  8 11  1  0  0  0  0
 11 12  1  0  0  0  0
 11 13  1  0  0  0  0
 11 14  1  0  0  0  0
 14 15  1  0  0  0  0
 14 16  1  0  0  0  0
 14 17  1  0  0  0  0
 17 18  1  0  0  0  0
 17 19  1  0  0  0  0
 19 20  1  0  0  0  0
 19 21  1  0  0  0  0
 19 22  1  0  0  0  0
 17 23  1  0  0  0  0
 23 24  1  0  0  0  0
 23 25  1  0  0  0  0
 23 26  1  0  0  0  0
M  END
> <VConfSearch Rank>
964

> <Conf_Id>
34

> <Delta U+W>
3.568

> <U+W>
-26.731

> <U>
27.221

> <W>
-53.952

> <W(PB)>
-56.213

> <W(SA)>
2.261

> <Valence>
6.368

> <Coulomb>
19.698

> <VdW>
1.155

> <VdW6>
-8.532

> <VdW12>
9.687

> <Bond>
0.272

> <Angle>
1.847

> <Pdih>
4.248

> <Idih>
0.000

> <Tether>
0.000

$$$$
VeraChem MOL file


 26 25  0  0  0  0  0  0  0  0999 V2000     
   21.3140   16.8142   25.9664 C   0  0  0  0  0  0  0  0  0  0  0  0
   22.2773   16.5470   25.5126 H   0  0  0  0  0  0  0  0  0  0  0  0
   21.4900   17.6169   26.6944 H   0  0  0  0  0  0  0  0  0  0  0  0
   20.9448   15.9375   26.5142 H   0  0  0  0  0  0  0  0  0  0  0  0
   20.2972   17.2532   24.8915 C   0  0  0  0  0  0  0  0  0  0  0  0
   19.3351   17.4811   25.3714 H   0  0  0  0  0  0  0  0  0  0  0  0
   20.1164   16.4193   24.1988 H   0  0  0  0  0  0  0  0  0  0  0  0
   20.7931   18.4869   24.1049 C   0  0  0  0  0  0  0  0  0  0  0  0
   20.9747   19.3164   24.8023 H   0  0  0  0  0  0  0  0  0  0  0  0
   21.7561   18.2548   23.6294 H   0  0  0  0  0  0  0  0  0  0  0  0
   19.7777   18.9296   23.0272 C   0  0  0  0  0  0  0  0  0  0  0  0
   18.8178   19.1579   23.5090 H   0  0  0  0  0  0  0  0  0  0  0  0
   19.5997   18.0928   22.3390 H   0  0  0  0  0  0  0  0  0  0  0  0
   20.2830   20.1665   22.2394 C   0  0  0  0  0  0  0  0  0  0  0  0
   20.5034   20.9780   22.9453 H   0  0  0  0  0  0  0  0  0  0  0  0
   21.2368   19.9222   21.7532 H   0  0  0  0  0  0  0  0  0  0  0  0
   19.3030   20.7029   21.1692 C   0  0  1  0  0  0  0  0  0  0  0  0
   19.7675   21.5843   20.7163 H   0  0  0  0  0  0  0  0  0  0  0  0
   19.0550   19.6800   20.0467 C   0  0  0  0  0  0  0  0  0  0  0  0
   18.5022   18.8053   20.4093 H   0  0  0  0  0  0  0  0  0  0  0  0
   20.0037   19.3341   19.6177 H   0  0  0  0  0  0  0  0  0  0  0  0
   18.4701   20.1335   19.2372 H   0  0  0  0  0  0  0  0  0  0  0  0
   18.0049   21.1755   21.7641 N   0  3  0  0  0  0  0  0  0  0  0  0
   17.3940   21.5850   21.0516 H   0  0  0  0  0  0  0  0  0  0  0  0
   17.4934   20.4047   22.2004 H   0  0  0  0  0  0  0  0  0  0  0  0
   18.1586   21.8895   22.4818 H   0  0  0  0  0  0  0  0  0  0  0  0
  1  2  1  0  0  0  0
  1  3  1  0  0  0  0
  1  4  1  0  0  0  0
  1  5  1  0  0  0  0
  5  6  1  0  0  0  0
  5  7  1  0  0  0  0
  5  8  1  0  0  0  0
  8  9  1  0  0  0  0
  8 10  1  0  0  0  0
  8 11  1  0  0  0  0
 11 12  1  0  0  0  0
 11 13  1  0  0  0  0
 11 14  1  0  0  0  0
 14 15  1  0  0  0  0
 14 16  1  0  0  0  0
 14 17  1  0  0  0  0
 17 18  1  0  0  0  0
 17 19  1  0  0  0  0
 19 20  1  0  0  0  0
 19 21  1  0  0  0  0
 19 22  1  0  0  0  0
 17 23  1  0  0  0  0
 23 24  1  0  0  0  0
 23 25  1  0  0  0  0
 23 26  1  0  0  0  0
M  END
> <VConfSearch Rank>
965

> <Conf_Id>
132

> <Delta U+W>
0.363

> <U+W>
-29.936

> <U>
24.060

> <W>
-53.996

> <W(PB)>
-56.327

> <W(SA)>
2.332

> <Valence>
3.249

> <Coulomb>
19.781

> <VdW>
1.030

> <VdW6>
-7.421

> <VdW12>
8.451

> <Bond>
0.207

> <Angle>
1.205

> <Pdih>
1.837

> <Idih>
0.000

> <Tether>
0.000

$$$$
VeraChem MOL file


 26 25  0  0  0  0  0  0  0  0999 V2000     
   21.7128   20.7872   25.9703 C   0  0  0  0  0  0  0  0  0  0  0  0
   21.3124   21.6178   26.5660 H   0  0  0  0  0  0  0  0  0  0  0  0
   22.0148   19.9910   26.6631 H   0  0  0  0  0  0  0  0  0  0  0  0
   22.6105   21.1472   25.4508 H   0  0  0  0  0  0  0  0  0  0  0  0
   20.6573   20.2786   24.9656 C   0  0  0  0  0  0  0  0  0  0  0  0
   20.3514   21.1121   24.3197 H   0  0  0  0  0  0  0  0  0  0  0  0
   19.7614   19.9532   25.5126 H   0  0  0  0  0  0  0  0  0  0  0  0
   21.2014   19.1096   24.1106 C   0  0  0  0  0  0  0  0  0  0  0  0
   22.0640   19.4509   23.5218 H   0  0  0  0  0  0  0  0  0  0  0  0
   21.5780   18.3245   24.7808 H   0  0  0  0  0  0  0  0  0  0  0  0
   20.1440   18.4827   23.1687 C   0  0  0  0  0  0  0  0  0  0  0  0
   19.2888   18.1382   23.7650 H   0  0  0  0  0  0  0  0  0  0  0  0
   20.5867   17.5870   22.7145 H   0  0  0  0  0  0  0  0  0  0  0  0
   19.6635   19.4491   22.0513 C   0  0  0  0  0  0  0  0  0  0  0  0
   19.1924   20.3299   22.5040 H   0  0  0  0  0  0  0  0  0  0  0  0
   20.5331   19.8226   21.4947 H   0  0  0  0  0  0  0  0  0  0  0  0
   18.6571   18.8356   21.0490 C   0  0  1  0  0  0  0  0  0  0  0  0
   18.3624   19.6315   20.3579 H   0  0  0  0  0  0  0  0  0  0  0  0
   19.2842   17.7061   20.2129 C   0  0  0  0  0  0  0  0  0  0  0  0
   19.5131   16.8257   20.8247 H   0  0  0  0  0  0  0  0  0  0  0  0
   20.2119   18.0437   19.7344 H   0  0  0  0  0  0  0  0  0  0  0  0
   18.5966   17.3910   19.4185 H   0  0  0  0  0  0  0  0  0  0  0  0
   17.3910   18.3735   21.7165 N   0  3  0  0  0  0  0  0  0  0  0  0
   16.9422   19.1324   22.2371 H   0  0  0  0  0  0  0  0  0  0  0  0
   16.7118   18.0284   21.0325 H   0  0  0  0  0  0  0  0  0  0  0  0
   17.5751   17.6137   22.3762 H   0  0  0  0  0  0  0  0  0  0  0  0
  1  2  1  0  0  0  0
  1  3  1  0  0  0  0
  1  4  1  0  0  0  0
  1  5  1  0  0  0  0
  5  6  1  0  0  0  0
  5  7  1  0  0  0  0
  5  8  1  0  0  0  0
  8  9  1  0  0  0  0
  8 10  1  0  0  0  0
  8 11  1  0  0  0  0
 11 12  1  0  0  0  0
 11 13  1  0  0  0  0
 11 14  1  0  0  0  0
 14 15  1  0  0  0  0
 14 16  1  0  0  0  0
 14 17  1  0  0  0  0
 17 18  1  0  0  0  0
 17 19  1  0  0  0  0
 19 20  1  0  0  0  0
 19 21  1  0  0  0  0
 19 22  1  0  0  0  0
 17 23  1  0  0  0  0
 23 24  1  0  0  0  0
 23 25  1  0  0  0  0
 23 26  1  0  0  0  0
M  END
> <VConfSearch Rank>
966

> <Conf_Id>
46

> <Delta U+W>
1.114

> <U+W>
-29.185

> <U>
24.990

> <W>
-54.175

> <W(PB)>
-56.455

> <W(SA)>
2.279

> <Valence>
3.862

> <Coulomb>
19.956

> <VdW>
1.172

> <VdW6>
-8.054

> <VdW12>
9.226

> <Bond>
0.258

> <Angle>
1.499

> <Pdih>
2.106

> <Idih>
0.000

> <Tether>
0.000

$$$$
VeraChem MOL file


 26 25  0  0  0  0  0  0  0  0999 V2000     
   22.0284   20.7727   25.4124 C   0  0  0  0  0  0  0  0  0  0  0  0
   21.6827   21.6405   24.8374 H   0  0  0  0  0  0  0  0  0  0  0  0
   21.3609   20.6418   26.2739 H   0  0  0  0  0  0  0  0  0  0  0  0
   23.0290   21.0100   25.7963 H   0  0  0  0  0  0  0  0  0  0  0  0
   22.0721   19.4950   24.5437 C   0  0  0  0  0  0  0  0  0  0  0  0
   22.5431   18.6897   25.1246 H   0  0  0  0  0  0  0  0  0  0  0  0
   22.7189   19.6628   23.6712 H   0  0  0  0  0  0  0  0  0  0  0  0
   20.6757   19.0173   24.0770 C   0  0  0  0  0  0  0  0  0  0  0  0
   20.7970   18.0441   23.5838 H   0  0  0  0  0  0  0  0  0  0  0  0
   20.0370   18.8423   24.9537 H   0  0  0  0  0  0  0  0  0  0  0  0
   19.9767   20.0077   23.1110 C   0  0  0  0  0  0  0  0  0  0  0  0
   20.6257   20.2066   22.2480 H   0  0  0  0  0  0  0  0  0  0  0  0
   19.8370   20.9729   23.6147 H   0  0  0  0  0  0  0  0  0  0  0  0
   18.5879   19.5143   22.6295 C   0  0  0  0  0  0  0  0  0  0  0  0
   17.9292   19.4084   23.5018 H   0  0  0  0  0  0  0  0  0  0  0  0
   18.1345   20.2881   21.9959 H   0  0  0  0  0  0  0  0  0  0  0  0
   18.6184   18.1766   21.8563 C   0  0  1  0  0  0  0  0  0  0  0  0
   19.0481   17.4105   22.5082 H   0  0  0  0  0  0  0  0  0  0  0  0
   17.1920   17.7416   21.4843 C   0  0  0  0  0  0  0  0  0  0  0  0
   17.2032   16.7727   20.9701 H   0  0  0  0  0  0  0  0  0  0  0  0
   16.7129   18.4741   20.8226 H   0  0  0  0  0  0  0  0  0  0  0  0
   16.5707   17.6346   22.3822 H   0  0  0  0  0  0  0  0  0  0  0  0
   19.4892   18.2411   20.6315 N   0  3  0  0  0  0  0  0  0  0  0  0
   20.4516   18.4924   20.8729 H   0  0  0  0  0  0  0  0  0  0  0  0
   19.5191   17.3408   20.1448 H   0  0  0  0  0  0  0  0  0  0  0  0
   19.1456   18.9383   19.9659 H   0  0  0  0  0  0  0  0  0  0  0  0
  1  2  1  0  0  0  0
  1  3  1  0  0  0  0
  1  4  1  0  0  0  0
  1  5  1  0  0  0  0
  5  6  1  0  0  0  0
  5  7  1  0  0  0  0
  5  8  1  0  0  0  0
  8  9  1  0  0  0  0
  8 10  1  0  0  0  0
  8 11  1  0  0  0  0
 11 12  1  0  0  0  0
 11 13  1  0  0  0  0
 11 14  1  0  0  0  0
 14 15  1  0  0  0  0
 14 16  1  0  0  0  0
 14 17  1  0  0  0  0
 17 18  1  0  0  0  0
 17 19  1  0  0  0  0
 19 20  1  0  0  0  0
 19 21  1  0  0  0  0
 19 22  1  0  0  0  0
 17 23  1  0  0  0  0
 23 24  1  0  0  0  0
 23 25  1  0  0  0  0
 23 26  1  0  0  0  0
M  END
> <VConfSearch Rank>
967

> <Conf_Id>
113

> <Delta U+W>
1.137

> <U+W>
-29.162

> <U>
24.833

> <W>
-53.995

> <W(PB)>
-56.288

> <W(SA)>
2.294

> <Valence>
3.589

> <Coulomb>
20.270

> <VdW>
0.974

> <VdW6>
-8.255

> <VdW12>
9.229

> <Bond>
0.244

> <Angle>
1.377

> <Pdih>
1.967

> <Idih>
0.000

> <Tether>
0.000

$$$$
VeraChem MOL file


 26 25  0  0  0  0  0  0  0  0999 V2000     
   22.1357   22.0535   21.6941 C   0  0  0  0  0  0  0  0  0  0  0  0
   21.7900   22.9250   21.1232 H   0  0  0  0  0  0  0  0  0  0  0  0
   22.5009   22.4104   22.6659 H   0  0  0  0  0  0  0  0  0  0  0  0
   22.9816   21.6103   21.1527 H   0  0  0  0  0  0  0  0  0  0  0  0
   20.9934   21.0309   21.8728 C   0  0  0  0  0  0  0  0  0  0  0  0
   20.6298   20.7150   20.8850 H   0  0  0  0  0  0  0  0  0  0  0  0
   20.1526   21.5221   22.3801 H   0  0  0  0  0  0  0  0  0  0  0  0
   21.4563   19.7945   22.6793 C   0  0  0  0  0  0  0  0  0  0  0  0
   22.3470   19.3679   22.1977 H   0  0  0  0  0  0  0  0  0  0  0  0
   21.7697   20.1048   23.6857 H   0  0  0  0  0  0  0  0  0  0  0  0
   20.3799   18.6866   22.7884 C   0  0  0  0  0  0  0  0  0  0  0  0
   20.8383   17.8117   23.2677 H   0  0  0  0  0  0  0  0  0  0  0  0
   20.0882   18.3699   21.7783 H   0  0  0  0  0  0  0  0  0  0  0  0
   19.1265   19.1235   23.5951 C   0  0  0  0  0  0  0  0  0  0  0  0
   19.4443   19.5383   24.5606 H   0  0  0  0  0  0  0  0  0  0  0  0
   18.6135   19.9379   23.0687 H   0  0  0  0  0  0  0  0  0  0  0  0
   18.0999   17.9968   23.8601 C   0  0  1  0  0  0  0  0  0  0  0  0
   17.2805   18.4338   24.4392 H   0  0  0  0  0  0  0  0  0  0  0  0
   17.5031   17.4408   22.5554 C   0  0  0  0  0  0  0  0  0  0  0  0
   18.2533   16.9037   21.9630 H   0  0  0  0  0  0  0  0  0  0  0  0
   17.0923   18.2499   21.9387 H   0  0  0  0  0  0  0  0  0  0  0  0
   16.6862   16.7422   22.7744 H   0  0  0  0  0  0  0  0  0  0  0  0
   18.6648   16.8909   24.7089 N   0  3  0  0  0  0  0  0  0  0  0  0
   19.0259   17.2471   25.5984 H   0  0  0  0  0  0  0  0  0  0  0  0
   17.9541   16.1870   24.9277 H   0  0  0  0  0  0  0  0  0  0  0  0
   19.4338   16.4125   24.2335 H   0  0  0  0  0  0  0  0  0  0  0  0
  1  2  1  0  0  0  0
  1  3  1  0  0  0  0
  1  4  1  0  0  0  0
  1  5  1  0  0  0  0
  5  6  1  0  0  0  0
  5  7  1  0  0  0  0
  5  8  1  0  0  0  0
  8  9  1  0  0  0  0
  8 10  1  0  0  0  0
  8 11  1  0  0  0  0
 11 12  1  0  0  0  0
 11 13  1  0  0  0  0
 11 14  1  0  0  0  0
 14 15  1  0  0  0  0
 14 16  1  0  0  0  0
 14 17  1  0  0  0  0
 17 18  1  0  0  0  0
 17 19  1  0  0  0  0
 19 20  1  0  0  0  0
 19 21  1  0  0  0  0
 19 22  1  0  0  0  0
 17 23  1  0  0  0  0
 23 24  1  0  0  0  0
 23 25  1  0  0  0  0
 23 26  1  0  0  0  0
M  END
> <VConfSearch Rank>
968

> <Conf_Id>
45

> <Delta U+W>
1.035

> <U+W>
-29.264

> <U>
24.725

> <W>
-53.989

> <W(PB)>
-56.298

> <W(SA)>
2.309

> <Valence>
3.780

> <Coulomb>
19.804

> <VdW>
1.141

> <VdW6>
-8.104

> <VdW12>
9.246

> <Bond>
0.254

> <Angle>
1.437

> <Pdih>
2.089

> <Idih>
0.000

> <Tether>
0.000

$$$$
VeraChem MOL file


 26 25  0  0  0  0  0  0  0  0999 V2000     
   16.0044   20.2994   23.1596 C   0  0  0  0  0  0  0  0  0  0  0  0
   15.1507   19.6166   23.0589 H   0  0  0  0  0  0  0  0  0  0  0  0
   15.8218   20.9403   24.0320 H   0  0  0  0  0  0  0  0  0  0  0  0
   16.0329   20.9373   22.2666 H   0  0  0  0  0  0  0  0  0  0  0  0
   17.3199   19.5076   23.3175 C   0  0  0  0  0  0  0  0  0  0  0  0
   17.4448   18.8498   22.4473 H   0  0  0  0  0  0  0  0  0  0  0  0
   17.2498   18.8582   24.2012 H   0  0  0  0  0  0  0  0  0  0  0  0
   18.5389   20.4501   23.4566 C   0  0  0  0  0  0  0  0  0  0  0  0
   18.6419   21.0597   22.5482 H   0  0  0  0  0  0  0  0  0  0  0  0
   18.3516   21.1538   24.2795 H   0  0  0  0  0  0  0  0  0  0  0  0
   19.8697   19.7101   23.7396 C   0  0  0  0  0  0  0  0  0  0  0  0
   19.7655   19.1025   24.6493 H   0  0  0  0  0  0  0  0  0  0  0  0
   20.6368   20.4645   23.9581 H   0  0  0  0  0  0  0  0  0  0  0  0
   20.3427   18.8155   22.5648 C   0  0  0  0  0  0  0  0  0  0  0  0
   19.5848   18.0482   22.3650 H   0  0  0  0  0  0  0  0  0  0  0  0
   20.4297   19.4176   21.6506 H   0  0  0  0  0  0  0  0  0  0  0  0
   21.6858   18.1081   22.8496 C   0  0  1  0  0  0  0  0  0  0  0  0
   21.5854   17.5446   23.7824 H   0  0  0  0  0  0  0  0  0  0  0  0
   22.0176   17.1178   21.7216 C   0  0  0  0  0  0  0  0  0  0  0  0
   22.1294   17.6342   20.7600 H   0  0  0  0  0  0  0  0  0  0  0  0
   21.2248   16.3668   21.6159 H   0  0  0  0  0  0  0  0  0  0  0  0
   22.9530   16.5857   21.9346 H   0  0  0  0  0  0  0  0  0  0  0  0
   22.8193   19.0773   23.0482 N   0  3  0  0  0  0  0  0  0  0  0  0
   22.6353   19.7144   23.8277 H   0  0  0  0  0  0  0  0  0  0  0  0
   23.6965   18.5902   23.2524 H   0  0  0  0  0  0  0  0  0  0  0  0
   22.9733   19.6481   22.2129 H   0  0  0  0  0  0  0  0  0  0  0  0
  1  2  1  0  0  0  0
  1  3  1  0  0  0  0
  1  4  1  0  0  0  0
  1  5  1  0  0  0  0
  5  6  1  0  0  0  0
  5  7  1  0  0  0  0
  5  8  1  0  0  0  0
  8  9  1  0  0  0  0
  8 10  1  0  0  0  0
  8 11  1  0  0  0  0
 11 12  1  0  0  0  0
 11 13  1  0  0  0  0
 11 14  1  0  0  0  0
 14 15  1  0  0  0  0
 14 16  1  0  0  0  0
 14 17  1  0  0  0  0
 17 18  1  0  0  0  0
 17 19  1  0  0  0  0
 19 20  1  0  0  0  0
 19 21  1  0  0  0  0
 19 22  1  0  0  0  0
 17 23  1  0  0  0  0
 23 24  1  0  0  0  0
 23 25  1  0  0  0  0
 23 26  1  0  0  0  0
M  END
> <VConfSearch Rank>
969

> <Conf_Id>
121

> <Delta U+W>
0.736

> <U+W>
-29.562

> <U>
24.282

> <W>
-53.844

> <W(PB)>
-56.205

> <W(SA)>
2.361

> <Valence>
3.311

> <Coulomb>
19.887

> <VdW>
1.083

> <VdW6>
-7.444

> <VdW12>
8.527

> <Bond>
0.219

> <Angle>
1.167

> <Pdih>
1.926

> <Idih>
0.000

> <Tether>
0.000

$$$$
VeraChem MOL file


 26 25  0  0  0  0  0  0  0  0999 V2000     
   21.9646   16.3203   22.0309 C   0  0  0  0  0  0  0  0  0  0  0  0
   22.6213   15.4840   22.3035 H   0  0  0  0  0  0  0  0  0  0  0  0
   21.3702   16.0103   21.1616 H   0  0  0  0  0  0  0  0  0  0  0  0
   22.6062   17.1571   21.7287 H   0  0  0  0  0  0  0  0  0  0  0  0
   21.0537   16.7017   23.2199 C   0  0  0  0  0  0  0  0  0  0  0  0
   21.6700   17.0404   24.0644 H   0  0  0  0  0  0  0  0  0  0  0  0
   20.5287   15.8000   23.5652 H   0  0  0  0  0  0  0  0  0  0  0  0
   20.0030   17.7834   22.8711 C   0  0  0  0  0  0  0  0  0  0  0  0
   19.3844   17.4363   22.0320 H   0  0  0  0  0  0  0  0  0  0  0  0
   19.3280   17.8905   23.7302 H   0  0  0  0  0  0  0  0  0  0  0  0
   20.6266   19.1599   22.5270 C   0  0  0  0  0  0  0  0  0  0  0  0
   21.2895   19.0550   21.6585 H   0  0  0  0  0  0  0  0  0  0  0  0
   21.2644   19.4975   23.3545 H   0  0  0  0  0  0  0  0  0  0  0  0
   19.5692   20.2440   22.1920 C   0  0  0  0  0  0  0  0  0  0  0  0
   20.0863   21.1774   21.9329 H   0  0  0  0  0  0  0  0  0  0  0  0
   19.0304   19.9338   21.2870 H   0  0  0  0  0  0  0  0  0  0  0  0
   18.5377   20.5278   23.3098 C   0  0  1  0  0  0  0  0  0  0  0  0
   18.0215   19.5936   23.5495 H   0  0  0  0  0  0  0  0  0  0  0  0
   19.2043   21.0583   24.5917 C   0  0  0  0  0  0  0  0  0  0  0  0
   19.7844   21.9674   24.3902 H   0  0  0  0  0  0  0  0  0  0  0  0
   19.8767   20.3110   25.0287 H   0  0  0  0  0  0  0  0  0  0  0  0
   18.4486   21.2977   25.3498 H   0  0  0  0  0  0  0  0  0  0  0  0
   17.4779   21.4845   22.8386 N   0  3  0  0  0  0  0  0  0  0  0  0
   16.9915   21.1307   22.0099 H   0  0  0  0  0  0  0  0  0  0  0  0
   16.7703   21.6448   23.5612 H   0  0  0  0  0  0  0  0  0  0  0  0
   17.8769   22.3951   22.5954 H   0  0  0  0  0  0  0  0  0  0  0  0
  1  2  1  0  0  0  0
  1  3  1  0  0  0  0
  1  4  1  0  0  0  0
  1  5  1  0  0  0  0
  5  6  1  0  0  0  0
  5  7  1  0  0  0  0
  5  8  1  0  0  0  0
  8  9  1  0  0  0  0
  8 10  1  0  0  0  0
  8 11  1  0  0  0  0
 11 12  1  0  0  0  0
 11 13  1  0  0  0  0
 11 14  1  0  0  0  0
 14 15  1  0  0  0  0
 14 16  1  0  0  0  0
 14 17  1  0  0  0  0
 17 18  1  0  0  0  0
 17 19  1  0  0  0  0
 19 20  1  0  0  0  0
 19 21  1  0  0  0  0
 19 22  1  0  0  0  0
 17 23  1  0  0  0  0
 23 24  1  0  0  0  0
 23 25  1  0  0  0  0
 23 26  1  0  0  0  0
M  END
> <VConfSearch Rank>
970

> <Conf_Id>
5

> <Delta U+W>
1.233

> <U+W>
-29.065

> <U>
25.023

> <W>
-54.088

> <W(PB)>
-56.383

> <W(SA)>
2.296

> <Valence>
4.083

> <Coulomb>
19.893

> <VdW>
1.047

> <VdW6>
-8.479

> <VdW12>
9.527

> <Bond>
0.256

> <Angle>
1.716

> <Pdih>
2.112

> <Idih>
0.000

> <Tether>
0.000

$$$$
VeraChem MOL file


 26 25  0  0  0  0  0  0  0  0999 V2000     
   16.7325   19.6746   21.0218 C   0  0  0  0  0  0  0  0  0  0  0  0
   16.1464   19.6755   20.0937 H   0  0  0  0  0  0  0  0  0  0  0  0
   16.4054   18.8126   21.6160 H   0  0  0  0  0  0  0  0  0  0  0  0
   16.4844   20.5892   21.5759 H   0  0  0  0  0  0  0  0  0  0  0  0
   18.2441   19.6088   20.7057 C   0  0  0  0  0  0  0  0  0  0  0  0
   18.4925   20.4186   20.0055 H   0  0  0  0  0  0  0  0  0  0  0  0
   18.4728   18.6697   20.1825 H   0  0  0  0  0  0  0  0  0  0  0  0
   19.1443   19.7442   21.9578 C   0  0  0  0  0  0  0  0  0  0  0  0
   20.1844   19.8274   21.6170 H   0  0  0  0  0  0  0  0  0  0  0  0
   18.9078   20.6819   22.4793 H   0  0  0  0  0  0  0  0  0  0  0  0
   19.0203   18.5517   22.9387 C   0  0  0  0  0  0  0  0  0  0  0  0
   19.2864   17.6213   22.4184 H   0  0  0  0  0  0  0  0  0  0  0  0
   17.9743   18.4409   23.2519 H   0  0  0  0  0  0  0  0  0  0  0  0
   19.8878   18.6914   24.2156 C   0  0  0  0  0  0  0  0  0  0  0  0
   19.5718   19.5725   24.7900 H   0  0  0  0  0  0  0  0  0  0  0  0
   19.6692   17.8276   24.8573 H   0  0  0  0  0  0  0  0  0  0  0  0
   21.4094   18.7447   23.9352 C   0  0  1  0  0  0  0  0  0  0  0  0
   21.5840   18.3607   22.9255 H   0  0  0  0  0  0  0  0  0  0  0  0
   21.9504   20.1840   24.0165 C   0  0  0  0  0  0  0  0  0  0  0  0
   21.8438   20.5890   25.0306 H   0  0  0  0  0  0  0  0  0  0  0  0
   21.4192   20.8525   23.3299 H   0  0  0  0  0  0  0  0  0  0  0  0
   23.0141   20.2124   23.7503 H   0  0  0  0  0  0  0  0  0  0  0  0
   22.1842   17.8494   24.8631 N   0  3  0  0  0  0  0  0  0  0  0  0
   21.8746   16.8758   24.7926 H   0  0  0  0  0  0  0  0  0  0  0  0
   23.1855   17.8662   24.6497 H   0  0  0  0  0  0  0  0  0  0  0  0
   22.0753   18.1375   25.8392 H   0  0  0  0  0  0  0  0  0  0  0  0
  1  2  1  0  0  0  0
  1  3  1  0  0  0  0
  1  4  1  0  0  0  0
  1  5  1  0  0  0  0
  5  6  1  0  0  0  0
  5  7  1  0  0  0  0
  5  8  1  0  0  0  0
  8  9  1  0  0  0  0
  8 10  1  0  0  0  0
  8 11  1  0  0  0  0
 11 12  1  0  0  0  0
 11 13  1  0  0  0  0
 11 14  1  0  0  0  0
 14 15  1  0  0  0  0
 14 16  1  0  0  0  0
 14 17  1  0  0  0  0
 17 18  1  0  0  0  0
 17 19  1  0  0  0  0
 19 20  1  0  0  0  0
 19 21  1  0  0  0  0
 19 22  1  0  0  0  0
 17 23  1  0  0  0  0
 23 24  1  0  0  0  0
 23 25  1  0  0  0  0
 23 26  1  0  0  0  0
M  END
> <VConfSearch Rank>
971

> <Conf_Id>
100

> <Delta U+W>
3.818

> <U+W>
-26.481

> <U>
27.496

> <W>
-53.977

> <W(PB)>
-56.267

> <W(SA)>
2.290

> <Valence>
6.472

> <Coulomb>
19.839

> <VdW>
1.185

> <VdW6>
-8.405

> <VdW12>
9.590

> <Bond>
0.248

> <Angle>
1.619

> <Pdih>
4.604

> <Idih>
0.000

> <Tether>
0.000

$$$$
VeraChem MOL file


 26 25  0  0  0  0  0  0  0  0999 V2000     
   19.2669   16.2565   20.5352 C   0  0  0  0  0  0  0  0  0  0  0  0
   19.1033   15.1711   20.5333 H   0  0  0  0  0  0  0  0  0  0  0  0
   18.3014   16.7431   20.3445 H   0  0  0  0  0  0  0  0  0  0  0  0
   19.9414   16.4971   19.7031 H   0  0  0  0  0  0  0  0  0  0  0  0
   19.8630   16.7154   21.8829 C   0  0  0  0  0  0  0  0  0  0  0  0
   20.8096   16.1863   22.0617 H   0  0  0  0  0  0  0  0  0  0  0  0
   19.1823   16.4316   22.6977 H   0  0  0  0  0  0  0  0  0  0  0  0
   20.1039   18.2410   21.9122 C   0  0  0  0  0  0  0  0  0  0  0  0
   20.7842   18.5168   21.0947 H   0  0  0  0  0  0  0  0  0  0  0  0
   19.1568   18.7581   21.7186 H   0  0  0  0  0  0  0  0  0  0  0  0
   20.7083   18.7010   23.2617 C   0  0  0  0  0  0  0  0  0  0  0  0
   21.6638   18.1767   23.4016 H   0  0  0  0  0  0  0  0  0  0  0  0
   20.0664   18.3824   24.0931 H   0  0  0  0  0  0  0  0  0  0  0  0
   20.9779   20.2302   23.3319 C   0  0  0  0  0  0  0  0  0  0  0  0
   21.8965   20.3916   23.9112 H   0  0  0  0  0  0  0  0  0  0  0  0
   21.1984   20.6174   22.3284 H   0  0  0  0  0  0  0  0  0  0  0  0
   19.8642   21.0894   23.9809 C   0  0  1  0  0  0  0  0  0  0  0  0
   20.1995   22.1305   23.9431 H   0  0  0  0  0  0  0  0  0  0  0  0
   18.5277   21.0079   23.2258 C   0  0  0  0  0  0  0  0  0  0  0  0
   18.0684   20.0176   23.3276 H   0  0  0  0  0  0  0  0  0  0  0  0
   18.6683   21.2205   22.1588 H   0  0  0  0  0  0  0  0  0  0  0  0
   17.8193   21.7461   23.6211 H   0  0  0  0  0  0  0  0  0  0  0  0
   19.6750   20.7706   25.4389 N   0  3  0  0  0  0  0  0  0  0  0  0
   20.5484   20.8759   25.9629 H   0  0  0  0  0  0  0  0  0  0  0  0
   18.9836   21.3904   25.8704 H   0  0  0  0  0  0  0  0  0  0  0  0
   19.3505   19.8098   25.5715 H   0  0  0  0  0  0  0  0  0  0  0  0
  1  2  1  0  0  0  0
  1  3  1  0  0  0  0
  1  4  1  0  0  0  0
  1  5  1  0  0  0  0
  5  6  1  0  0  0  0
  5  7  1  0  0  0  0
  5  8  1  0  0  0  0
  8  9  1  0  0  0  0
  8 10  1  0  0  0  0
  8 11  1  0  0  0  0
 11 12  1  0  0  0  0
 11 13  1  0  0  0  0
 11 14  1  0  0  0  0
 14 15  1  0  0  0  0
 14 16  1  0  0  0  0
 14 17  1  0  0  0  0
 17 18  1  0  0  0  0
 17 19  1  0  0  0  0
 19 20  1  0  0  0  0
 19 21  1  0  0  0  0
 19 22  1  0  0  0  0
 17 23  1  0  0  0  0
 23 24  1  0  0  0  0
 23 25  1  0  0  0  0
 23 26  1  0  0  0  0
M  END
> <VConfSearch Rank>
972

> <Conf_Id>
142

> <Delta U+W>
2.978

> <U+W>
-27.320

> <U>
26.848

> <W>
-54.168

> <W(PB)>
-56.427

> <W(SA)>
2.259

> <Valence>
5.823

> <Coulomb>
20.057

> <VdW>
0.968

> <VdW6>
-8.367

> <VdW12>
9.335

> <Bond>
0.267

> <Angle>
1.799

> <Pdih>
3.758

> <Idih>
0.000

> <Tether>
0.000

$$$$
VeraChem MOL file


 26 25  0  0  0  0  0  0  0  0999 V2000     
   19.9722   16.7764   25.5352 C   0  0  0  0  0  0  0  0  0  0  0  0
   21.0434   16.9251   25.7237 H   0  0  0  0  0  0  0  0  0  0  0  0
   19.5324   16.3300   26.4365 H   0  0  0  0  0  0  0  0  0  0  0  0
   19.8635   16.0485   24.7221 H   0  0  0  0  0  0  0  0  0  0  0  0
   19.2754   18.1152   25.2010 C   0  0  0  0  0  0  0  0  0  0  0  0
   19.3003   18.7555   26.0939 H   0  0  0  0  0  0  0  0  0  0  0  0
   18.2135   17.9362   24.9815 H   0  0  0  0  0  0  0  0  0  0  0  0
   19.9328   18.8797   24.0264 C   0  0  0  0  0  0  0  0  0  0  0  0
   19.4678   19.8711   23.9772 H   0  0  0  0  0  0  0  0  0  0  0  0
   20.9986   19.0363   24.2424 H   0  0  0  0  0  0  0  0  0  0  0  0
   19.7696   18.1681   22.6595 C   0  0  0  0  0  0  0  0  0  0  0  0
   18.7026   18.0719   22.4186 H   0  0  0  0  0  0  0  0  0  0  0  0
   20.1486   17.1417   22.7409 H   0  0  0  0  0  0  0  0  0  0  0  0
   20.5243   18.8449   21.4802 C   0  0  0  0  0  0  0  0  0  0  0  0
   21.6033   18.8252   21.6816 H   0  0  0  0  0  0  0  0  0  0  0  0
   20.3838   18.2155   20.5916 H   0  0  0  0  0  0  0  0  0  0  0  0
   20.1103   20.2887   21.0964 C   0  0  1  0  0  0  0  0  0  0  0  0
   20.5678   20.4987   20.1246 H   0  0  0  0  0  0  0  0  0  0  0  0
   18.5885   20.4404   20.9274 C   0  0  0  0  0  0  0  0  0  0  0  0
   18.0620   20.3349   21.8835 H   0  0  0  0  0  0  0  0  0  0  0  0
   18.1976   19.6856   20.2338 H   0  0  0  0  0  0  0  0  0  0  0  0
   18.3441   21.4278   20.5170 H   0  0  0  0  0  0  0  0  0  0  0  0
   20.6664   21.3319   22.0265 N   0  3  0  0  0  0  0  0  0  0  0  0
   21.6873   21.2772   22.0828 H   0  0  0  0  0  0  0  0  0  0  0  0
   20.4289   22.2770   21.7120 H   0  0  0  0  0  0  0  0  0  0  0  0
   20.2993   21.2211   22.9736 H   0  0  0  0  0  0  0  0  0  0  0  0
  1  2  1  0  0  0  0
  1  3  1  0  0  0  0
  1  4  1  0  0  0  0
  1  5  1  0  0  0  0
  5  6  1  0  0  0  0
  5  7  1  0  0  0  0
  5  8  1  0  0  0  0
  8  9  1  0  0  0  0
  8 10  1  0  0  0  0
  8 11  1  0  0  0  0
 11 12  1  0  0  0  0
 11 13  1  0  0  0  0
 11 14  1  0  0  0  0
 14 15  1  0  0  0  0
 14 16  1  0  0  0  0
 14 17  1  0  0  0  0
 17 18  1  0  0  0  0
 17 19  1  0  0  0  0
 19 20  1  0  0  0  0
 19 21  1  0  0  0  0
 19 22  1  0  0  0  0
 17 23  1  0  0  0  0
 23 24  1  0  0  0  0
 23 25  1  0  0  0  0
 23 26  1  0  0  0  0
M  END
> <VConfSearch Rank>
973

> <Conf_Id>
119

> <Delta U+W>
3.538

> <U+W>
-26.761

> <U>
27.482

> <W>
-54.243

> <W(PB)>
-56.494

> <W(SA)>
2.251

> <Valence>
5.284

> <Coulomb>
21.247

> <VdW>
0.951

> <VdW6>
-9.416

> <VdW12>
10.367

> <Bond>
0.323

> <Angle>
2.522

> <Pdih>
2.439

> <Idih>
0.000

> <Tether>
0.000

$$$$
VeraChem MOL file


 26 25  0  0  0  0  0  0  0  0999 V2000     
   19.0498   21.0018   20.0888 C   0  0  0  0  0  0  0  0  0  0  0  0
   18.1721   21.5739   20.4165 H   0  0  0  0  0  0  0  0  0  0  0  0
   19.9460   21.4758   20.5079 H   0  0  0  0  0  0  0  0  0  0  0  0
   19.1145   21.0830   18.9960 H   0  0  0  0  0  0  0  0  0  0  0  0
   18.9386   19.5205   20.5154 C   0  0  0  0  0  0  0  0  0  0  0  0
   19.8418   18.9776   20.2035 H   0  0  0  0  0  0  0  0  0  0  0  0
   18.1007   19.0585   19.9747 H   0  0  0  0  0  0  0  0  0  0  0  0
   18.7133   19.3314   22.0350 C   0  0  0  0  0  0  0  0  0  0  0  0
   17.7946   19.8542   22.3347 H   0  0  0  0  0  0  0  0  0  0  0  0
   18.5321   18.2670   22.2251 H   0  0  0  0  0  0  0  0  0  0  0  0
   19.8993   19.8311   22.8998 C   0  0  0  0  0  0  0  0  0  0  0  0
   19.9815   20.9194   22.7795 H   0  0  0  0  0  0  0  0  0  0  0  0
   20.8429   19.4136   22.5260 H   0  0  0  0  0  0  0  0  0  0  0  0
   19.7277   19.5293   24.4149 C   0  0  0  0  0  0  0  0  0  0  0  0
   20.1355   20.3754   24.9835 H   0  0  0  0  0  0  0  0  0  0  0  0
   18.6605   19.4974   24.6712 H   0  0  0  0  0  0  0  0  0  0  0  0
   20.4205   18.2448   24.9344 C   0  0  1  0  0  0  0  0  0  0  0  0
   20.1995   18.1706   26.0037 H   0  0  0  0  0  0  0  0  0  0  0  0
   19.8910   16.9666   24.2641 C   0  0  0  0  0  0  0  0  0  0  0  0
   20.1736   16.9211   23.2056 H   0  0  0  0  0  0  0  0  0  0  0  0
   18.7978   16.9123   24.3366 H   0  0  0  0  0  0  0  0  0  0  0  0
   20.3010   16.0771   24.7579 H   0  0  0  0  0  0  0  0  0  0  0  0
   21.9191   18.3231   24.8282 N   0  3  0  0  0  0  0  0  0  0  0  0
   22.2882   19.1424   25.3191 H   0  0  0  0  0  0  0  0  0  0  0  0
   22.3664   17.4966   25.2348 H   0  0  0  0  0  0  0  0  0  0  0  0
   22.2209   18.3867   23.8531 H   0  0  0  0  0  0  0  0  0  0  0  0
  1  2  1  0  0  0  0
  1  3  1  0  0  0  0
  1  4  1  0  0  0  0
  1  5  1  0  0  0  0
  5  6  1  0  0  0  0
  5  7  1  0  0  0  0
  5  8  1  0  0  0  0
  8  9  1  0  0  0  0
  8 10  1  0  0  0  0
  8 11  1  0  0  0  0
 11 12  1  0  0  0  0
 11 13  1  0  0  0  0
 11 14  1  0  0  0  0
 14 15  1  0  0  0  0
 14 16  1  0  0  0  0
 14 17  1  0  0  0  0
 17 18  1  0  0  0  0
 17 19  1  0  0  0  0
 19 20  1  0  0  0  0
 19 21  1  0  0  0  0
 19 22  1  0  0  0  0
 17 23  1  0  0  0  0
 23 24  1  0  0  0  0
 23 25  1  0  0  0  0
 23 26  1  0  0  0  0
M  END
> <VConfSearch Rank>
974

> <Conf_Id>
127

> <Delta U+W>
3.544

> <U+W>
-26.754

> <U>
27.509

> <W>
-54.263

> <W(PB)>
-56.496

> <W(SA)>
2.232

> <Valence>
6.375

> <Coulomb>
20.014

> <VdW>
1.120

> <VdW6>
-8.976

> <VdW12>
10.096

> <Bond>
0.304

> <Angle>
1.986

> <Pdih>
4.086

> <Idih>
0.000

> <Tether>
0.000

$$$$
VeraChem MOL file


 26 25  0  0  0  0  0  0  0  0999 V2000     
   18.1217   21.8570   23.1920 C   0  0  0  0  0  0  0  0  0  0  0  0
   17.3575   22.3724   22.5959 H   0  0  0  0  0  0  0  0  0  0  0  0
   18.3535   22.4923   24.0566 H   0  0  0  0  0  0  0  0  0  0  0  0
   19.0259   21.7808   22.5782 H   0  0  0  0  0  0  0  0  0  0  0  0
   17.6082   20.4713   23.6481 C   0  0  0  0  0  0  0  0  0  0  0  0
   17.3079   19.8697   22.7789 H   0  0  0  0  0  0  0  0  0  0  0  0
   16.6937   20.6269   24.2375 H   0  0  0  0  0  0  0  0  0  0  0  0
   18.6292   19.6925   24.5171 C   0  0  0  0  0  0  0  0  0  0  0  0
   19.2735   20.3928   25.0663 H   0  0  0  0  0  0  0  0  0  0  0  0
   18.0714   19.1400   25.2860 H   0  0  0  0  0  0  0  0  0  0  0  0
   19.4958   18.6659   23.7427 C   0  0  0  0  0  0  0  0  0  0  0  0
   18.8380   17.9128   23.2889 H   0  0  0  0  0  0  0  0  0  0  0  0
   20.1145   18.1326   24.4755 H   0  0  0  0  0  0  0  0  0  0  0  0
   20.4036   19.2957   22.6528 C   0  0  0  0  0  0  0  0  0  0  0  0
   19.7740   19.7416   21.8735 H   0  0  0  0  0  0  0  0  0  0  0  0
   20.9836   20.1188   23.0904 H   0  0  0  0  0  0  0  0  0  0  0  0
   21.3768   18.3092   21.9647 C   0  0  1  0  0  0  0  0  0  0  0  0
   21.8930   18.8625   21.1740 H   0  0  0  0  0  0  0  0  0  0  0  0
   22.4494   17.7798   22.9330 C   0  0  0  0  0  0  0  0  0  0  0  0
   22.9643   18.6079   23.4356 H   0  0  0  0  0  0  0  0  0  0  0  0
   23.2052   17.2015   22.3875 H   0  0  0  0  0  0  0  0  0  0  0  0
   22.0191   17.1258   23.7003 H   0  0  0  0  0  0  0  0  0  0  0  0
   20.6602   17.1770   21.2815 N   0  3  0  0  0  0  0  0  0  0  0  0
   19.9780   17.5211   20.5998 H   0  0  0  0  0  0  0  0  0  0  0  0
   21.3137   16.5688   20.7800 H   0  0  0  0  0  0  0  0  0  0  0  0
   20.1562   16.5961   21.9560 H   0  0  0  0  0  0  0  0  0  0  0  0
  1  2  1  0  0  0  0
  1  3  1  0  0  0  0
  1  4  1  0  0  0  0
  1  5  1  0  0  0  0
  5  6  1  0  0  0  0
  5  7  1  0  0  0  0
  5  8  1  0  0  0  0
  8  9  1  0  0  0  0
  8 10  1  0  0  0  0
  8 11  1  0  0  0  0
 11 12  1  0  0  0  0
 11 13  1  0  0  0  0
 11 14  1  0  0  0  0
 14 15  1  0  0  0  0
 14 16  1  0  0  0  0
 14 17  1  0  0  0  0
 17 18  1  0  0  0  0
 17 19  1  0  0  0  0
 19 20  1  0  0  0  0
 19 21  1  0  0  0  0
 19 22  1  0  0  0  0
 17 23  1  0  0  0  0
 23 24  1  0  0  0  0
 23 25  1  0  0  0  0
 23 26  1  0  0  0  0
M  END
> <VConfSearch Rank>
975

> <Conf_Id>
131

> <Delta U+W>
3.589

> <U+W>
-26.710

> <U>
27.573

> <W>
-54.283

> <W(PB)>
-56.537

> <W(SA)>
2.254

> <Valence>
6.363

> <Coulomb>
20.026

> <VdW>
1.184

> <VdW6>
-8.939

> <VdW12>
10.123

> <Bond>
0.298

> <Angle>
2.018

> <Pdih>
4.047

> <Idih>
0.000

> <Tether>
0.000

$$$$
VeraChem MOL file


 26 25  0  0  0  0  0  0  0  0999 V2000     
   19.1739   17.5220   20.7055 C   0  0  0  0  0  0  0  0  0  0  0  0
   20.0931   17.9471   20.2820 H   0  0  0  0  0  0  0  0  0  0  0  0
   19.3914   17.1501   21.7142 H   0  0  0  0  0  0  0  0  0  0  0  0
   18.8903   16.6569   20.0923 H   0  0  0  0  0  0  0  0  0  0  0  0
   18.0351   18.5648   20.7260 C   0  0  0  0  0  0  0  0  0  0  0  0
   17.1544   18.1321   21.2209 H   0  0  0  0  0  0  0  0  0  0  0  0
   17.7301   18.7735   19.6911 H   0  0  0  0  0  0  0  0  0  0  0  0
   18.4079   19.9061   21.4077 C   0  0  0  0  0  0  0  0  0  0  0  0
   19.2157   20.4004   20.8507 H   0  0  0  0  0  0  0  0  0  0  0  0
   17.5387   20.5727   21.3207 H   0  0  0  0  0  0  0  0  0  0  0  0
   18.7787   19.7904   22.9096 C   0  0  0  0  0  0  0  0  0  0  0  0
   18.2351   18.9483   23.3567 H   0  0  0  0  0  0  0  0  0  0  0  0
   18.4218   20.6925   23.4255 H   0  0  0  0  0  0  0  0  0  0  0  0
   20.3051   19.6660   23.1593 C   0  0  0  0  0  0  0  0  0  0  0  0
   20.7043   18.7652   22.6800 H   0  0  0  0  0  0  0  0  0  0  0  0
   20.8044   20.5166   22.6771 H   0  0  0  0  0  0  0  0  0  0  0  0
   20.6892   19.6619   24.6566 C   0  0  1  0  0  0  0  0  0  0  0  0
   20.2378   20.5395   25.1295 H   0  0  0  0  0  0  0  0  0  0  0  0
   20.1820   18.4016   25.3805 C   0  0  0  0  0  0  0  0  0  0  0  0
   20.5597   17.4897   24.9015 H   0  0  0  0  0  0  0  0  0  0  0  0
   19.0870   18.3577   25.3873 H   0  0  0  0  0  0  0  0  0  0  0  0
   20.5124   18.3978   26.4265 H   0  0  0  0  0  0  0  0  0  0  0  0
   22.1756   19.8012   24.8362 N   0  3  0  0  0  0  0  0  0  0  0  0
   22.6787   19.0127   24.4208 H   0  0  0  0  0  0  0  0  0  0  0  0
   22.5299   20.6569   24.3995 H   0  0  0  0  0  0  0  0  0  0  0  0
   22.4306   19.8379   25.8272 H   0  0  0  0  0  0  0  0  0  0  0  0
  1  2  1  0  0  0  0
  1  3  1  0  0  0  0
  1  4  1  0  0  0  0
  1  5  1  0  0  0  0
  5  6  1  0  0  0  0
  5  7  1  0  0  0  0
  5  8  1  0  0  0  0
  8  9  1  0  0  0  0
  8 10  1  0  0  0  0
  8 11  1  0  0  0  0
 11 12  1  0  0  0  0
 11 13  1  0  0  0  0
 11 14  1  0  0  0  0
 14 15  1  0  0  0  0
 14 16  1  0  0  0  0
 14 17  1  0  0  0  0
 17 18  1  0  0  0  0
 17 19  1  0  0  0  0
 19 20  1  0  0  0  0
 19 21  1  0  0  0  0
 19 22  1  0  0  0  0
 17 23  1  0  0  0  0
 23 24  1  0  0  0  0
 23 25  1  0  0  0  0
 23 26  1  0  0  0  0
M  END
> <VConfSearch Rank>
976

> <Conf_Id>
80

> <Delta U+W>
3.351

> <U+W>
-26.948

> <U>
27.261

> <W>
-54.209

> <W(PB)>
-56.471

> <W(SA)>
2.263

> <Valence>
6.230

> <Coulomb>
19.945

> <VdW>
1.087

> <VdW6>
-8.618

> <VdW12>
9.704

> <Bond>
0.277

> <Angle>
1.928

> <Pdih>
4.025

> <Idih>
0.000

> <Tether>
0.000

$$$$
VeraChem MOL file


 26 25  0  0  0  0  0  0  0  0999 V2000     
   21.9099   16.7791   21.9109 C   0  0  0  0  0  0  0  0  0  0  0  0
   21.8261   15.7174   21.6450 H   0  0  0  0  0  0  0  0  0  0  0  0
   22.8708   17.1468   21.5283 H   0  0  0  0  0  0  0  0  0  0  0  0
   21.9265   16.8441   23.0060 H   0  0  0  0  0  0  0  0  0  0  0  0
   20.7308   17.5809   21.3151 C   0  0  0  0  0  0  0  0  0  0  0  0
   19.7849   17.2128   21.7329 H   0  0  0  0  0  0  0  0  0  0  0  0
   20.6769   17.3781   20.2364 H   0  0  0  0  0  0  0  0  0  0  0  0
   20.8540   19.1134   21.5192 C   0  0  0  0  0  0  0  0  0  0  0  0
   21.7266   19.4680   20.9537 H   0  0  0  0  0  0  0  0  0  0  0  0
   19.9885   19.5977   21.0530 H   0  0  0  0  0  0  0  0  0  0  0  0
   21.0066   19.5878   22.9923 C   0  0  0  0  0  0  0  0  0  0  0  0
   21.1633   20.6751   23.0090 H   0  0  0  0  0  0  0  0  0  0  0  0
   21.9337   19.1622   23.3982 H   0  0  0  0  0  0  0  0  0  0  0  0
   19.8352   19.2228   23.9470 C   0  0  0  0  0  0  0  0  0  0  0  0
   19.3774   18.2686   23.6633 H   0  0  0  0  0  0  0  0  0  0  0  0
   20.2655   19.0546   24.9430 H   0  0  0  0  0  0  0  0  0  0  0  0
   18.7446   20.3106   24.0985 C   0  0  1  0  0  0  0  0  0  0  0  0
   19.2258   21.2300   24.4461 H   0  0  0  0  0  0  0  0  0  0  0  0
   18.0172   20.6202   22.7797 C   0  0  0  0  0  0  0  0  0  0  0  0
   18.6873   21.1203   22.0719 H   0  0  0  0  0  0  0  0  0  0  0  0
   17.1722   21.2979   22.9528 H   0  0  0  0  0  0  0  0  0  0  0  0
   17.6311   19.7055   22.3129 H   0  0  0  0  0  0  0  0  0  0  0  0
   17.7509   19.9289   25.1608 N   0  3  0  0  0  0  0  0  0  0  0  0
   18.2070   19.7641   26.0626 H   0  0  0  0  0  0  0  0  0  0  0  0
   17.0539   20.6653   25.3028 H   0  0  0  0  0  0  0  0  0  0  0  0
   17.2457   19.0747   24.9107 H   0  0  0  0  0  0  0  0  0  0  0  0
  1  2  1  0  0  0  0
  1  3  1  0  0  0  0
  1  4  1  0  0  0  0
  1  5  1  0  0  0  0
  5  6  1  0  0  0  0
  5  7  1  0  0  0  0
  5  8  1  0  0  0  0
  8  9  1  0  0  0  0
  8 10  1  0  0  0  0
  8 11  1  0  0  0  0
 11 12  1  0  0  0  0
 11 13  1  0  0  0  0
 11 14  1  0  0  0  0
 14 15  1  0  0  0  0
 14 16  1  0  0  0  0
 14 17  1  0  0  0  0
 17 18  1  0  0  0  0
 17 19  1  0  0  0  0
 19 20  1  0  0  0  0
 19 21  1  0  0  0  0
 19 22  1  0  0  0  0
 17 23  1  0  0  0  0
 23 24  1  0  0  0  0
 23 25  1  0  0  0  0
 23 26  1  0  0  0  0
M  END
> <VConfSearch Rank>
977

> <Conf_Id>
136

> <Delta U+W>
4.272

> <U+W>
-26.026

> <U>
28.262

> <W>
-54.288

> <W(PB)>
-56.488

> <W(SA)>
2.200

> <Valence>
7.096

> <Coulomb>
19.990

> <VdW>
1.175

> <VdW6>
-9.404

> <VdW12>
10.580

> <Bond>
0.360

> <Angle>
2.785

> <Pdih>
3.951

> <Idih>
0.000

> <Tether>
0.000

$$$$
VeraChem MOL file


 26 25  0  0  0  0  0  0  0  0999 V2000     
   21.1487   16.5999   23.5305 C   0  0  0  0  0  0  0  0  0  0  0  0
   20.0830   16.6949   23.2885 H   0  0  0  0  0  0  0  0  0  0  0  0
   21.3851   15.5282   23.5538 H   0  0  0  0  0  0  0  0  0  0  0  0
   21.3169   17.0026   24.5377 H   0  0  0  0  0  0  0  0  0  0  0  0
   22.0278   17.3234   22.4871 C   0  0  0  0  0  0  0  0  0  0  0  0
   21.7957   16.9371   21.4848 H   0  0  0  0  0  0  0  0  0  0  0  0
   23.0800   17.0676   22.6751 H   0  0  0  0  0  0  0  0  0  0  0  0
   21.8882   18.8672   22.4938 C   0  0  0  0  0  0  0  0  0  0  0  0
   22.2158   19.2722   23.4612 H   0  0  0  0  0  0  0  0  0  0  0  0
   22.5945   19.2656   21.7522 H   0  0  0  0  0  0  0  0  0  0  0  0
   20.4713   19.3908   22.1420 C   0  0  0  0  0  0  0  0  0  0  0  0
   19.9572   18.6725   21.4884 H   0  0  0  0  0  0  0  0  0  0  0  0
   20.5841   20.3119   21.5549 H   0  0  0  0  0  0  0  0  0  0  0  0
   19.6049   19.7016   23.3903 C   0  0  0  0  0  0  0  0  0  0  0  0
   19.5682   18.8227   24.0437 H   0  0  0  0  0  0  0  0  0  0  0  0
   20.0778   20.5007   23.9765 H   0  0  0  0  0  0  0  0  0  0  0  0
   18.1597   20.1099   23.0316 C   0  0  1  0  0  0  0  0  0  0  0  0
   17.7181   19.3109   22.4279 H   0  0  0  0  0  0  0  0  0  0  0  0
   17.3176   20.2717   24.3073 C   0  0  0  0  0  0  0  0  0  0  0  0
   17.7191   21.0650   24.9502 H   0  0  0  0  0  0  0  0  0  0  0  0
   17.3016   19.3391   24.8850 H   0  0  0  0  0  0  0  0  0  0  0  0
   16.2800   20.5260   24.0580 H   0  0  0  0  0  0  0  0  0  0  0  0
   18.1034   21.3623   22.1999 N   0  3  0  0  0  0  0  0  0  0  0  0
   18.5040   22.1606   22.6996 H   0  0  0  0  0  0  0  0  0  0  0  0
   18.6228   21.2538   21.3248 H   0  0  0  0  0  0  0  0  0  0  0  0
   17.1395   21.6062   21.9554 H   0  0  0  0  0  0  0  0  0  0  0  0
  1  2  1  0  0  0  0
  1  3  1  0  0  0  0
  1  4  1  0  0  0  0
  1  5  1  0  0  0  0
  5  6  1  0  0  0  0
  5  7  1  0  0  0  0
  5  8  1  0  0  0  0
  8  9  1  0  0  0  0
  8 10  1  0  0  0  0
  8 11  1  0  0  0  0
 11 12  1  0  0  0  0
 11 13  1  0  0  0  0
 11 14  1  0  0  0  0
 14 15  1  0  0  0  0
 14 16  1  0  0  0  0
 14 17  1  0  0  0  0
 17 18  1  0  0  0  0
 17 19  1  0  0  0  0
 19 20  1  0  0  0  0
 19 21  1  0  0  0  0
 19 22  1  0  0  0  0
 17 23  1  0  0  0  0
 23 24  1  0  0  0  0
 23 25  1  0  0  0  0
 23 26  1  0  0  0  0
M  END
> <VConfSearch Rank>
978

> <Conf_Id>
124

> <Delta U+W>
3.001

> <U+W>
-27.298

> <U>
26.787

> <W>
-54.085

> <W(PB)>
-56.347

> <W(SA)>
2.262

> <Valence>
5.742

> <Coulomb>
20.023

> <VdW>
1.022

> <VdW6>
-8.392

> <VdW12>
9.414

> <Bond>
0.261

> <Angle>
1.576

> <Pdih>
3.904

> <Idih>
0.000

> <Tether>
0.000

$$$$
VeraChem MOL file


 26 25  0  0  0  0  0  0  0  0999 V2000     
   21.6966   21.6883   22.3216 C   0  0  0  0  0  0  0  0  0  0  0  0
   22.7707   21.4921   22.4352 H   0  0  0  0  0  0  0  0  0  0  0  0
   21.5781   22.7474   22.0586 H   0  0  0  0  0  0  0  0  0  0  0  0
   21.2208   21.5338   23.2961 H   0  0  0  0  0  0  0  0  0  0  0  0
   21.0843   20.7872   21.2240 C   0  0  0  0  0  0  0  0  0  0  0  0
   21.5886   21.0202   20.2757 H   0  0  0  0  0  0  0  0  0  0  0  0
   20.0250   21.0367   21.0716 H   0  0  0  0  0  0  0  0  0  0  0  0
   21.2459   19.2716   21.5085 C   0  0  0  0  0  0  0  0  0  0  0  0
   21.4029   18.7596   20.5490 H   0  0  0  0  0  0  0  0  0  0  0  0
   22.1583   19.0893   22.0928 H   0  0  0  0  0  0  0  0  0  0  0  0
   20.0277   18.6043   22.1978 C   0  0  0  0  0  0  0  0  0  0  0  0
   20.2276   17.5272   22.2674 H   0  0  0  0  0  0  0  0  0  0  0  0
   19.1485   18.7125   21.5489 H   0  0  0  0  0  0  0  0  0  0  0  0
   19.7110   19.1652   23.6095 C   0  0  0  0  0  0  0  0  0  0  0  0
   20.6329   19.1917   24.2050 H   0  0  0  0  0  0  0  0  0  0  0  0
   19.3706   20.2040   23.5191 H   0  0  0  0  0  0  0  0  0  0  0  0
   18.6394   18.3750   24.3973 C   0  0  1  0  0  0  0  0  0  0  0  0
   18.5114   18.8749   25.3625 H   0  0  0  0  0  0  0  0  0  0  0  0
   17.2760   18.3828   23.6842 C   0  0  0  0  0  0  0  0  0  0  0  0
   17.3068   17.8174   22.7451 H   0  0  0  0  0  0  0  0  0  0  0  0
   16.9604   19.4088   23.4578 H   0  0  0  0  0  0  0  0  0  0  0  0
   16.5065   17.9313   24.3223 H   0  0  0  0  0  0  0  0  0  0  0  0
   19.0755   16.9702   24.7120 N   0  3  0  0  0  0  0  0  0  0  0  0
   18.3826   16.4836   25.2879 H   0  0  0  0  0  0  0  0  0  0  0  0
   19.2052   16.4208   23.8591 H   0  0  0  0  0  0  0  0  0  0  0  0
   19.9617   16.9580   25.2246 H   0  0  0  0  0  0  0  0  0  0  0  0
  1  2  1  0  0  0  0
  1  3  1  0  0  0  0
  1  4  1  0  0  0  0
  1  5  1  0  0  0  0
  5  6  1  0  0  0  0
  5  7  1  0  0  0  0
  5  8  1  0  0  0  0
  8  9  1  0  0  0  0
  8 10  1  0  0  0  0
  8 11  1  0  0  0  0
 11 12  1  0  0  0  0
 11 13  1  0  0  0  0
 11 14  1  0  0  0  0
 14 15  1  0  0  0  0
 14 16  1  0  0  0  0
 14 17  1  0  0  0  0
 17 18  1  0  0  0  0
 17 19  1  0  0  0  0
 19 20  1  0  0  0  0
 19 21  1  0  0  0  0
 19 22  1  0  0  0  0
 17 23  1  0  0  0  0
 23 24  1  0  0  0  0
 23 25  1  0  0  0  0
 23 26  1  0  0  0  0
M  END
> <VConfSearch Rank>
979

> <Conf_Id>
105

> <Delta U+W>
3.442

> <U+W>
-26.857

> <U>
27.313

> <W>
-54.169

> <W(PB)>
-56.414

> <W(SA)>
2.245

> <Valence>
6.229

> <Coulomb>
19.943

> <VdW>
1.140

> <VdW6>
-9.001

> <VdW12>
10.140

> <Bond>
0.294

> <Angle>
1.969

> <Pdih>
3.967

> <Idih>
0.000

> <Tether>
0.000

$$$$
VeraChem MOL file


 26 25  0  0  0  0  0  0  0  0999 V2000     
   21.8114   17.5720   24.6954 C   0  0  0  0  0  0  0  0  0  0  0  0
   21.8703   16.4859   24.5475 H   0  0  0  0  0  0  0  0  0  0  0  0
   22.4338   17.8233   25.5640 H   0  0  0  0  0  0  0  0  0  0  0  0
   20.7753   17.8224   24.9474 H   0  0  0  0  0  0  0  0  0  0  0  0
   22.3060   18.3276   23.4399 C   0  0  0  0  0  0  0  0  0  0  0  0
   23.3569   18.0528   23.2728 H   0  0  0  0  0  0  0  0  0  0  0  0
   22.3025   19.4116   23.6202 H   0  0  0  0  0  0  0  0  0  0  0  0
   21.4996   17.9914   22.1588 C   0  0  0  0  0  0  0  0  0  0  0  0
   22.1918   18.0103   21.3056 H   0  0  0  0  0  0  0  0  0  0  0  0
   21.1198   16.9616   22.2079 H   0  0  0  0  0  0  0  0  0  0  0  0
   20.3427   18.9736   21.8410 C   0  0  0  0  0  0  0  0  0  0  0  0
   19.8980   18.6806   20.8798 H   0  0  0  0  0  0  0  0  0  0  0  0
   20.7577   19.9798   21.6944 H   0  0  0  0  0  0  0  0  0  0  0  0
   19.2297   19.0155   22.9169 C   0  0  0  0  0  0  0  0  0  0  0  0
   18.9274   17.9877   23.1576 H   0  0  0  0  0  0  0  0  0  0  0  0
   19.6206   19.4603   23.8405 H   0  0  0  0  0  0  0  0  0  0  0  0
   17.9853   19.8075   22.4613 C   0  0  1  0  0  0  0  0  0  0  0  0
   17.6179   19.3633   21.5310 H   0  0  0  0  0  0  0  0  0  0  0  0
   16.8720   19.7071   23.5163 C   0  0  0  0  0  0  0  0  0  0  0  0
   17.1898   20.1429   24.4718 H   0  0  0  0  0  0  0  0  0  0  0  0
   16.5960   18.6601   23.6934 H   0  0  0  0  0  0  0  0  0  0  0  0
   15.9712   20.2364   23.1820 H   0  0  0  0  0  0  0  0  0  0  0  0
   18.2989   21.2475   22.1590 N   0  3  0  0  0  0  0  0  0  0  0  0
   19.0094   21.3294   21.4269 H   0  0  0  0  0  0  0  0  0  0  0  0
   17.4681   21.7518   21.8369 H   0  0  0  0  0  0  0  0  0  0  0  0
   18.6514   21.7347   22.9870 H   0  0  0  0  0  0  0  0  0  0  0  0
  1  2  1  0  0  0  0
  1  3  1  0  0  0  0
  1  4  1  0  0  0  0
  1  5  1  0  0  0  0
  5  6  1  0  0  0  0
  5  7  1  0  0  0  0
  5  8  1  0  0  0  0
  8  9  1  0  0  0  0
  8 10  1  0  0  0  0
  8 11  1  0  0  0  0
 11 12  1  0  0  0  0
 11 13  1  0  0  0  0
 11 14  1  0  0  0  0
 14 15  1  0  0  0  0
 14 16  1  0  0  0  0
 14 17  1  0  0  0  0
 17 18  1  0  0  0  0
 17 19  1  0  0  0  0
 19 20  1  0  0  0  0
 19 21  1  0  0  0  0
 19 22  1  0  0  0  0
 17 23  1  0  0  0  0
 23 24  1  0  0  0  0
 23 25  1  0  0  0  0
 23 26  1  0  0  0  0
M  END
> <VConfSearch Rank>
980

> <Conf_Id>
107

> <Delta U+W>
2.995

> <U+W>
-27.304

> <U>
26.796

> <W>
-54.100

> <W(PB)>
-56.404

> <W(SA)>
2.304

> <Valence>
5.706

> <Coulomb>
20.107

> <VdW>
0.982

> <VdW6>
-8.396

> <VdW12>
9.378

> <Bond>
0.254

> <Angle>
1.644

> <Pdih>
3.808

> <Idih>
0.000

> <Tether>
0.000

$$$$
VeraChem MOL file


 26 25  0  0  0  0  0  0  0  0999 V2000     
   23.7518   20.2632   23.8888 C   0  0  0  0  0  0  0  0  0  0  0  0
   23.6402   21.3381   23.6955 H   0  0  0  0  0  0  0  0  0  0  0  0
   24.4558   20.1420   24.7224 H   0  0  0  0  0  0  0  0  0  0  0  0
   24.1997   19.8006   22.9996 H   0  0  0  0  0  0  0  0  0  0  0  0
   22.3918   19.6158   24.2255 C   0  0  0  0  0  0  0  0  0  0  0  0
   21.9853   20.0753   25.1375 H   0  0  0  0  0  0  0  0  0  0  0  0
   22.5406   18.5496   24.4469 H   0  0  0  0  0  0  0  0  0  0  0  0
   21.3814   19.7724   23.0676 C   0  0  0  0  0  0  0  0  0  0  0  0
   21.2391   20.8397   22.8482 H   0  0  0  0  0  0  0  0  0  0  0  0
   21.7929   19.3133   22.1580 H   0  0  0  0  0  0  0  0  0  0  0  0
   20.0178   19.1260   23.4013 C   0  0  0  0  0  0  0  0  0  0  0  0
   19.6058   19.5886   24.3091 H   0  0  0  0  0  0  0  0  0  0  0  0
   20.1698   18.0619   23.6255 H   0  0  0  0  0  0  0  0  0  0  0  0
   19.0080   19.2834   22.2384 C   0  0  0  0  0  0  0  0  0  0  0  0
   18.9120   20.3497   21.9938 H   0  0  0  0  0  0  0  0  0  0  0  0
   19.3977   18.7893   21.3384 H   0  0  0  0  0  0  0  0  0  0  0  0
   17.6091   18.7224   22.5745 C   0  0  1  0  0  0  0  0  0  0  0  0
   17.2534   19.2121   23.4863 H   0  0  0  0  0  0  0  0  0  0  0  0
   16.6204   19.0376   21.4406 C   0  0  0  0  0  0  0  0  0  0  0  0
   16.9315   18.5661   20.5000 H   0  0  0  0  0  0  0  0  0  0  0  0
   16.5506   20.1197   21.2737 H   0  0  0  0  0  0  0  0  0  0  0  0
   15.6157   18.6741   21.6892 H   0  0  0  0  0  0  0  0  0  0  0  0
   17.6334   17.2450   22.8576 N   0  3  0  0  0  0  0  0  0  0  0  0
   17.9609   16.7146   22.0460 H   0  0  0  0  0  0  0  0  0  0  0  0
   18.2534   17.0242   23.6413 H   0  0  0  0  0  0  0  0  0  0  0  0
   16.7015   16.8946   23.0969 H   0  0  0  0  0  0  0  0  0  0  0  0
  1  2  1  0  0  0  0
  1  3  1  0  0  0  0
  1  4  1  0  0  0  0
  1  5  1  0  0  0  0
  5  6  1  0  0  0  0
  5  7  1  0  0  0  0
  5  8  1  0  0  0  0
  8  9  1  0  0  0  0
  8 10  1  0  0  0  0
  8 11  1  0  0  0  0
 11 12  1  0  0  0  0
 11 13  1  0  0  0  0
 11 14  1  0  0  0  0
 14 15  1  0  0  0  0
 14 16  1  0  0  0  0
 14 17  1  0  0  0  0
 17 18  1  0  0  0  0
 17 19  1  0  0  0  0
 19 20  1  0  0  0  0
 19 21  1  0  0  0  0
 19 22  1  0  0  0  0
 17 23  1  0  0  0  0
 23 24  1  0  0  0  0
 23 25  1  0  0  0  0
 23 26  1  0  0  0  0
M  END
> <VConfSearch Rank>
981

> <Conf_Id>
122

> <Delta U+W>
0.000

> <U+W>
-30.299

> <U>
23.517

> <W>
-53.816

> <W(PB)>
-56.162

> <W(SA)>
2.346

> <Valence>
2.737

> <Coulomb>
19.862

> <VdW>
0.919

> <VdW6>
-6.793

> <VdW12>
7.712

> <Bond>
0.171

> <Angle>
0.873

> <Pdih>
1.693

> <Idih>
0.000

> <Tether>
0.000

$$$$
VeraChem MOL file


 26 25  0  0  0  0  0  0  0  0999 V2000     
   16.7780   16.9610   24.8621 C   0  0  0  0  0  0  0  0  0  0  0  0
   16.6591   16.3600   25.7731 H   0  0  0  0  0  0  0  0  0  0  0  0
   16.0248   17.7594   24.8845 H   0  0  0  0  0  0  0  0  0  0  0  0
   16.5650   16.3139   24.0013 H   0  0  0  0  0  0  0  0  0  0  0  0
   18.2039   17.5457   24.7773 C   0  0  0  0  0  0  0  0  0  0  0  0
   18.9354   16.7255   24.7911 H   0  0  0  0  0  0  0  0  0  0  0  0
   18.3995   18.1600   25.6673 H   0  0  0  0  0  0  0  0  0  0  0  0
   18.3982   18.3969   23.5029 C   0  0  0  0  0  0  0  0  0  0  0  0
   18.1998   17.7792   22.6161 H   0  0  0  0  0  0  0  0  0  0  0  0
   17.6624   19.2130   23.4928 H   0  0  0  0  0  0  0  0  0  0  0  0
   19.8250   18.9846   23.4145 C   0  0  0  0  0  0  0  0  0  0  0  0
   20.5515   18.1617   23.4340 H   0  0  0  0  0  0  0  0  0  0  0  0
   20.0209   19.6061   24.2993 H   0  0  0  0  0  0  0  0  0  0  0  0
   20.0180   19.8336   22.1339 C   0  0  0  0  0  0  0  0  0  0  0  0
   19.8872   19.2004   21.2463 H   0  0  0  0  0  0  0  0  0  0  0  0
   19.2247   20.5918   22.0946 H   0  0  0  0  0  0  0  0  0  0  0  0
   21.3847   20.5527   22.0628 C   0  0  1  0  0  0  0  0  0  0  0  0
   21.5096   21.1431   22.9758 H   0  0  0  0  0  0  0  0  0  0  0  0
   22.5578   19.5613   21.9596 C   0  0  0  0  0  0  0  0  0  0  0  0
   22.4441   18.9009   21.0909 H   0  0  0  0  0  0  0  0  0  0  0  0
   22.6339   18.9380   22.8580 H   0  0  0  0  0  0  0  0  0  0  0  0
   23.5090   20.0978   21.8566 H   0  0  0  0  0  0  0  0  0  0  0  0
   21.4257   21.5276   20.9188 N   0  3  0  0  0  0  0  0  0  0  0  0
   21.3176   21.0531   20.0184 H   0  0  0  0  0  0  0  0  0  0  0  0
   20.6794   22.2252   20.9904 H   0  0  0  0  0  0  0  0  0  0  0  0
   22.3145   22.0353   20.8915 H   0  0  0  0  0  0  0  0  0  0  0  0
  1  2  1  0  0  0  0
  1  3  1  0  0  0  0
  1  4  1  0  0  0  0
  1  5  1  0  0  0  0
  5  6  1  0  0  0  0
  5  7  1  0  0  0  0
  5  8  1  0  0  0  0
  8  9  1  0  0  0  0
  8 10  1  0  0  0  0
  8 11  1  0  0  0  0
 11 12  1  0  0  0  0
 11 13  1  0  0  0  0
 11 14  1  0  0  0  0
 14 15  1  0  0  0  0
 14 16  1  0  0  0  0
 14 17  1  0  0  0  0
 17 18  1  0  0  0  0
 17 19  1  0  0  0  0
 19 20  1  0  0  0  0
 19 21  1  0  0  0  0
 19 22  1  0  0  0  0
 17 23  1  0  0  0  0
 23 24  1  0  0  0  0
 23 25  1  0  0  0  0
 23 26  1  0  0  0  0
M  END
> <VConfSearch Rank>
982

> <Conf_Id>
54

> <Delta U+W>
0.453

> <U+W>
-29.845

> <U>
23.817

> <W>
-53.663

> <W(PB)>
-56.021

> <W(SA)>
2.358

> <Valence>
3.277

> <Coulomb>
19.492

> <VdW>
1.049

> <VdW6>
-6.949

> <VdW12>
7.998

> <Bond>
0.183

> <Angle>
1.152

> <Pdih>
1.942

> <Idih>
0.000

> <Tether>
0.000

$$$$
VeraChem MOL file


 26 25  0  0  0  0  0  0  0  0999 V2000     
   19.8960   18.9316   26.6104 C   0  0  0  0  0  0  0  0  0  0  0  0
   20.5396   18.0434   26.5678 H   0  0  0  0  0  0  0  0  0  0  0  0
   20.5275   19.8202   26.4906 H   0  0  0  0  0  0  0  0  0  0  0  0
   19.4533   18.9764   27.6138 H   0  0  0  0  0  0  0  0  0  0  0  0
   18.7880   18.8675   25.5342 C   0  0  0  0  0  0  0  0  0  0  0  0
   18.1786   19.7813   25.5735 H   0  0  0  0  0  0  0  0  0  0  0  0
   18.1110   18.0368   25.7782 H   0  0  0  0  0  0  0  0  0  0  0  0
   19.3294   18.6581   24.0990 C   0  0  0  0  0  0  0  0  0  0  0  0
   19.9619   17.7600   24.0744 H   0  0  0  0  0  0  0  0  0  0  0  0
   18.4685   18.4630   23.4486 H   0  0  0  0  0  0  0  0  0  0  0  0
   20.1168   19.8763   23.5537 C   0  0  0  0  0  0  0  0  0  0  0  0
   20.9005   20.1523   24.2702 H   0  0  0  0  0  0  0  0  0  0  0  0
   19.4462   20.7440   23.4870 H   0  0  0  0  0  0  0  0  0  0  0  0
   20.8025   19.6478   22.1806 C   0  0  0  0  0  0  0  0  0  0  0  0
   21.4014   20.5436   21.9684 H   0  0  0  0  0  0  0  0  0  0  0  0
   21.5196   18.8191   22.2487 H   0  0  0  0  0  0  0  0  0  0  0  0
   19.8324   19.4105   20.9986 C   0  0  1  0  0  0  0  0  0  0  0  0
   18.9599   20.0574   21.1325 H   0  0  0  0  0  0  0  0  0  0  0  0
   20.5074   19.7829   19.6680 C   0  0  0  0  0  0  0  0  0  0  0  0
   19.8194   19.6312   18.8271 H   0  0  0  0  0  0  0  0  0  0  0  0
   21.4022   19.1725   19.4925 H   0  0  0  0  0  0  0  0  0  0  0  0
   20.8070   20.8384   19.6634 H   0  0  0  0  0  0  0  0  0  0  0  0
   19.3301   17.9938   20.9311 N   0  3  0  0  0  0  0  0  0  0  0  0
   18.8672   17.7178   21.7999 H   0  0  0  0  0  0  0  0  0  0  0  0
   18.6561   17.8721   20.1699 H   0  0  0  0  0  0  0  0  0  0  0  0
   20.0965   17.3354   20.7684 H   0  0  0  0  0  0  0  0  0  0  0  0
  1  2  1  0  0  0  0
  1  3  1  0  0  0  0
  1  4  1  0  0  0  0
  1  5  1  0  0  0  0
  5  6  1  0  0  0  0
  5  7  1  0  0  0  0
  5  8  1  0  0  0  0
  8  9  1  0  0  0  0
  8 10  1  0  0  0  0
  8 11  1  0  0  0  0
 11 12  1  0  0  0  0
 11 13  1  0  0  0  0
 11 14  1  0  0  0  0
 14 15  1  0  0  0  0
 14 16  1  0  0  0  0
 14 17  1  0  0  0  0
 17 18  1  0  0  0  0
 17 19  1  0  0  0  0
 19 20  1  0  0  0  0
 19 21  1  0  0  0  0
 19 22  1  0  0  0  0
 17 23  1  0  0  0  0
 23 24  1  0  0  0  0
 23 25  1  0  0  0  0
 23 26  1  0  0  0  0
M  END
> <VConfSearch Rank>
983

> <Conf_Id>
110

> <Delta U+W>
3.764

> <U+W>
-26.535

> <U>
27.400

> <W>
-53.935

> <W(PB)>
-56.238

> <W(SA)>
2.303

> <Valence>
5.205

> <Coulomb>
21.096

> <VdW>
1.098

> <VdW6>
-8.389

> <VdW12>
9.488

> <Bond>
0.270

> <Angle>
1.912

> <Pdih>
3.023

> <Idih>
0.000

> <Tether>
0.000

$$$$
VeraChem MOL file


 26 25  0  0  0  0  0  0  0  0999 V2000     
   18.9032   17.3204   19.8939 C   0  0  0  0  0  0  0  0  0  0  0  0
   18.4190   17.3120   18.9088 H   0  0  0  0  0  0  0  0  0  0  0  0
   19.9658   17.5437   19.7369 H   0  0  0  0  0  0  0  0  0  0  0  0
   18.8220   16.3106   20.3165 H   0  0  0  0  0  0  0  0  0  0  0  0
   18.2340   18.3645   20.8164 C   0  0  0  0  0  0  0  0  0  0  0  0
   17.1526   18.1706   20.8445 H   0  0  0  0  0  0  0  0  0  0  0  0
   18.3551   19.3686   20.3864 H   0  0  0  0  0  0  0  0  0  0  0  0
   18.7797   18.3467   22.2646 C   0  0  0  0  0  0  0  0  0  0  0  0
   18.1740   19.0320   22.8696 H   0  0  0  0  0  0  0  0  0  0  0  0
   18.6305   17.3481   22.6979 H   0  0  0  0  0  0  0  0  0  0  0  0
   20.2779   18.7341   22.3624 C   0  0  0  0  0  0  0  0  0  0  0  0
   20.4706   19.6669   21.8147 H   0  0  0  0  0  0  0  0  0  0  0  0
   20.8713   17.9587   21.8601 H   0  0  0  0  0  0  0  0  0  0  0  0
   20.7854   18.8595   23.8236 C   0  0  0  0  0  0  0  0  0  0  0  0
   20.1898   18.2217   24.4901 H   0  0  0  0  0  0  0  0  0  0  0  0
   21.8064   18.4570   23.8591 H   0  0  0  0  0  0  0  0  0  0  0  0
   20.8366   20.3063   24.3713 C   0  0  1  0  0  0  0  0  0  0  0  0
   21.4740   20.8983   23.7073 H   0  0  0  0  0  0  0  0  0  0  0  0
   19.4520   20.9738   24.4264 C   0  0  0  0  0  0  0  0  0  0  0  0
   18.7449   20.3751   25.0137 H   0  0  0  0  0  0  0  0  0  0  0  0
   19.0411   21.1115   23.4195 H   0  0  0  0  0  0  0  0  0  0  0  0
   19.5198   21.9678   24.8854 H   0  0  0  0  0  0  0  0  0  0  0  0
   21.4870   20.3470   25.7264 N   0  3  0  0  0  0  0  0  0  0  0  0
   22.4313   19.9517   25.7039 H   0  0  0  0  0  0  0  0  0  0  0  0
   21.5674   21.3067   26.0740 H   0  0  0  0  0  0  0  0  0  0  0  0
   20.9480   19.8168   26.4162 H   0  0  0  0  0  0  0  0  0  0  0  0
  1  2  1  0  0  0  0
  1  3  1  0  0  0  0
  1  4  1  0  0  0  0
  1  5  1  0  0  0  0
  5  6  1  0  0  0  0
  5  7  1  0  0  0  0
  5  8  1  0  0  0  0
  8  9  1  0  0  0  0
  8 10  1  0  0  0  0
  8 11  1  0  0  0  0
 11 12  1  0  0  0  0
 11 13  1  0  0  0  0
 11 14  1  0  0  0  0
 14 15  1  0  0  0  0
 14 16  1  0  0  0  0
 14 17  1  0  0  0  0
 17 18  1  0  0  0  0
 17 19  1  0  0  0  0
 19 20  1  0  0  0  0
 19 21  1  0  0  0  0
 19 22  1  0  0  0  0
 17 23  1  0  0  0  0
 23 24  1  0  0  0  0
 23 25  1  0  0  0  0
 23 26  1  0  0  0  0
M  END
> <VConfSearch Rank>
984

> <Conf_Id>
34

> <Delta U+W>
3.568

> <U+W>
-26.731

> <U>
27.221

> <W>
-53.952

> <W(PB)>
-56.213

> <W(SA)>
2.261

> <Valence>
6.368

> <Coulomb>
19.698

> <VdW>
1.155

> <VdW6>
-8.532

> <VdW12>
9.687

> <Bond>
0.272

> <Angle>
1.847

> <Pdih>
4.248

> <Idih>
0.000

> <Tether>
0.000

$$$$
VeraChem MOL file


 26 25  0  0  0  0  0  0  0  0999 V2000     
   19.6459   22.8598   24.5099 C   0  0  0  0  0  0  0  0  0  0  0  0
   19.4398   23.4141   23.5849 H   0  0  0  0  0  0  0  0  0  0  0  0
   18.7023   22.7501   25.0602 H   0  0  0  0  0  0  0  0  0  0  0  0
   20.3246   23.4673   25.1226 H   0  0  0  0  0  0  0  0  0  0  0  0
   20.2729   21.4831   24.2037 C   0  0  0  0  0  0  0  0  0  0  0  0
   20.4987   20.9675   25.1477 H   0  0  0  0  0  0  0  0  0  0  0  0
   21.2305   21.6264   23.6838 H   0  0  0  0  0  0  0  0  0  0  0  0
   19.3370   20.6073   23.3416 C   0  0  0  0  0  0  0  0  0  0  0  0
   18.3805   20.4694   23.8646 H   0  0  0  0  0  0  0  0  0  0  0  0
   19.1123   21.1283   22.4005 H   0  0  0  0  0  0  0  0  0  0  0  0
   19.9614   19.2277   23.0324 C   0  0  0  0  0  0  0  0  0  0  0  0
   20.1848   18.7140   23.9767 H   0  0  0  0  0  0  0  0  0  0  0  0
   20.9179   19.3767   22.5145 H   0  0  0  0  0  0  0  0  0  0  0  0
   19.0180   18.3548   22.1643 C   0  0  0  0  0  0  0  0  0  0  0  0
   18.0495   18.2559   22.6720 H   0  0  0  0  0  0  0  0  0  0  0  0
   18.8113   18.8737   21.2188 H   0  0  0  0  0  0  0  0  0  0  0  0
   19.5499   16.9371   21.8468 C   0  0  1  0  0  0  0  0  0  0  0  0
   18.7804   16.4254   21.2603 H   0  0  0  0  0  0  0  0  0  0  0  0
   20.8320   16.9768   20.9969 C   0  0  0  0  0  0  0  0  0  0  0  0
   21.6782   17.3912   21.5576 H   0  0  0  0  0  0  0  0  0  0  0  0
   20.6843   17.5858   20.0964 H   0  0  0  0  0  0  0  0  0  0  0  0
   21.1083   15.9660   20.6727 H   0  0  0  0  0  0  0  0  0  0  0  0
   19.7497   16.1077   23.0854 N   0  3  0  0  0  0  0  0  0  0  0  0
   20.0409   15.1537   22.8539 H   0  0  0  0  0  0  0  0  0  0  0  0
   20.4700   16.5099   23.6901 H   0  0  0  0  0  0  0  0  0  0  0  0
   18.8883   16.0394   23.6348 H   0  0  0  0  0  0  0  0  0  0  0  0
  1  2  1  0  0  0  0
  1  3  1  0  0  0  0
  1  4  1  0  0  0  0
  1  5  1  0  0  0  0
  5  6  1  0  0  0  0
  5  7  1  0  0  0  0
  5  8  1  0  0  0  0
  8  9  1  0  0  0  0
  8 10  1  0  0  0  0
  8 11  1  0  0  0  0
 11 12  1  0  0  0  0
 11 13  1  0  0  0  0
 11 14  1  0  0  0  0
 14 15  1  0  0  0  0
 14 16  1  0  0  0  0
 14 17  1  0  0  0  0
 17 18  1  0  0  0  0
 17 19  1  0  0  0  0
 19 20  1  0  0  0  0
 19 21  1  0  0  0  0
 19 22  1  0  0  0  0
 17 23  1  0  0  0  0
 23 24  1  0  0  0  0
 23 25  1  0  0  0  0
 23 26  1  0  0  0  0
M  END
> <VConfSearch Rank>
985

> <Conf_Id>
132

> <Delta U+W>
0.363

> <U+W>
-29.936

> <U>
24.060

> <W>
-53.996

> <W(PB)>
-56.327

> <W(SA)>
2.332

> <Valence>
3.249

> <Coulomb>
19.781

> <VdW>
1.030

> <VdW6>
-7.421

> <VdW12>
8.451

> <Bond>
0.207

> <Angle>
1.205

> <Pdih>
1.837

> <Idih>
0.000

> <Tether>
0.000

$$$$
VeraChem MOL file


 26 25  0  0  0  0  0  0  0  0999 V2000     
   22.0383   20.4257   19.9573 C   0  0  0  0  0  0  0  0  0  0  0  0
   22.9327   19.9162   19.5759 H   0  0  0  0  0  0  0  0  0  0  0  0
   21.3732   20.6207   19.1060 H   0  0  0  0  0  0  0  0  0  0  0  0
   22.3526   21.3916   20.3740 H   0  0  0  0  0  0  0  0  0  0  0  0
   21.3342   19.5635   21.0264 C   0  0  0  0  0  0  0  0  0  0  0  0
   22.0431   19.3561   21.8387 H   0  0  0  0  0  0  0  0  0  0  0  0
   21.0583   18.5942   20.5882 H   0  0  0  0  0  0  0  0  0  0  0  0
   20.0719   20.2642   21.5825 C   0  0  0  0  0  0  0  0  0  0  0  0
   20.3554   21.2074   22.0694 H   0  0  0  0  0  0  0  0  0  0  0  0
   19.4175   20.5363   20.7428 H   0  0  0  0  0  0  0  0  0  0  0  0
   19.2606   19.3915   22.5719 C   0  0  0  0  0  0  0  0  0  0  0  0
   18.9754   18.4544   22.0759 H   0  0  0  0  0  0  0  0  0  0  0  0
   18.3257   19.9200   22.7982 H   0  0  0  0  0  0  0  0  0  0  0  0
   20.0200   19.0891   23.8929 C   0  0  0  0  0  0  0  0  0  0  0  0
   20.9388   18.5332   23.6703 H   0  0  0  0  0  0  0  0  0  0  0  0
   20.3407   20.0333   24.3525 H   0  0  0  0  0  0  0  0  0  0  0  0
   19.2149   18.2767   24.9349 C   0  0  1  0  0  0  0  0  0  0  0  0
   19.8804   18.0886   25.7832 H   0  0  0  0  0  0  0  0  0  0  0  0
   17.9982   19.0553   25.4654 C   0  0  0  0  0  0  0  0  0  0  0  0
   17.2341   19.1933   24.6914 H   0  0  0  0  0  0  0  0  0  0  0  0
   18.2981   20.0443   25.8336 H   0  0  0  0  0  0  0  0  0  0  0  0
   17.5338   18.5169   26.3006 H   0  0  0  0  0  0  0  0  0  0  0  0
   18.8066   16.9247   24.4179 N   0  3  0  0  0  0  0  0  0  0  0  0
   19.6165   16.3814   24.1060 H   0  0  0  0  0  0  0  0  0  0  0  0
   18.3301   16.3764   25.1395 H   0  0  0  0  0  0  0  0  0  0  0  0
   18.1671   17.0083   23.6239 H   0  0  0  0  0  0  0  0  0  0  0  0
  1  2  1  0  0  0  0
  1  3  1  0  0  0  0
  1  4  1  0  0  0  0
  1  5  1  0  0  0  0
  5  6  1  0  0  0  0
  5  7  1  0  0  0  0
  5  8  1  0  0  0  0
  8  9  1  0  0  0  0
  8 10  1  0  0  0  0
  8 11  1  0  0  0  0
 11 12  1  0  0  0  0
 11 13  1  0  0  0  0
 11 14  1  0  0  0  0
 14 15  1  0  0  0  0
 14 16  1  0  0  0  0
 14 17  1  0  0  0  0
 17 18  1  0  0  0  0
 17 19  1  0  0  0  0
 19 20  1  0  0  0  0
 19 21  1  0  0  0  0
 19 22  1  0  0  0  0
 17 23  1  0  0  0  0
 23 24  1  0  0  0  0
 23 25  1  0  0  0  0
 23 26  1  0  0  0  0
M  END
> <VConfSearch Rank>
986

> <Conf_Id>
46

> <Delta U+W>
1.114

> <U+W>
-29.185

> <U>
24.990

> <W>
-54.175

> <W(PB)>
-56.455

> <W(SA)>
2.279

> <Valence>
3.862

> <Coulomb>
19.956

> <VdW>
1.172

> <VdW6>
-8.054

> <VdW12>
9.226

> <Bond>
0.258

> <Angle>
1.499

> <Pdih>
2.106

> <Idih>
0.000

> <Tether>
0.000

$$$$
VeraChem MOL file


 26 25  0  0  0  0  0  0  0  0999 V2000     
   17.7195   17.4365   20.4995 C   0  0  0  0  0  0  0  0  0  0  0  0
   18.6785   16.9364   20.3164 H   0  0  0  0  0  0  0  0  0  0  0  0
   17.1515   16.8381   21.2236 H   0  0  0  0  0  0  0  0  0  0  0  0
   17.1624   17.4361   19.5537 H   0  0  0  0  0  0  0  0  0  0  0  0
   17.9194   18.8823   21.0082 C   0  0  0  0  0  0  0  0  0  0  0  0
   16.9400   19.3788   21.0527 H   0  0  0  0  0  0  0  0  0  0  0  0
   18.5187   19.4500   20.2828 H   0  0  0  0  0  0  0  0  0  0  0  0
   18.5779   18.9595   22.4069 C   0  0  0  0  0  0  0  0  0  0  0  0
   18.5580   20.0071   22.7343 H   0  0  0  0  0  0  0  0  0  0  0  0
   17.9693   18.3982   23.1293 H   0  0  0  0  0  0  0  0  0  0  0  0
   20.0356   18.4333   22.4317 C   0  0  0  0  0  0  0  0  0  0  0  0
   20.6389   18.9731   21.6900 H   0  0  0  0  0  0  0  0  0  0  0  0
   20.0493   17.3793   22.1253 H   0  0  0  0  0  0  0  0  0  0  0  0
   20.6977   18.5331   23.8302 C   0  0  0  0  0  0  0  0  0  0  0  0
   20.1279   17.9134   24.5353 H   0  0  0  0  0  0  0  0  0  0  0  0
   21.7032   18.0945   23.7809 H   0  0  0  0  0  0  0  0  0  0  0  0
   20.7961   19.9706   24.3889 C   0  0  1  0  0  0  0  0  0  0  0  0
   19.7859   20.3848   24.4567 H   0  0  0  0  0  0  0  0  0  0  0  0
   21.4013   19.9548   25.8016 C   0  0  0  0  0  0  0  0  0  0  0  0
   21.4370   20.9681   26.2201 H   0  0  0  0  0  0  0  0  0  0  0  0
   22.4221   19.5527   25.7921 H   0  0  0  0  0  0  0  0  0  0  0  0
   20.7969   19.3368   26.4774 H   0  0  0  0  0  0  0  0  0  0  0  0
   21.5793   20.8848   23.4870 N   0  3  0  0  0  0  0  0  0  0  0  0
   21.1618   20.9328   22.5537 H   0  0  0  0  0  0  0  0  0  0  0  0
   21.6137   21.8384   23.8581 H   0  0  0  0  0  0  0  0  0  0  0  0
   22.5446   20.5632   23.3773 H   0  0  0  0  0  0  0  0  0  0  0  0
  1  2  1  0  0  0  0
  1  3  1  0  0  0  0
  1  4  1  0  0  0  0
  1  5  1  0  0  0  0
  5  6  1  0  0  0  0
  5  7  1  0  0  0  0
  5  8  1  0  0  0  0
  8  9  1  0  0  0  0
  8 10  1  0  0  0  0
  8 11  1  0  0  0  0
 11 12  1  0  0  0  0
 11 13  1  0  0  0  0
 11 14  1  0  0  0  0
 14 15  1  0  0  0  0
 14 16  1  0  0  0  0
 14 17  1  0  0  0  0
 17 18  1  0  0  0  0
 17 19  1  0  0  0  0
 19 20  1  0  0  0  0
 19 21  1  0  0  0  0
 19 22  1  0  0  0  0
 17 23  1  0  0  0  0
 23 24  1  0  0  0  0
 23 25  1  0  0  0  0
 23 26  1  0  0  0  0
M  END
> <VConfSearch Rank>
987

> <Conf_Id>
113

> <Delta U+W>
1.137

> <U+W>
-29.162

> <U>
24.833

> <W>
-53.995

> <W(PB)>
-56.288

> <W(SA)>
2.294

> <Valence>
3.589

> <Coulomb>
20.270

> <VdW>
0.974

> <VdW6>
-8.255

> <VdW12>
9.229

> <Bond>
0.244

> <Angle>
1.377

> <Pdih>
1.967

> <Idih>
0.000

> <Tether>
0.000

$$$$
VeraChem MOL file


 26 25  0  0  0  0  0  0  0  0999 V2000     
   16.5254   17.2438   21.9226 C   0  0  0  0  0  0  0  0  0  0  0  0
   15.9487   16.5917   22.5914 H   0  0  0  0  0  0  0  0  0  0  0  0
   15.8985   18.1097   21.6730 H   0  0  0  0  0  0  0  0  0  0  0  0
   16.7233   16.6867   20.9975 H   0  0  0  0  0  0  0  0  0  0  0  0
   17.8414   17.6879   22.5959 C   0  0  0  0  0  0  0  0  0  0  0  0
   18.4328   16.8001   22.8600 H   0  0  0  0  0  0  0  0  0  0  0  0
   17.6036   18.2037   23.5356 H   0  0  0  0  0  0  0  0  0  0  0  0
   18.6700   18.6124   21.6729 C   0  0  0  0  0  0  0  0  0  0  0  0
   18.8263   18.1072   20.7098 H   0  0  0  0  0  0  0  0  0  0  0  0
   18.0985   19.5246   21.4525 H   0  0  0  0  0  0  0  0  0  0  0  0
   20.0529   18.9936   22.2565 C   0  0  0  0  0  0  0  0  0  0  0  0
   20.6083   19.5441   21.4861 H   0  0  0  0  0  0  0  0  0  0  0  0
   20.6232   18.0764   22.4546 H   0  0  0  0  0  0  0  0  0  0  0  0
   19.9606   19.8551   23.5456 C   0  0  0  0  0  0  0  0  0  0  0  0
   19.2986   20.7114   23.3616 H   0  0  0  0  0  0  0  0  0  0  0  0
   19.4883   19.2727   24.3465 H   0  0  0  0  0  0  0  0  0  0  0  0
   21.3156   20.3873   24.0692 C   0  0  1  0  0  0  0  0  0  0  0  0
   21.1074   20.9794   24.9658 H   0  0  0  0  0  0  0  0  0  0  0  0
   22.2659   19.2470   24.4748 C   0  0  0  0  0  0  0  0  0  0  0  0
   22.5930   18.6636   23.6060 H   0  0  0  0  0  0  0  0  0  0  0  0
   21.7777   18.5659   25.1828 H   0  0  0  0  0  0  0  0  0  0  0  0
   23.1611   19.6496   24.9644 H   0  0  0  0  0  0  0  0  0  0  0  0
   21.9807   21.3237   23.0980 N   0  3  0  0  0  0  0  0  0  0  0  0
   21.3702   22.1092   22.8556 H   0  0  0  0  0  0  0  0  0  0  0  0
   22.8429   21.7157   23.4871 H   0  0  0  0  0  0  0  0  0  0  0  0
   22.2269   20.8449   22.2284 H   0  0  0  0  0  0  0  0  0  0  0  0
  1  2  1  0  0  0  0
  1  3  1  0  0  0  0
  1  4  1  0  0  0  0
  1  5  1  0  0  0  0
  5  6  1  0  0  0  0
  5  7  1  0  0  0  0
  5  8  1  0  0  0  0
  8  9  1  0  0  0  0
  8 10  1  0  0  0  0
  8 11  1  0  0  0  0
 11 12  1  0  0  0  0
 11 13  1  0  0  0  0
 11 14  1  0  0  0  0
 14 15  1  0  0  0  0
 14 16  1  0  0  0  0
 14 17  1  0  0  0  0
 17 18  1  0  0  0  0
 17 19  1  0  0  0  0
 19 20  1  0  0  0  0
 19 21  1  0  0  0  0
 19 22  1  0  0  0  0
 17 23  1  0  0  0  0
 23 24  1  0  0  0  0
 23 25  1  0  0  0  0
 23 26  1  0  0  0  0
M  END
> <VConfSearch Rank>
988

> <Conf_Id>
45

> <Delta U+W>
1.035

> <U+W>
-29.264

> <U>
24.725

> <W>
-53.989

> <W(PB)>
-56.298

> <W(SA)>
2.309

> <Valence>
3.780

> <Coulomb>
19.804

> <VdW>
1.141

> <VdW6>
-8.104

> <VdW12>
9.246

> <Bond>
0.254

> <Angle>
1.437

> <Pdih>
2.089

> <Idih>
0.000

> <Tether>
0.000

$$$$
VeraChem MOL file


 26 25  0  0  0  0  0  0  0  0999 V2000     
   22.9378   21.3976   21.9975 C   0  0  0  0  0  0  0  0  0  0  0  0
   23.3727   21.4457   20.9908 H   0  0  0  0  0  0  0  0  0  0  0  0
   22.8255   22.4259   22.3652 H   0  0  0  0  0  0  0  0  0  0  0  0
   23.6523   20.8777   22.6489 H   0  0  0  0  0  0  0  0  0  0  0  0
   21.5790   20.6659   21.9698 C   0  0  0  0  0  0  0  0  0  0  0  0
   21.7266   19.6588   21.5583 H   0  0  0  0  0  0  0  0  0  0  0  0
   20.8961   21.1924   21.2885 H   0  0  0  0  0  0  0  0  0  0  0  0
   20.9484   20.5819   23.3802 C   0  0  0  0  0  0  0  0  0  0  0  0
   21.6057   20.0064   24.0465 H   0  0  0  0  0  0  0  0  0  0  0  0
   20.8906   21.5939   23.8042 H   0  0  0  0  0  0  0  0  0  0  0  0
   19.5278   19.9651   23.3918 C   0  0  0  0  0  0  0  0  0  0  0  0
   18.8713   20.5429   22.7264 H   0  0  0  0  0  0  0  0  0  0  0  0
   19.1181   20.0778   24.4041 H   0  0  0  0  0  0  0  0  0  0  0  0
   19.4988   18.4692   22.9849 C   0  0  0  0  0  0  0  0  0  0  0  0
   19.8865   18.3633   21.9642 H   0  0  0  0  0  0  0  0  0  0  0  0
   20.1685   17.8933   23.6373 H   0  0  0  0  0  0  0  0  0  0  0  0
   18.0802   17.8602   23.0305 C   0  0  1  0  0  0  0  0  0  0  0  0
   17.4245   18.4711   22.4024 H   0  0  0  0  0  0  0  0  0  0  0  0
   18.0942   16.4307   22.4652 C   0  0  0  0  0  0  0  0  0  0  0  0
   18.7400   15.7741   23.0617 H   0  0  0  0  0  0  0  0  0  0  0  0
   18.4613   16.4234   21.4314 H   0  0  0  0  0  0  0  0  0  0  0  0
   17.0834   16.0045   22.4618 H   0  0  0  0  0  0  0  0  0  0  0  0
   17.4898   17.8722   24.4143 N   0  3  0  0  0  0  0  0  0  0  0  0
   17.4289   18.8232   24.7874 H   0  0  0  0  0  0  0  0  0  0  0  0
   16.5438   17.4804   24.4208 H   0  0  0  0  0  0  0  0  0  0  0  0
   18.0542   17.3207   25.0659 H   0  0  0  0  0  0  0  0  0  0  0  0
  1  2  1  0  0  0  0
  1  3  1  0  0  0  0
  1  4  1  0  0  0  0
  1  5  1  0  0  0  0
  5  6  1  0  0  0  0
  5  7  1  0  0  0  0
  5  8  1  0  0  0  0
  8  9  1  0  0  0  0
  8 10  1  0  0  0  0
  8 11  1  0  0  0  0
 11 12  1  0  0  0  0
 11 13  1  0  0  0  0
 11 14  1  0  0  0  0
 14 15  1  0  0  0  0
 14 16  1  0  0  0  0
 14 17  1  0  0  0  0
 17 18  1  0  0  0  0
 17 19  1  0  0  0  0
 19 20  1  0  0  0  0
 19 21  1  0  0  0  0
 19 22  1  0  0  0  0
 17 23  1  0  0  0  0
 23 24  1  0  0  0  0
 23 25  1  0  0  0  0
 23 26  1  0  0  0  0
M  END
> <VConfSearch Rank>
989

> <Conf_Id>
121

> <Delta U+W>
0.736

> <U+W>
-29.562

> <U>
24.282

> <W>
-53.844

> <W(PB)>
-56.205

> <W(SA)>
2.361

> <Valence>
3.311

> <Coulomb>
19.887

> <VdW>
1.083

> <VdW6>
-7.444

> <VdW12>
8.527

> <Bond>
0.219

> <Angle>
1.167

> <Pdih>
1.926

> <Idih>
0.000

> <Tether>
0.000

$$$$
VeraChem MOL file


 26 25  0  0  0  0  0  0  0  0999 V2000     
   16.9916   18.9869   20.6216 C   0  0  0  0  0  0  0  0  0  0  0  0
   15.9398   18.7620   20.4028 H   0  0  0  0  0  0  0  0  0  0  0  0
   17.2729   19.8743   20.0397 H   0  0  0  0  0  0  0  0  0  0  0  0
   17.5899   18.1387   20.2669 H   0  0  0  0  0  0  0  0  0  0  0  0
   17.1887   19.2293   22.1353 C   0  0  0  0  0  0  0  0  0  0  0  0
   16.9337   18.3170   22.6925 H   0  0  0  0  0  0  0  0  0  0  0  0
   16.4770   19.9992   22.4647 H   0  0  0  0  0  0  0  0  0  0  0  0
   18.6201   19.6868   22.5065 C   0  0  0  0  0  0  0  0  0  0  0  0
   18.8668   20.6035   21.9533 H   0  0  0  0  0  0  0  0  0  0  0  0
   18.6250   19.9564   23.5708 H   0  0  0  0  0  0  0  0  0  0  0  0
   19.7005   18.6081   22.2399 C   0  0  0  0  0  0  0  0  0  0  0  0
   19.7053   18.3504   21.1730 H   0  0  0  0  0  0  0  0  0  0  0  0
   19.4432   17.6832   22.7726 H   0  0  0  0  0  0  0  0  0  0  0  0
   21.1308   19.0662   22.6266 C   0  0  0  0  0  0  0  0  0  0  0  0
   21.8395   18.2635   22.3833 H   0  0  0  0  0  0  0  0  0  0  0  0
   21.4056   19.9174   21.9897 H   0  0  0  0  0  0  0  0  0  0  0  0
   21.3153   19.4756   24.1073 C   0  0  1  0  0  0  0  0  0  0  0  0
   20.6131   20.2834   24.3328 H   0  0  0  0  0  0  0  0  0  0  0  0
   21.0384   18.3070   25.0698 C   0  0  0  0  0  0  0  0  0  0  0  0
   21.6818   17.4471   24.8455 H   0  0  0  0  0  0  0  0  0  0  0  0
   19.9938   17.9802   25.0086 H   0  0  0  0  0  0  0  0  0  0  0  0
   21.2236   18.6090   26.1080 H   0  0  0  0  0  0  0  0  0  0  0  0
   22.6901   20.0347   24.3474 N   0  3  0  0  0  0  0  0  0  0  0  0
   22.8798   20.8416   23.7461 H   0  0  0  0  0  0  0  0  0  0  0  0
   22.8043   20.3444   25.3167 H   0  0  0  0  0  0  0  0  0  0  0  0
   23.4156   19.3367   24.1630 H   0  0  0  0  0  0  0  0  0  0  0  0
  1  2  1  0  0  0  0
  1  3  1  0  0  0  0
  1  4  1  0  0  0  0
  1  5  1  0  0  0  0
  5  6  1  0  0  0  0
  5  7  1  0  0  0  0
  5  8  1  0  0  0  0
  8  9  1  0  0  0  0
  8 10  1  0  0  0  0
  8 11  1  0  0  0  0
 11 12  1  0  0  0  0
 11 13  1  0  0  0  0
 11 14  1  0  0  0  0
 14 15  1  0  0  0  0
 14 16  1  0  0  0  0
 14 17  1  0  0  0  0
 17 18  1  0  0  0  0
 17 19  1  0  0  0  0
 19 20  1  0  0  0  0
 19 21  1  0  0  0  0
 19 22  1  0  0  0  0
 17 23  1  0  0  0  0
 23 24  1  0  0  0  0
 23 25  1  0  0  0  0
 23 26  1  0  0  0  0
M  END
> <VConfSearch Rank>
990

> <Conf_Id>
5

> <Delta U+W>
1.233

> <U+W>
-29.065

> <U>
25.023

> <W>
-54.088

> <W(PB)>
-56.383

> <W(SA)>
2.296

> <Valence>
4.083

> <Coulomb>
19.893

> <VdW>
1.047

> <VdW6>
-8.479

> <VdW12>
9.527

> <Bond>
0.256

> <Angle>
1.716

> <Pdih>
2.112

> <Idih>
0.000

> <Tether>
0.000

$$$$
VeraChem MOL file


 26 25  0  0  0  0  0  0  0  0999 V2000     
   19.8503   20.3687   19.4869 C   0  0  0  0  0  0  0  0  0  0  0  0
   20.3516   20.6428   18.5496 H   0  0  0  0  0  0  0  0  0  0  0  0
   19.3364   19.4146   19.3176 H   0  0  0  0  0  0  0  0  0  0  0  0
   19.0933   21.1350   19.6987 H   0  0  0  0  0  0  0  0  0  0  0  0
   20.8764   20.2673   20.6385 C   0  0  0  0  0  0  0  0  0  0  0  0
   21.4511   21.2031   20.6807 H   0  0  0  0  0  0  0  0  0  0  0  0
   21.6017   19.4713   20.4195 H   0  0  0  0  0  0  0  0  0  0  0  0
   20.2296   20.0213   22.0232 C   0  0  0  0  0  0  0  0  0  0  0  0
   21.0178   20.1061   22.7825 H   0  0  0  0  0  0  0  0  0  0  0  0
   19.5020   20.8170   22.2344 H   0  0  0  0  0  0  0  0  0  0  0  0
   19.5453   18.6371   22.1473 C   0  0  0  0  0  0  0  0  0  0  0  0
   20.2852   17.8458   21.9637 H   0  0  0  0  0  0  0  0  0  0  0  0
   18.7826   18.5329   21.3651 H   0  0  0  0  0  0  0  0  0  0  0  0
   18.8606   18.3915   23.5160 C   0  0  0  0  0  0  0  0  0  0  0  0
   18.0589   19.1257   23.6722 H   0  0  0  0  0  0  0  0  0  0  0  0
   18.3601   17.4157   23.4625 H   0  0  0  0  0  0  0  0  0  0  0  0
   19.8400   18.3958   24.7151 C   0  0  1  0  0  0  0  0  0  0  0  0
   20.8544   18.2599   24.3276 H   0  0  0  0  0  0  0  0  0  0  0  0
   19.7813   19.7251   25.4897 C   0  0  0  0  0  0  0  0  0  0  0  0
   18.7930   19.8750   25.9421 H   0  0  0  0  0  0  0  0  0  0  0  0
   19.9853   20.5806   24.8363 H   0  0  0  0  0  0  0  0  0  0  0  0
   20.5273   19.7368   26.2939 H   0  0  0  0  0  0  0  0  0  0  0  0
   19.5910   17.2431   25.6490 N   0  3  0  0  0  0  0  0  0  0  0  0
   19.6717   16.3433   25.1666 H   0  0  0  0  0  0  0  0  0  0  0  0
   20.2634   17.2354   26.4212 H   0  0  0  0  0  0  0  0  0  0  0  0
   18.6548   17.2896   26.0600 H   0  0  0  0  0  0  0  0  0  0  0  0
  1  2  1  0  0  0  0
  1  3  1  0  0  0  0
  1  4  1  0  0  0  0
  1  5  1  0  0  0  0
  5  6  1  0  0  0  0
  5  7  1  0  0  0  0
  5  8  1  0  0  0  0
  8  9  1  0  0  0  0
  8 10  1  0  0  0  0
  8 11  1  0  0  0  0
 11 12  1  0  0  0  0
 11 13  1  0  0  0  0
 11 14  1  0  0  0  0
 14 15  1  0  0  0  0
 14 16  1  0  0  0  0
 14 17  1  0  0  0  0
 17 18  1  0  0  0  0
 17 19  1  0  0  0  0
 19 20  1  0  0  0  0
 19 21  1  0  0  0  0
 19 22  1  0  0  0  0
 17 23  1  0  0  0  0
 23 24  1  0  0  0  0
 23 25  1  0  0  0  0
 23 26  1  0  0  0  0
M  END
> <VConfSearch Rank>
991

> <Conf_Id>
100

> <Delta U+W>
3.818

> <U+W>
-26.481

> <U>
27.496

> <W>
-53.977

> <W(PB)>
-56.267

> <W(SA)>
2.290

> <Valence>
6.472

> <Coulomb>
19.839

> <VdW>
1.185

> <VdW6>
-8.405

> <VdW12>
9.590

> <Bond>
0.248

> <Angle>
1.619

> <Pdih>
4.604

> <Idih>
0.000

> <Tether>
0.000

$$$$
VeraChem MOL file


 26 25  0  0  0  0  0  0  0  0999 V2000     
   22.6019   21.5319   23.1625 C   0  0  0  0  0  0  0  0  0  0  0  0
   23.6129   21.7015   22.7698 H   0  0  0  0  0  0  0  0  0  0  0  0
   21.9163   22.2030   22.6289 H   0  0  0  0  0  0  0  0  0  0  0  0
   22.6007   21.8147   24.2233 H   0  0  0  0  0  0  0  0  0  0  0  0
   22.1873   20.0563   22.9812 C   0  0  0  0  0  0  0  0  0  0  0  0
   22.9106   19.4086   23.4962 H   0  0  0  0  0  0  0  0  0  0  0  0
   22.2303   19.7944   21.9147 H   0  0  0  0  0  0  0  0  0  0  0  0
   20.7668   19.7900   23.5266 C   0  0  0  0  0  0  0  0  0  0  0  0
   20.7316   20.0549   24.5924 H   0  0  0  0  0  0  0  0  0  0  0  0
   20.0563   20.4509   23.0166 H   0  0  0  0  0  0  0  0  0  0  0  0
   20.3530   18.3081   23.3511 C   0  0  0  0  0  0  0  0  0  0  0  0
   21.0770   17.6869   23.8964 H   0  0  0  0  0  0  0  0  0  0  0  0
   20.4375   18.0129   22.2973 H   0  0  0  0  0  0  0  0  0  0  0  0
   18.9323   17.9916   23.8970 C   0  0  0  0  0  0  0  0  0  0  0  0
   18.9474   16.9836   24.3318 H   0  0  0  0  0  0  0  0  0  0  0  0
   18.6951   18.6626   24.7331 H   0  0  0  0  0  0  0  0  0  0  0  0
   17.7801   18.0325   22.8624 C   0  0  1  0  0  0  0  0  0  0  0  0
   16.8565   17.8011   23.4020 H   0  0  0  0  0  0  0  0  0  0  0  0
   17.6026   19.4165   22.2174 C   0  0  0  0  0  0  0  0  0  0  0  0
   18.4420   19.6624   21.5564 H   0  0  0  0  0  0  0  0  0  0  0  0
   17.5204   20.1970   22.9839 H   0  0  0  0  0  0  0  0  0  0  0  0
   16.6857   19.4436   21.6160 H   0  0  0  0  0  0  0  0  0  0  0  0
   17.9205   16.9663   21.8104 N   0  3  0  0  0  0  0  0  0  0  0  0
   17.9836   16.0331   22.2273 H   0  0  0  0  0  0  0  0  0  0  0  0
   17.1191   16.9622   21.1730 H   0  0  0  0  0  0  0  0  0  0  0  0
   18.7610   17.1083   21.2453 H   0  0  0  0  0  0  0  0  0  0  0  0
  1  2  1  0  0  0  0
  1  3  1  0  0  0  0
  1  4  1  0  0  0  0
  1  5  1  0  0  0  0
  5  6  1  0  0  0  0
  5  7  1  0  0  0  0
  5  8  1  0  0  0  0
  8  9  1  0  0  0  0
  8 10  1  0  0  0  0
  8 11  1  0  0  0  0
 11 12  1  0  0  0  0
 11 13  1  0  0  0  0
 11 14  1  0  0  0  0
 14 15  1  0  0  0  0
 14 16  1  0  0  0  0
 14 17  1  0  0  0  0
 17 18  1  0  0  0  0
 17 19  1  0  0  0  0
 19 20  1  0  0  0  0
 19 21  1  0  0  0  0
 19 22  1  0  0  0  0
 17 23  1  0  0  0  0
 23 24  1  0  0  0  0
 23 25  1  0  0  0  0
 23 26  1  0  0  0  0
M  END
> <VConfSearch Rank>
992

> <Conf_Id>
142

> <Delta U+W>
2.978

> <U+W>
-27.320

> <U>
26.848

> <W>
-54.168

> <W(PB)>
-56.427

> <W(SA)>
2.259

> <Valence>
5.823

> <Coulomb>
20.057

> <VdW>
0.968

> <VdW6>
-8.367

> <VdW12>
9.335

> <Bond>
0.267

> <Angle>
1.799

> <Pdih>
3.758

> <Idih>
0.000

> <Tether>
0.000

$$$$
VeraChem MOL file


 26 25  0  0  0  0  0  0  0  0999 V2000     
   17.5198   16.5074   23.3054 C   0  0  0  0  0  0  0  0  0  0  0  0
   16.7417   17.1505   23.7366 H   0  0  0  0  0  0  0  0  0  0  0  0
   17.0309   15.6045   22.9172 H   0  0  0  0  0  0  0  0  0  0  0  0
   18.1938   16.1944   24.1120 H   0  0  0  0  0  0  0  0  0  0  0  0
   18.2810   17.2371   22.1751 C   0  0  0  0  0  0  0  0  0  0  0  0
   17.5874   17.4092   21.3401 H   0  0  0  0  0  0  0  0  0  0  0  0
   19.0767   16.5877   21.7840 H   0  0  0  0  0  0  0  0  0  0  0  0
   18.8792   18.5975   22.6087 C   0  0  0  0  0  0  0  0  0  0  0  0
   19.2534   19.0954   21.7067 H   0  0  0  0  0  0  0  0  0  0  0  0
   18.0826   19.2337   23.0185 H   0  0  0  0  0  0  0  0  0  0  0  0
   20.0310   18.4648   23.6368 C   0  0  0  0  0  0  0  0  0  0  0  0
   20.8518   17.8820   23.1982 H   0  0  0  0  0  0  0  0  0  0  0  0
   19.6799   17.8811   24.4969 H   0  0  0  0  0  0  0  0  0  0  0  0
   20.5700   19.8158   24.1870 C   0  0  0  0  0  0  0  0  0  0  0  0
   19.7669   20.3330   24.7281 H   0  0  0  0  0  0  0  0  0  0  0  0
   21.3293   19.5857   24.9459 H   0  0  0  0  0  0  0  0  0  0  0  0
   21.2094   20.8002   23.1743 C   0  0  1  0  0  0  0  0  0  0  0  0
   21.7304   21.5617   23.7629 H   0  0  0  0  0  0  0  0  0  0  0  0
   22.2571   20.1221   22.2742 C   0  0  0  0  0  0  0  0  0  0  0  0
   21.7958   19.4057   21.5841 H   0  0  0  0  0  0  0  0  0  0  0  0
   23.0010   19.5882   22.8785 H   0  0  0  0  0  0  0  0  0  0  0  0
   22.7902   20.8700   21.6746 H   0  0  0  0  0  0  0  0  0  0  0  0
   20.1947   21.5571   22.3619 N   0  3  0  0  0  0  0  0  0  0  0  0
   19.5404   22.0677   22.9618 H   0  0  0  0  0  0  0  0  0  0  0  0
   20.6442   22.2429   21.7486 H   0  0  0  0  0  0  0  0  0  0  0  0
   19.6457   20.9292   21.7718 H   0  0  0  0  0  0  0  0  0  0  0  0
  1  2  1  0  0  0  0
  1  3  1  0  0  0  0
  1  4  1  0  0  0  0
  1  5  1  0  0  0  0
  5  6  1  0  0  0  0
  5  7  1  0  0  0  0
  5  8  1  0  0  0  0
  8  9  1  0  0  0  0
  8 10  1  0  0  0  0
  8 11  1  0  0  0  0
 11 12  1  0  0  0  0
 11 13  1  0  0  0  0
 11 14  1  0  0  0  0
 14 15  1  0  0  0  0
 14 16  1  0  0  0  0
 14 17  1  0  0  0  0
 17 18  1  0  0  0  0
 17 19  1  0  0  0  0
 19 20  1  0  0  0  0
 19 21  1  0  0  0  0
 19 22  1  0  0  0  0
 17 23  1  0  0  0  0
 23 24  1  0  0  0  0
 23 25  1  0  0  0  0
 23 26  1  0  0  0  0
M  END
> <VConfSearch Rank>
993

> <Conf_Id>
119

> <Delta U+W>
3.538

> <U+W>
-26.761

> <U>
27.482

> <W>
-54.243

> <W(PB)>
-56.494

> <W(SA)>
2.251

> <Valence>
5.284

> <Coulomb>
21.247

> <VdW>
0.951

> <VdW6>
-9.416

> <VdW12>
10.367

> <Bond>
0.323

> <Angle>
2.522

> <Pdih>
2.439

> <Idih>
0.000

> <Tether>
0.000

$$$$
VeraChem MOL file


 26 25  0  0  0  0  0  0  0  0999 V2000     
   16.8377   20.0090   24.5127 C   0  0  0  0  0  0  0  0  0  0  0  0
   16.0823   19.4571   23.9386 H   0  0  0  0  0  0  0  0  0  0  0  0
   17.3212   19.3104   25.2068 H   0  0  0  0  0  0  0  0  0  0  0  0
   16.3161   20.7640   25.1151 H   0  0  0  0  0  0  0  0  0  0  0  0
   17.8664   20.6814   23.5754 C   0  0  0  0  0  0  0  0  0  0  0  0
   18.6279   21.2002   24.1743 H   0  0  0  0  0  0  0  0  0  0  0  0
   17.3558   21.4578   22.9887 H   0  0  0  0  0  0  0  0  0  0  0  0
   18.5514   19.6929   22.6010 C   0  0  0  0  0  0  0  0  0  0  0  0
   17.7864   19.1978   21.9871 H   0  0  0  0  0  0  0  0  0  0  0  0
   19.1708   20.2709   21.9052 H   0  0  0  0  0  0  0  0  0  0  0  0
   19.4144   18.6219   23.3166 C   0  0  0  0  0  0  0  0  0  0  0  0
   18.7498   17.9841   23.9142 H   0  0  0  0  0  0  0  0  0  0  0  0
   20.0966   19.1005   24.0308 H   0  0  0  0  0  0  0  0  0  0  0  0
   20.2001   17.7071   22.3358 C   0  0  0  0  0  0  0  0  0  0  0  0
   20.2150   16.6902   22.7496 H   0  0  0  0  0  0  0  0  0  0  0  0
   19.6563   17.6237   21.3856 H   0  0  0  0  0  0  0  0  0  0  0  0
   21.6679   18.1149   22.0549 C   0  0  1  0  0  0  0  0  0  0  0  0
   22.0742   17.3854   21.3473 H   0  0  0  0  0  0  0  0  0  0  0  0
   21.7895   19.5035   21.4066 C   0  0  0  0  0  0  0  0  0  0  0  0
   21.5006   20.2992   22.1035 H   0  0  0  0  0  0  0  0  0  0  0  0
   21.1563   19.5739   20.5137 H   0  0  0  0  0  0  0  0  0  0  0  0
   22.8243   19.6916   21.0954 H   0  0  0  0  0  0  0  0  0  0  0  0
   22.5305   18.0208   23.2838 N   0  3  0  0  0  0  0  0  0  0  0  0
   22.5004   17.0827   23.6931 H   0  0  0  0  0  0  0  0  0  0  0  0
   23.5099   18.2292   23.0700 H   0  0  0  0  0  0  0  0  0  0  0  0
   22.2267   18.6806   24.0039 H   0  0  0  0  0  0  0  0  0  0  0  0
  1  2  1  0  0  0  0
  1  3  1  0  0  0  0
  1  4  1  0  0  0  0
  1  5  1  0  0  0  0
  5  6  1  0  0  0  0
  5  7  1  0  0  0  0
  5  8  1  0  0  0  0
  8  9  1  0  0  0  0
  8 10  1  0  0  0  0
  8 11  1  0  0  0  0
 11 12  1  0  0  0  0
 11 13  1  0  0  0  0
 11 14  1  0  0  0  0
 14 15  1  0  0  0  0
 14 16  1  0  0  0  0
 14 17  1  0  0  0  0
 17 18  1  0  0  0  0
 17 19  1  0  0  0  0
 19 20  1  0  0  0  0
 19 21  1  0  0  0  0
 19 22  1  0  0  0  0
 17 23  1  0  0  0  0
 23 24  1  0  0  0  0
 23 25  1  0  0  0  0
 23 26  1  0  0  0  0
M  END
> <VConfSearch Rank>
994

> <Conf_Id>
127

> <Delta U+W>
3.544

> <U+W>
-26.754

> <U>
27.509

> <W>
-54.263

> <W(PB)>
-56.496

> <W(SA)>
2.232

> <Valence>
6.375

> <Coulomb>
20.014

> <VdW>
1.120

> <VdW6>
-8.976

> <VdW12>
10.096

> <Bond>
0.304

> <Angle>
1.986

> <Pdih>
4.086

> <Idih>
0.000

> <Tether>
0.000

$$$$
VeraChem MOL file


 26 25  0  0  0  0  0  0  0  0999 V2000     
   18.6111   20.2661   20.2286 C   0  0  0  0  0  0  0  0  0  0  0  0
   18.4395   19.8839   19.2140 H   0  0  0  0  0  0  0  0  0  0  0  0
   18.3031   21.3197   20.2437 H   0  0  0  0  0  0  0  0  0  0  0  0
   19.6891   20.2278   20.4198 H   0  0  0  0  0  0  0  0  0  0  0  0
   17.8062   19.4418   21.2604 C   0  0  0  0  0  0  0  0  0  0  0  0
   18.0671   18.3769   21.1862 H   0  0  0  0  0  0  0  0  0  0  0  0
   16.7426   19.5110   20.9926 H   0  0  0  0  0  0  0  0  0  0  0  0
   17.9821   19.9405   22.7179 C   0  0  0  0  0  0  0  0  0  0  0  0
   18.1968   21.0180   22.7280 H   0  0  0  0  0  0  0  0  0  0  0  0
   17.0196   19.8269   23.2358 H   0  0  0  0  0  0  0  0  0  0  0  0
   19.0486   19.1765   23.5446 C   0  0  0  0  0  0  0  0  0  0  0  0
   18.7588   18.1195   23.6122 H   0  0  0  0  0  0  0  0  0  0  0  0
   19.0203   19.5695   24.5688 H   0  0  0  0  0  0  0  0  0  0  0  0
   20.4901   19.2910   22.9811 C   0  0  0  0  0  0  0  0  0  0  0  0
   20.5316   18.8079   21.9975 H   0  0  0  0  0  0  0  0  0  0  0  0
   20.7360   20.3484   22.8170 H   0  0  0  0  0  0  0  0  0  0  0  0
   21.5885   18.6539   23.8652 C   0  0  1  0  0  0  0  0  0  0  0  0
   22.5326   18.7360   23.3178 H   0  0  0  0  0  0  0  0  0  0  0  0
   21.7637   19.3974   25.2012 C   0  0  0  0  0  0  0  0  0  0  0  0
   21.9188   20.4703   25.0332 H   0  0  0  0  0  0  0  0  0  0  0  0
   22.6401   19.0158   25.7393 H   0  0  0  0  0  0  0  0  0  0  0  0
   20.8918   19.2739   25.8541 H   0  0  0  0  0  0  0  0  0  0  0  0
   21.3641   17.1839   24.0909 N   0  3  0  0  0  0  0  0  0  0  0  0
   21.2946   16.6742   23.2056 H   0  0  0  0  0  0  0  0  0  0  0  0
   22.1310   16.7659   24.6252 H   0  0  0  0  0  0  0  0  0  0  0  0
   20.4999   17.0162   24.6120 H   0  0  0  0  0  0  0  0  0  0  0  0
  1  2  1  0  0  0  0
  1  3  1  0  0  0  0
  1  4  1  0  0  0  0
  1  5  1  0  0  0  0
  5  6  1  0  0  0  0
  5  7  1  0  0  0  0
  5  8  1  0  0  0  0
  8  9  1  0  0  0  0
  8 10  1  0  0  0  0
  8 11  1  0  0  0  0
 11 12  1  0  0  0  0
 11 13  1  0  0  0  0
 11 14  1  0  0  0  0
 14 15  1  0  0  0  0
 14 16  1  0  0  0  0
 14 17  1  0  0  0  0
 17 18  1  0  0  0  0
 17 19  1  0  0  0  0
 19 20  1  0  0  0  0
 19 21  1  0  0  0  0
 19 22  1  0  0  0  0
 17 23  1  0  0  0  0
 23 24  1  0  0  0  0
 23 25  1  0  0  0  0
 23 26  1  0  0  0  0
M  END
> <VConfSearch Rank>
995

> <Conf_Id>
131

> <Delta U+W>
3.589

> <U+W>
-26.710

> <U>
27.573

> <W>
-54.283

> <W(PB)>
-56.537

> <W(SA)>
2.254

> <Valence>
6.363

> <Coulomb>
20.026

> <VdW>
1.184

> <VdW6>
-8.939

> <VdW12>
10.123

> <Bond>
0.298

> <Angle>
2.018

> <Pdih>
4.047

> <Idih>
0.000

> <Tether>
0.000

$$$$
VeraChem MOL file


 26 25  0  0  0  0  0  0  0  0999 V2000     
   20.2543   21.4291   21.4869 C   0  0  0  0  0  0  0  0  0  0  0  0
   21.2641   21.0236   21.3430 H   0  0  0  0  0  0  0  0  0  0  0  0
   19.5243   20.6444   21.2537 H   0  0  0  0  0  0  0  0  0  0  0  0
   20.1097   22.2371   20.7581 H   0  0  0  0  0  0  0  0  0  0  0  0
   20.0662   21.9601   22.9247 C   0  0  0  0  0  0  0  0  0  0  0  0
   19.0266   22.2906   23.0575 H   0  0  0  0  0  0  0  0  0  0  0  0
   20.6887   22.8566   23.0532 H   0  0  0  0  0  0  0  0  0  0  0  0
   20.4344   20.9436   24.0356 C   0  0  0  0  0  0  0  0  0  0  0  0
   21.5026   20.6933   23.9785 H   0  0  0  0  0  0  0  0  0  0  0  0
   20.3010   21.4490   25.0021 H   0  0  0  0  0  0  0  0  0  0  0  0
   19.5758   19.6516   24.0442 C   0  0  0  0  0  0  0  0  0  0  0  0
   18.5737   19.8757   23.6566 H   0  0  0  0  0  0  0  0  0  0  0  0
   19.4359   19.3351   25.0872 H   0  0  0  0  0  0  0  0  0  0  0  0
   20.2251   18.4753   23.2679 C   0  0  0  0  0  0  0  0  0  0  0  0
   20.3651   18.7372   22.2133 H   0  0  0  0  0  0  0  0  0  0  0  0
   21.2294   18.3042   23.6772 H   0  0  0  0  0  0  0  0  0  0  0  0
   19.4286   17.1543   23.3659 C   0  0  1  0  0  0  0  0  0  0  0  0
   19.2523   16.9369   24.4239 H   0  0  0  0  0  0  0  0  0  0  0  0
   18.0676   17.2451   22.6523 C   0  0  0  0  0  0  0  0  0  0  0  0
   18.1900   17.5235   21.5981 H   0  0  0  0  0  0  0  0  0  0  0  0
   17.4146   17.9847   23.1293 H   0  0  0  0  0  0  0  0  0  0  0  0
   17.5463   16.2807   22.6908 H   0  0  0  0  0  0  0  0  0  0  0  0
   20.2236   15.9993   22.8227 N   0  3  0  0  0  0  0  0  0  0  0  0
   20.4316   16.1224   21.8282 H   0  0  0  0  0  0  0  0  0  0  0  0
   21.1163   15.8920   23.3129 H   0  0  0  0  0  0  0  0  0  0  0  0
   19.7150   15.1161   22.9212 H   0  0  0  0  0  0  0  0  0  0  0  0
  1  2  1  0  0  0  0
  1  3  1  0  0  0  0
  1  4  1  0  0  0  0
  1  5  1  0  0  0  0
  5  6  1  0  0  0  0
  5  7  1  0  0  0  0
  5  8  1  0  0  0  0
  8  9  1  0  0  0  0
  8 10  1  0  0  0  0
  8 11  1  0  0  0  0
 11 12  1  0  0  0  0
 11 13  1  0  0  0  0
 11 14  1  0  0  0  0
 14 15  1  0  0  0  0
 14 16  1  0  0  0  0
 14 17  1  0  0  0  0
 17 18  1  0  0  0  0
 17 19  1  0  0  0  0
 19 20  1  0  0  0  0
 19 21  1  0  0  0  0
 19 22  1  0  0  0  0
 17 23  1  0  0  0  0
 23 24  1  0  0  0  0
 23 25  1  0  0  0  0
 23 26  1  0  0  0  0
M  END
> <VConfSearch Rank>
996

> <Conf_Id>
80

> <Delta U+W>
3.351

> <U+W>
-26.948

> <U>
27.261

> <W>
-54.209

> <W(PB)>
-56.471

> <W(SA)>
2.263

> <Valence>
6.230

> <Coulomb>
19.945

> <VdW>
1.087

> <VdW6>
-8.618

> <VdW12>
9.704

> <Bond>
0.277

> <Angle>
1.928

> <Pdih>
4.025

> <Idih>
0.000

> <Tether>
0.000

$$$$
VeraChem MOL file


 26 25  0  0  0  0  0  0  0  0999 V2000     
   22.0122   19.6223   20.5593 C   0  0  0  0  0  0  0  0  0  0  0  0
   22.5719   20.4909   20.1890 H   0  0  0  0  0  0  0  0  0  0  0  0
   22.4727   18.7202   20.1362 H   0  0  0  0  0  0  0  0  0  0  0  0
   20.9883   19.7011   20.1731 H   0  0  0  0  0  0  0  0  0  0  0  0
   22.0321   19.5843   22.1040 C   0  0  0  0  0  0  0  0  0  0  0  0
   21.5429   20.4826   22.5023 H   0  0  0  0  0  0  0  0  0  0  0  0
   23.0756   19.6402   22.4440 H   0  0  0  0  0  0  0  0  0  0  0  0
   21.3900   18.3061   22.7035 C   0  0  0  0  0  0  0  0  0  0  0  0
   22.0023   17.4422   22.4105 H   0  0  0  0  0  0  0  0  0  0  0  0
   21.4640   18.3583   23.7957 H   0  0  0  0  0  0  0  0  0  0  0  0
   19.9212   18.0252   22.2771 C   0  0  0  0  0  0  0  0  0  0  0  0
   19.5996   17.0616   22.6958 H   0  0  0  0  0  0  0  0  0  0  0  0
   19.8985   17.8822   21.1888 H   0  0  0  0  0  0  0  0  0  0  0  0
   18.8844   19.1207   22.6538 C   0  0  0  0  0  0  0  0  0  0  0  0
   19.3392   20.1173   22.6361 H   0  0  0  0  0  0  0  0  0  0  0  0
   18.1218   19.1345   21.8641 H   0  0  0  0  0  0  0  0  0  0  0  0
   18.1474   18.8972   23.9965 C   0  0  1  0  0  0  0  0  0  0  0  0
   17.6503   17.9232   23.9547 H   0  0  0  0  0  0  0  0  0  0  0  0
   19.0930   18.9005   25.2089 C   0  0  0  0  0  0  0  0  0  0  0  0
   19.7429   18.0186   25.1999 H   0  0  0  0  0  0  0  0  0  0  0  0
   18.5228   18.8673   26.1454 H   0  0  0  0  0  0  0  0  0  0  0  0
   19.7205   19.8003   25.2229 H   0  0  0  0  0  0  0  0  0  0  0  0
   17.0585   19.9170   24.1862 N   0  3  0  0  0  0  0  0  0  0  0  0
   16.3874   19.9010   23.4129 H   0  0  0  0  0  0  0  0  0  0  0  0
   16.5329   19.7468   25.0482 H   0  0  0  0  0  0  0  0  0  0  0  0
   17.4398   20.8650   24.2433 H   0  0  0  0  0  0  0  0  0  0  0  0
  1  2  1  0  0  0  0
  1  3  1  0  0  0  0
  1  4  1  0  0  0  0
  1  5  1  0  0  0  0
  5  6  1  0  0  0  0
  5  7  1  0  0  0  0
  5  8  1  0  0  0  0
  8  9  1  0  0  0  0
  8 10  1  0  0  0  0
  8 11  1  0  0  0  0
 11 12  1  0  0  0  0
 11 13  1  0  0  0  0
 11 14  1  0  0  0  0
 14 15  1  0  0  0  0
 14 16  1  0  0  0  0
 14 17  1  0  0  0  0
 17 18  1  0  0  0  0
 17 19  1  0  0  0  0
 19 20  1  0  0  0  0
 19 21  1  0  0  0  0
 19 22  1  0  0  0  0
 17 23  1  0  0  0  0
 23 24  1  0  0  0  0
 23 25  1  0  0  0  0
 23 26  1  0  0  0  0
M  END
> <VConfSearch Rank>
997

> <Conf_Id>
136

> <Delta U+W>
4.272

> <U+W>
-26.026

> <U>
28.262

> <W>
-54.288

> <W(PB)>
-56.488

> <W(SA)>
2.200

> <Valence>
7.096

> <Coulomb>
19.990

> <VdW>
1.175

> <VdW6>
-9.404

> <VdW12>
10.580

> <Bond>
0.360

> <Angle>
2.785

> <Pdih>
3.951

> <Idih>
0.000

> <Tether>
0.000

$$$$
VeraChem MOL file


 26 25  0  0  0  0  0  0  0  0999 V2000     
   17.4811   18.6824   21.1917 C   0  0  0  0  0  0  0  0  0  0  0  0
   18.4914   18.2939   21.0136 H   0  0  0  0  0  0  0  0  0  0  0  0
   16.8199   18.2321   20.4400 H   0  0  0  0  0  0  0  0  0  0  0  0
   17.4883   19.7674   21.0255 H   0  0  0  0  0  0  0  0  0  0  0  0
   16.9908   18.3399   22.6155 C   0  0  0  0  0  0  0  0  0  0  0  0
   17.0486   17.2532   22.7690 H   0  0  0  0  0  0  0  0  0  0  0  0
   15.9264   18.6016   22.6938 H   0  0  0  0  0  0  0  0  0  0  0  0
   17.7604   19.0659   23.7485 C   0  0  0  0  0  0  0  0  0  0  0  0
   17.6239   20.1527   23.6619 H   0  0  0  0  0  0  0  0  0  0  0  0
   17.2897   18.7838   24.7005 H   0  0  0  0  0  0  0  0  0  0  0  0
   19.2693   18.7171   23.8331 C   0  0  0  0  0  0  0  0  0  0  0  0
   19.4426   17.7036   23.4455 H   0  0  0  0  0  0  0  0  0  0  0  0
   19.5546   18.6918   24.8932 H   0  0  0  0  0  0  0  0  0  0  0  0
   20.1770   19.7386   23.0996 C   0  0  0  0  0  0  0  0  0  0  0  0
   19.8396   19.8568   22.0638 H   0  0  0  0  0  0  0  0  0  0  0  0
   20.0753   20.7254   23.5704 H   0  0  0  0  0  0  0  0  0  0  0  0
   21.6637   19.3216   23.0892 C   0  0  1  0  0  0  0  0  0  0  0  0
   21.7371   18.3269   22.6389 H   0  0  0  0  0  0  0  0  0  0  0  0
   22.4871   20.2992   22.2352 C   0  0  0  0  0  0  0  0  0  0  0  0
   22.4475   21.3158   22.6460 H   0  0  0  0  0  0  0  0  0  0  0  0
   22.1090   20.3316   21.2058 H   0  0  0  0  0  0  0  0  0  0  0  0
   23.5382   19.9880   22.1936 H   0  0  0  0  0  0  0  0  0  0  0  0
   22.2425   19.2140   24.4737 N   0  3  0  0  0  0  0  0  0  0  0  0
   22.2069   20.1115   24.9640 H   0  0  0  0  0  0  0  0  0  0  0  0
   21.7317   18.5321   25.0406 H   0  0  0  0  0  0  0  0  0  0  0  0
   23.2222   18.9176   24.4477 H   0  0  0  0  0  0  0  0  0  0  0  0
  1  2  1  0  0  0  0
  1  3  1  0  0  0  0
  1  4  1  0  0  0  0
  1  5  1  0  0  0  0
  5  6  1  0  0  0  0
  5  7  1  0  0  0  0
  5  8  1  0  0  0  0
  8  9  1  0  0  0  0
  8 10  1  0  0  0  0
  8 11  1  0  0  0  0
 11 12  1  0  0  0  0
 11 13  1  0  0  0  0
 11 14  1  0  0  0  0
 14 15  1  0  0  0  0
 14 16  1  0  0  0  0
 14 17  1  0  0  0  0
 17 18  1  0  0  0  0
 17 19  1  0  0  0  0
 19 20  1  0  0  0  0
 19 21  1  0  0  0  0
 19 22  1  0  0  0  0
 17 23  1  0  0  0  0
 23 24  1  0  0  0  0
 23 25  1  0  0  0  0
 23 26  1  0  0  0  0
M  END
> <VConfSearch Rank>
998

> <Conf_Id>
124

> <Delta U+W>
3.001

> <U+W>
-27.298

> <U>
26.787

> <W>
-54.085

> <W(PB)>
-56.347

> <W(SA)>
2.262

> <Valence>
5.742

> <Coulomb>
20.023

> <VdW>
1.022

> <VdW6>
-8.392

> <VdW12>
9.414

> <Bond>
0.261

> <Angle>
1.576

> <Pdih>
3.904

> <Idih>
0.000

> <Tether>
0.000

$$$$
VeraChem MOL file


 26 25  0  0  0  0  0  0  0  0999 V2000     
   22.9932   18.6876   23.0890 C   0  0  0  0  0  0  0  0  0  0  0  0
   23.5514   19.1735   22.2783 H   0  0  0  0  0  0  0  0  0  0  0  0
   23.7114   18.1162   23.6912 H   0  0  0  0  0  0  0  0  0  0  0  0
   22.2969   17.9727   22.6375 H   0  0  0  0  0  0  0  0  0  0  0  0
   22.2674   19.7357   23.9644 C   0  0  0  0  0  0  0  0  0  0  0  0
   23.0295   20.3939   24.4047 H   0  0  0  0  0  0  0  0  0  0  0  0
   21.7664   19.2457   24.8108 H   0  0  0  0  0  0  0  0  0  0  0  0
   21.2597   20.6092   23.1733 C   0  0  0  0  0  0  0  0  0  0  0  0
   21.2806   21.6226   23.5976 H   0  0  0  0  0  0  0  0  0  0  0  0
   21.5881   20.7192   22.1306 H   0  0  0  0  0  0  0  0  0  0  0  0
   19.7907   20.1151   23.2215 C   0  0  0  0  0  0  0  0  0  0  0  0
   19.1686   20.8549   22.7014 H   0  0  0  0  0  0  0  0  0  0  0  0
   19.4518   20.1083   24.2660 H   0  0  0  0  0  0  0  0  0  0  0  0
   19.5704   18.7156   22.5885 C   0  0  0  0  0  0  0  0  0  0  0  0
   20.0451   18.6856   21.5992 H   0  0  0  0  0  0  0  0  0  0  0  0
   20.0773   17.9577   23.1984 H   0  0  0  0  0  0  0  0  0  0  0  0
   18.0887   18.2974   22.4358 C   0  0  1  0  0  0  0  0  0  0  0  0
   18.0775   17.2999   21.9856 H   0  0  0  0  0  0  0  0  0  0  0  0
   17.3725   18.2034   23.7944 C   0  0  0  0  0  0  0  0  0  0  0  0
   17.2661   19.1880   24.2652 H   0  0  0  0  0  0  0  0  0  0  0  0
   17.9250   17.5511   24.4820 H   0  0  0  0  0  0  0  0  0  0  0  0
   16.3679   17.7809   23.6702 H   0  0  0  0  0  0  0  0  0  0  0  0
   17.3336   19.1890   21.4885 N   0  3  0  0  0  0  0  0  0  0  0  0
   16.3739   18.8600   21.3500 H   0  0  0  0  0  0  0  0  0  0  0  0
   17.2810   20.1475   21.8414 H   0  0  0  0  0  0  0  0  0  0  0  0
   17.7807   19.2233   20.5680 H   0  0  0  0  0  0  0  0  0  0  0  0
  1  2  1  0  0  0  0
  1  3  1  0  0  0  0
  1  4  1  0  0  0  0
  1  5  1  0  0  0  0
  5  6  1  0  0  0  0
  5  7  1  0  0  0  0
  5  8  1  0  0  0  0
  8  9  1  0  0  0  0
  8 10  1  0  0  0  0
  8 11  1  0  0  0  0
 11 12  1  0  0  0  0
 11 13  1  0  0  0  0
 11 14  1  0  0  0  0
 14 15  1  0  0  0  0
 14 16  1  0  0  0  0
 14 17  1  0  0  0  0
 17 18  1  0  0  0  0
 17 19  1  0  0  0  0
 19 20  1  0  0  0  0
 19 21  1  0  0  0  0
 19 22  1  0  0  0  0
 17 23  1  0  0  0  0
 23 24  1  0  0  0  0
 23 25  1  0  0  0  0
 23 26  1  0  0  0  0
M  END
> <VConfSearch Rank>
999

> <Conf_Id>
105

> <Delta U+W>
3.442

> <U+W>
-26.857

> <U>
27.313

> <W>
-54.169

> <W(PB)>
-56.414

> <W(SA)>
2.245

> <Valence>
6.229

> <Coulomb>
19.943

> <VdW>
1.140

> <VdW6>
-9.001

> <VdW12>
10.140

> <Bond>
0.294

> <Angle>
1.969

> <Pdih>
3.967

> <Idih>
0.000

> <Tether>
0.000

$$$$
VeraChem MOL file


 26 25  0  0  0  0  0  0  0  0999 V2000     
   22.0088   18.5605   20.9369 C   0  0  0  0  0  0  0  0  0  0  0  0
   22.2797   17.5109   20.7636 H   0  0  0  0  0  0  0  0  0  0  0  0
   22.7415   19.1844   20.4088 H   0  0  0  0  0  0  0  0  0  0  0  0
   22.1127   18.7633   22.0082 H   0  0  0  0  0  0  0  0  0  0  0  0
   20.5798   18.8536   20.4230 C   0  0  0  0  0  0  0  0  0  0  0  0
   20.5642   18.6613   19.3410 H   0  0  0  0  0  0  0  0  0  0  0  0
   20.3416   19.9196   20.5436 H   0  0  0  0  0  0  0  0  0  0  0  0
   19.4901   17.9784   21.0943 C   0  0  0  0  0  0  0  0  0  0  0  0
   18.7163   17.7628   20.3445 H   0  0  0  0  0  0  0  0  0  0  0  0
   19.9073   17.0020   21.3769 H   0  0  0  0  0  0  0  0  0  0  0  0
   18.7881   18.6326   22.3123 C   0  0  0  0  0  0  0  0  0  0  0  0
   17.9912   17.9569   22.6530 H   0  0  0  0  0  0  0  0  0  0  0  0
   18.2906   19.5554   21.9852 H   0  0  0  0  0  0  0  0  0  0  0  0
   19.7310   18.9370   23.5024 C   0  0  0  0  0  0  0  0  0  0  0  0
   20.3278   18.0419   23.7226 H   0  0  0  0  0  0  0  0  0  0  0  0
   20.4343   19.7326   23.2268 H   0  0  0  0  0  0  0  0  0  0  0  0
   18.9693   19.3550   24.7787 C   0  0  1  0  0  0  0  0  0  0  0  0
   18.2604   18.5602   25.0305 H   0  0  0  0  0  0  0  0  0  0  0  0
   19.9460   19.5203   25.9539 C   0  0  0  0  0  0  0  0  0  0  0  0
   20.6798   20.3108   25.7524 H   0  0  0  0  0  0  0  0  0  0  0  0
   20.4919   18.5873   26.1414 H   0  0  0  0  0  0  0  0  0  0  0  0
   19.4070   19.7806   26.8732 H   0  0  0  0  0  0  0  0  0  0  0  0
   18.1618   20.6089   24.5818 N   0  3  0  0  0  0  0  0  0  0  0  0
   17.4773   20.4981   23.8290 H   0  0  0  0  0  0  0  0  0  0  0  0
   17.6458   20.8588   25.4301 H   0  0  0  0  0  0  0  0  0  0  0  0
   18.7594   21.4040   24.3411 H   0  0  0  0  0  0  0  0  0  0  0  0
  1  2  1  0  0  0  0
  1  3  1  0  0  0  0
  1  4  1  0  0  0  0
  1  5  1  0  0  0  0
  5  6  1  0  0  0  0
  5  7  1  0  0  0  0
  5  8  1  0  0  0  0
  8  9  1  0  0  0  0
  8 10  1  0  0  0  0
  8 11  1  0  0  0  0
 11 12  1  0  0  0  0
 11 13  1  0  0  0  0
 11 14  1  0  0  0  0
 14 15  1  0  0  0  0
 14 16  1  0  0  0  0
 14 17  1  0  0  0  0
 17 18  1  0  0  0  0
 17 19  1  0  0  0  0
 19 20  1  0  0  0  0
 19 21  1  0  0  0  0
 19 22  1  0  0  0  0
 17 23  1  0  0  0  0
 23 24  1  0  0  0  0
 23 25  1  0  0  0  0
 23 26  1  0  0  0  0
M  END
> <VConfSearch Rank>
1000

> <Conf_Id>
107

> <Delta U+W>
2.995

> <U+W>
-27.304

> <U>
26.796

> <W>
-54.100

> <W(PB)>
-56.404

> <W(SA)>
2.304

> <Valence>
5.706

> <Coulomb>
20.107

> <VdW>
0.982

> <VdW6>
-8.396

> <VdW12>
9.378

> <Bond>
0.254

> <Angle>
1.644

> <Pdih>
3.808

> <Idih>
0.000

> <Tether>
0.000

$$$$
