@<TRIPOS>MOLECULE
CD_guest-s18_fast_vm2_single.mol2 : feprocess host+ligand conformer 1
         142         147           2
SMALL
USER_CHARGES
 
@<TRIPOS>ATOM
       1    C1      16.264362   15.082857   21.822879 C.3        1 MOL1         0.2972
       2    H1      15.202083   14.916807   22.043285 H          1 MOL1         0.0751
       3    O1      16.590857   16.484982   21.793113 O.3        1 MOL1        -0.3740
       4    C2      17.133673   14.409906   22.909965 C.3        1 MOL1         0.1003
       5    H2      16.925503   13.332502   22.878773 H          1 MOL1         0.0783
       6    O2      16.793921   14.920167   24.209377 O.3        1 MOL1        -0.5519
       7    H3      16.456380   15.840534   24.077632 H          1 MOL1         0.3769
       8    C3      18.638922   14.612248   22.619005 C.3        1 MOL1         0.1053
       9    H4      18.875479   15.675173   22.761319 H          1 MOL1         0.0783
      10    O3      19.398878   13.823792   23.540527 O.3        1 MOL1        -0.5519
      11    H5      19.056579   14.074499   24.427180 H          1 MOL1         0.3769
      12    C4      18.999952   14.219168   21.162105 C.3        1 MOL1         0.1018
      13    H6      19.072888   13.125247   21.100728 H          1 MOL1         0.0783
      14    C5      17.980731   14.750590   20.113093 C.3        1 MOL1         0.1043
      15    H7      18.141083   15.831843   20.013946 H          1 MOL1         0.0783
      16    O4      16.616304   14.513200   20.546051 O.3        1 MOL1        -0.3740
      17    C6      18.163802   14.134892   18.705535 C.3        1 MOL1         0.0138
      18    H8      19.095286   14.525272   18.273365 H          1 MOL1         0.0794
      19    H9      17.339371   14.474344   18.064177 H          1 MOL1         0.0794
      20    O5      18.208469   12.703125   18.744225 O.3        1 MOL1        -0.5486
      21    H10     18.250254   12.380976   17.817479 H          1 MOL1         0.3769
      22    C7      14.789030   20.232325   21.498331 C.3        1 MOL1         0.2972
      23    H11     14.064500   21.047861   21.378627 H          1 MOL1         0.0751
      24    O6      16.133026   20.731956   21.634384 O.3        1 MOL1        -0.3740
      25    C8      14.465627   19.431799   22.784315 C.3        1 MOL1         0.1003
      26    H12     13.446921   19.035568   22.682641 H          1 MOL1         0.0783
      27    O7      14.530219   20.291066   23.933838 O.3        1 MOL1        -0.5519
      28    H13     15.216255   20.975899   23.738123 H          1 MOL1         0.3769
      29    C9      15.432686   18.234880   22.947631 C.3        1 MOL1         0.1053
      30    H14     16.440124   18.628911   23.140394 H          1 MOL1         0.0783
      31    O8      15.011680   17.424387   24.049724 O.3        1 MOL1        -0.5519
      32    H15     14.820873   18.060068   24.775211 H          1 MOL1         0.3769
      33    C10     15.479509   17.386727   21.654153 C.3        1 MOL1         0.1018
      34    H16     14.524043   16.856248   21.548162 H          1 MOL1         0.0783
      35    C11     15.719834   18.261326   20.393283 C.3        1 MOL1         0.1043
      36    H17     16.723713   18.692534   20.466093 H          1 MOL1         0.0783
      37    O9      14.745115   19.335021   20.365734 O.3        1 MOL1        -0.3740
      38    C12     15.662568   17.493747   19.046843 C.3        1 MOL1         0.0138
      39    H18     16.667436   17.115318   18.820269 H          1 MOL1         0.0794
      40    H19     15.403728   18.203210   18.249646 H          1 MOL1         0.0794
      41    O10     14.733350   16.404116   19.054352 O.3        1 MOL1        -0.5486
      42    H20     15.172351   15.656589   19.522957 H          1 MOL1         0.3769
      43    C13     18.530496   23.995525   20.640079 C.3        1 MOL1         0.2972
      44    H21     18.909746   24.955741   20.267453 H          1 MOL1         0.0751
      45    O11     19.597725   23.132209   21.079644 O.3        1 MOL1        -0.3740
      46    C14     17.563201   24.208331   21.833382 C.3        1 MOL1         0.1003
      47    H22     16.721135   24.810380   21.467985 H          1 MOL1         0.0783
      48    O12     18.204382   24.909492   22.910096 O.3        1 MOL1        -0.5519
      49    H23     19.082842   24.476902   23.064721 H          1 MOL1         0.3769
      50    C15     16.999708   22.851222   22.322153 C.3        1 MOL1         0.1053
      51    H24     17.828816   22.257137   22.732819 H          1 MOL1         0.0783
      52    O13     16.013265   23.076992   23.335608 O.3        1 MOL1        -0.5519
      53    H25     16.415857   23.740147   23.939491 H          1 MOL1         0.3769
      54    C16     16.371142   22.064690   21.146215 C.3        1 MOL1         0.1018
      55    H26     15.441038   22.570881   20.856916 H          1 MOL1         0.0783
      56    C17     17.322789   21.986341   19.918796 C.3        1 MOL1         0.1043
      57    H27     18.177798   21.353732   20.186413 H          1 MOL1         0.0783
      58    O14     17.797268   23.316718   19.597551 O.3        1 MOL1        -0.3740
      59    C18     16.685228   21.385354   18.639449 C.3        1 MOL1         0.0138
      60    H28     16.757707   20.293704   18.688822 H          1 MOL1         0.0794
      61    H29     17.279349   21.703210   17.772282 H          1 MOL1         0.0794
      62    O15     15.314016   21.757679   18.461841 O.3        1 MOL1        -0.5486
      63    H30     14.778148   21.110834   18.973578 H          1 MOL1         0.3769
      64    C19     23.717418   22.800421   21.280937 C.3        1 MOL1         0.2972
      65    H31     24.806117   22.938816   21.265657 H          1 MOL1         0.0751
      66    O16     23.367115   21.400754   21.328100 O.3        1 MOL1        -0.3740
      67    C20     23.070251   23.559429   22.470324 C.3        1 MOL1         0.1003
      68    H32     23.240812   24.629505   22.293691 H          1 MOL1         0.0783
      69    O17     23.662268   23.210754   23.729989 O.3        1 MOL1        -0.5519
      70    H33     23.433762   22.262152   23.898693 H          1 MOL1         0.3769
      71    C21     21.539565   23.325536   22.484568 C.3        1 MOL1         0.1053
      72    H34     21.344523   22.259038   22.667280 H          1 MOL1         0.0783
      73    O18     20.952625   24.115151   23.524400 O.3        1 MOL1        -0.5519
      74    H35     21.517582   23.959750   24.313704 H          1 MOL1         0.3769
      75    C22     20.917285   23.709587   21.118401 C.3        1 MOL1         0.1018
      76    H36     20.887137   24.805346   21.055497 H          1 MOL1         0.0783
      77    C23     21.710885   23.134546   19.909541 C.3        1 MOL1         0.1043
      78    H37     21.521582   22.054740   19.858925 H          1 MOL1         0.0783
      79    O19     23.135095   23.354562   20.081943 O.3        1 MOL1        -0.3740
      80    C24     21.282922   23.742250   18.552126 C.3        1 MOL1         0.0138
      81    H38     20.274616   23.380147   18.310630 H          1 MOL1         0.0794
      82    H39     21.959246   23.367753   17.772153 H          1 MOL1         0.0794
      83    O20     21.290037   25.175660   18.574491 O.3        1 MOL1        -0.5486
      84    H40     21.067020   25.488236   17.670693 H          1 MOL1         0.3769
      85    C25     24.604142   17.609508   22.384942 C.3        1 MOL1         0.2972
      86    H41     25.107831   16.707644   22.751022 H          1 MOL1         0.0751
      87    O21     23.474499   17.300705   21.542655 O.3        1 MOL1        -0.3740
      88    C26     24.094737   18.461756   23.573318 C.3        1 MOL1         0.1003
      89    H42     24.974796   18.812371   24.127163 H          1 MOL1         0.0783
      90    O22     23.277760   17.676635   24.455756 O.3        1 MOL1        -0.5519
      91    H43     22.382961   17.581570   24.028558 H          1 MOL1         0.3769
      92    C27     23.341329   19.702519   23.032299 C.3        1 MOL1         0.1053
      93    H44     22.489631   19.352388   22.443020 H          1 MOL1         0.0783
      94    O23     22.856398   20.512180   24.107959 O.3        1 MOL1        -0.5519
      95    H45     21.927664   20.186694   24.260495 H          1 MOL1         0.3769
      96    C28     24.239275   20.522439   22.071348 C.3        1 MOL1         0.1018
      97    H46     24.982986   21.074524   22.660731 H          1 MOL1         0.0783
      98    C29     24.949246   19.621478   21.017724 C.3        1 MOL1         0.1043
      99    H47     24.193951   19.307992   20.286572 H          1 MOL1         0.0783
     100    O24     25.520113   18.436386   21.633014 O.3        1 MOL1        -0.3740
     101    C30     26.063537   20.355503   20.234508 C.3        1 MOL1         0.0138
     102    H48     25.593092   21.091759   19.568733 H          1 MOL1         0.0794
     103    H49     26.584124   19.626533   19.599142 H          1 MOL1         0.0794
     104    O25     26.993349   21.012468   21.105059 O.3        1 MOL1        -0.5486
     105    H50     27.708338   21.389781   20.547272 H          1 MOL1         0.3769
     106    C31     21.275663   14.072850   20.232606 C.3        1 MOL1         0.2972
     107    H51     20.858015   13.182134   19.745843 H          1 MOL1         0.0751
     108    O26     20.252649   14.862931   20.868545 O.3        1 MOL1        -0.3740
     109    C32     22.338708   13.690561   21.291699 C.3        1 MOL1         0.1003
     110    H52     23.151864   13.181233   20.758289 H          1 MOL1         0.0783
     111    O27     21.801657   12.795539   22.277812 O.3        1 MOL1        -0.5519
     112    H53     21.015376   13.244170   22.681508 H          1 MOL1         0.3769
     113    C33     22.935999   14.953308   21.965561 C.3        1 MOL1         0.1053
     114    H54     22.154699   15.416424   22.585668 H          1 MOL1         0.0783
     115    O28     24.032206   14.534483   22.785504 O.3        1 MOL1        -0.5519
     116    H55     23.678747   13.796160   23.328685 H          1 MOL1         0.3769
     117    C34     23.408261   16.005135   20.917315 C.3        1 MOL1         0.1018
     118    H56     24.383821   15.704664   20.515847 H          1 MOL1         0.0783
     119    C35     22.392645   16.187317   19.753400 C.3        1 MOL1         0.1043
     120    H57     21.529753   16.737019   20.149562 H          1 MOL1         0.0783
     121    O29     21.941495   14.903389   19.259753 O.3        1 MOL1        -0.3740
     122    C36     22.936063   17.017307   18.564424 C.3        1 MOL1         0.0138
     123    H58     22.967070   18.072778   18.862974 H          1 MOL1         0.0794
     124    H59     22.222522   16.942202   17.733145 H          1 MOL1         0.0794
     125    O30     24.237067   16.594125   18.137703 O.3        1 MOL1        -0.5486
     126    H60     24.874020   16.841192   18.841371 H          1 MOL1         0.3769
     127    C1      20.128803   18.540744   23.059620 C.2        1 MOL1         0.6075
     128    O1      20.191539   19.592051   23.668908 O.co2      1 MOL1        -0.6830
     129    O2      20.701746   17.528976   23.412395 O.co2      1 MOL1        -0.6830
     130    C2      19.439315   18.525391   21.699895 C.3        1 MOL1        -0.2050
     131    H1      18.446528   18.965203   21.831438 H          1 MOL1         0.0710
     132    H2      19.300244   17.479897   21.406294 H          1 MOL1         0.0710
     133    C3      20.216173   19.284297   20.595368 C.3        1 MOL1        -0.1947
     134    H3      20.177707   20.359857   20.810464 H          1 MOL1         0.0712
     135    H4      21.274566   18.998681   20.622403 H          1 MOL1         0.0712
     136    C4      19.650839   18.985868   19.191191 C.3        1 MOL1        -0.1921
     137    H5      18.565262   19.121194   19.190939 H          1 MOL1         0.0712
     138    H6      19.833823   17.933213   18.936979 H          1 MOL1         0.0712
     139    C5      20.276698   19.894592   18.116543 C.3        1 MOL1        -0.2936
     140    H7      20.019321   20.944730   18.299728 H          1 MOL1         0.0724
     141    H8      19.906057   19.625552   17.119206 H          1 MOL1         0.0724
     142    H9      21.370288   19.804387   18.110061 H          1 MOL1         0.0724
@<TRIPOS>BOND
    1     1     2    1
    2     1     3    1
    3     1     4    1
    4     4     5    1
    5     4     6    1
    6     6     7    1
    7     4     8    1
    8     8     9    1
    9     8    10    1
   10    10    11    1
   11     8    12    1
   12    12    13    1
   13    12    14    1
   14    14    15    1
   15     1    16    1
   16    14    16    1
   17    14    17    1
   18    17    18    1
   19    17    19    1
   20    17    20    1
   21    20    21    1
   22    22    23    1
   23    22    24    1
   24    22    25    1
   25    25    26    1
   26    25    27    1
   27    27    28    1
   28    25    29    1
   29    29    30    1
   30    29    31    1
   31    31    32    1
   32     3    33    1
   33    29    33    1
   34    33    34    1
   35    33    35    1
   36    35    36    1
   37    22    37    1
   38    35    37    1
   39    35    38    1
   40    38    39    1
   41    38    40    1
   42    38    41    1
   43    41    42    1
   44    43    44    1
   45    43    45    1
   46    43    46    1
   47    46    47    1
   48    46    48    1
   49    48    49    1
   50    46    50    1
   51    50    51    1
   52    50    52    1
   53    52    53    1
   54    24    54    1
   55    50    54    1
   56    54    55    1
   57    54    56    1
   58    56    57    1
   59    43    58    1
   60    56    58    1
   61    56    59    1
   62    59    60    1
   63    59    61    1
   64    59    62    1
   65    62    63    1
   66    64    65    1
   67    64    66    1
   68    64    67    1
   69    67    68    1
   70    67    69    1
   71    69    70    1
   72    67    71    1
   73    71    72    1
   74    71    73    1
   75    73    74    1
   76    45    75    1
   77    71    75    1
   78    75    76    1
   79    75    77    1
   80    77    78    1
   81    64    79    1
   82    77    79    1
   83    77    80    1
   84    80    81    1
   85    80    82    1
   86    80    83    1
   87    83    84    1
   88    85    86    1
   89    85    87    1
   90    85    88    1
   91    88    89    1
   92    88    90    1
   93    90    91    1
   94    88    92    1
   95    92    93    1
   96    92    94    1
   97    94    95    1
   98    66    96    1
   99    92    96    1
  100    96    97    1
  101    96    98    1
  102    98    99    1
  103    85   100    1
  104    98   100    1
  105    98   101    1
  106   101   102    1
  107   101   103    1
  108   101   104    1
  109   104   105    1
  110   106   107    1
  111    12   108    1
  112   106   108    1
  113   106   109    1
  114   109   110    1
  115   109   111    1
  116   111   112    1
  117   109   113    1
  118   113   114    1
  119   113   115    1
  120   115   116    1
  121    87   117    1
  122   113   117    1
  123   117   118    1
  124   117   119    1
  125   119   120    1
  126   106   121    1
  127   119   121    1
  128   119   122    1
  129   122   123    1
  130   122   124    1
  131   122   125    1
  132   125   126    1
  133   127   128    1
  134   127   129    2
  135   127   130    1
  136   130   131    1
  137   130   132    1
  138   130   133    1
  139   133   134    1
  140   133   135    1
  141   133   136    1
  142   136   137    1
  143   136   138    1
  144   136   139    1
  145   139   140    1
  146   139   141    1
  147   139   142    1
@<TRIPOS>SUBSTRUCTURE
       1 MOL1            1 RESIDUE      1      MOL     
       2 MOL1          142 RESIDUE      1      MOL     
@<SCITEGIC>MOL_PROPERTY
feprocess Rank
SciTegic.value.IntegerValue
1

@<SCITEGIC>MOL_PROPERTY
Conf_Id
SciTegic.value.IntegerValue
1

@<SCITEGIC>MOL_PROPERTY
Probability
SciTegic.value.DoubleValue
100.00

@<SCITEGIC>MOL_PROPERTY
G
SciTegic.value.DoubleValue
493.067

@<SCITEGIC>MOL_PROPERTY
E
SciTegic.value.DoubleValue
311.169

@<SCITEGIC>MOL_PROPERTY
-TS
SciTegic.value.DoubleValue
181.898

@<SCITEGIC>MOL_PROPERTY
U+W
SciTegic.value.DoubleValue
185.975

@<SCITEGIC>MOL_PROPERTY
U
SciTegic.value.DoubleValue
259.273

@<SCITEGIC>MOL_PROPERTY
W
SciTegic.value.DoubleValue
-73.298

@<SCITEGIC>MOL_PROPERTY
W(PB)
SciTegic.value.DoubleValue
-79.262

@<SCITEGIC>MOL_PROPERTY
W(SA)
SciTegic.value.DoubleValue
5.965

@<SCITEGIC>MOL_PROPERTY
Valence
SciTegic.value.DoubleValue
152.592

@<SCITEGIC>MOL_PROPERTY
Coulomb
SciTegic.value.DoubleValue
132.023

@<SCITEGIC>MOL_PROPERTY
VdW
SciTegic.value.DoubleValue
-25.342

@<SCITEGIC>MOL_PROPERTY
VdW6
SciTegic.value.DoubleValue
-181.855

@<SCITEGIC>MOL_PROPERTY
VdW12
SciTegic.value.DoubleValue
156.513

@<SCITEGIC>MOL_PROPERTY
Bond
SciTegic.value.DoubleValue
4.926

@<SCITEGIC>MOL_PROPERTY
Angle
SciTegic.value.DoubleValue
14.608

@<SCITEGIC>MOL_PROPERTY
Pdih
SciTegic.value.DoubleValue
133.020

@<SCITEGIC>MOL_PROPERTY
Idih
SciTegic.value.DoubleValue
0.038

@<SCITEGIC>MOL_PROPERTY
Tether
SciTegic.value.DoubleValue
0.000

