VeraChem MOL file


 17 16  0  0  0  0  0  0  0  0999 V2000     
   19.6263   18.8413   24.1383 N   0  3  0  0  0  0  0  0  0  0  0  0
   18.6402   19.1179   24.1682 H   0  0  0  0  0  0  0  0  0  0  0  0
   20.0581   19.1908   24.9999 H   0  0  0  0  0  0  0  0  0  0  0  0
   19.6533   17.8183   24.1875 H   0  0  0  0  0  0  0  0  0  0  0  0
   20.3271   19.3693   22.9024 C   0  0  0  0  0  0  0  0  0  0  0  0
   21.3758   19.0641   22.9527 H   0  0  0  0  0  0  0  0  0  0  0  0
   20.2864   20.4615   22.9320 H   0  0  0  0  0  0  0  0  0  0  0  0
   19.7035   18.8637   21.5888 C   0  0  0  0  0  0  0  0  0  0  0  0
   19.7320   17.7660   21.5695 H   0  0  0  0  0  0  0  0  0  0  0  0
   18.6464   19.1588   21.5488 H   0  0  0  0  0  0  0  0  0  0  0  0
   20.4462   19.4243   20.3560 C   0  0  0  0  0  0  0  0  0  0  0  0
   21.5050   19.1319   20.3971 H   0  0  0  0  0  0  0  0  0  0  0  0
   20.4208   20.5230   20.3765 H   0  0  0  0  0  0  0  0  0  0  0  0
   19.8261   18.9214   19.0345 C   0  0  0  0  0  0  0  0  0  0  0  0
   19.8683   17.8263   18.9694 H   0  0  0  0  0  0  0  0  0  0  0  0
   20.3675   19.3306   18.1716 H   0  0  0  0  0  0  0  0  0  0  0  0
   18.7755   19.2284   18.9486 H   0  0  0  0  0  0  0  0  0  0  0  0
  1  2  1  0  0  0  0
  1  3  1  0  0  0  0
  1  4  1  0  0  0  0
  1  5  1  0  0  0  0
  5  6  1  0  0  0  0
  5  7  1  0  0  0  0
  5  8  1  0  0  0  0
  8  9  1  0  0  0  0
  8 10  1  0  0  0  0
  8 11  1  0  0  0  0
 11 12  1  0  0  0  0
 11 13  1  0  0  0  0
 11 14  1  0  0  0  0
 14 15  1  0  0  0  0
 14 16  1  0  0  0  0
 14 17  1  0  0  0  0
M  END
> <VM2 Rank>
1

> <Conf_Id>
131

> <Probability>
27.96

> <Sum Probability>
27.96

> <Delta G>
0.000

> <G>
15.407

> <E>
-2.451

> <-TS>
17.858

> <U+W>
-15.865

> <U>
44.664

> <W>
-60.528

> <W(PB)>
-62.308

> <W(SA)>
1.780

> <Valence>
0.872

> <Coulomb>
43.648

> <VdW>
0.144

> <VdW6>
-2.370

> <VdW12>
2.515

> <Bond>
0.080

> <Angle>
0.376

> <Pdih>
0.416

> <Idih>
0.000

> <Tether>
0.000

$$$$
VeraChem MOL file


 17 16  0  0  0  0  0  0  0  0999 V2000     
   19.2948   19.3739   23.6869 N   0  3  0  0  0  0  0  0  0  0  0  0
   19.4571   19.6752   24.6532 H   0  0  0  0  0  0  0  0  0  0  0  0
   18.6078   18.6149   23.7242 H   0  0  0  0  0  0  0  0  0  0  0  0
   18.8518   20.1590   23.2013 H   0  0  0  0  0  0  0  0  0  0  0  0
   20.5806   18.9410   23.0086 C   0  0  0  0  0  0  0  0  0  0  0  0
   21.0149   18.1344   23.6056 H   0  0  0  0  0  0  0  0  0  0  0  0
   21.2744   19.7860   23.0245 H   0  0  0  0  0  0  0  0  0  0  0  0
   20.3889   18.4550   21.5582 C   0  0  0  0  0  0  0  0  0  0  0  0
   21.3497   18.0703   21.1911 H   0  0  0  0  0  0  0  0  0  0  0  0
   19.6881   17.6097   21.5442 H   0  0  0  0  0  0  0  0  0  0  0  0
   19.8906   19.5727   20.6120 C   0  0  0  0  0  0  0  0  0  0  0  0
   20.5812   20.4269   20.6525 H   0  0  0  0  0  0  0  0  0  0  0  0
   18.9109   19.9408   20.9455 H   0  0  0  0  0  0  0  0  0  0  0  0
   19.7740   19.0773   19.1543 C   0  0  0  0  0  0  0  0  0  0  0  0
   19.4189   19.8825   18.4982 H   0  0  0  0  0  0  0  0  0  0  0  0
   19.0653   18.2425   19.0761 H   0  0  0  0  0  0  0  0  0  0  0  0
   20.7458   18.7372   18.7731 H   0  0  0  0  0  0  0  0  0  0  0  0
  1  2  1  0  0  0  0
  1  3  1  0  0  0  0
  1  4  1  0  0  0  0
  1  5  1  0  0  0  0
  5  6  1  0  0  0  0
  5  7  1  0  0  0  0
  5  8  1  0  0  0  0
  8  9  1  0  0  0  0
  8 10  1  0  0  0  0
  8 11  1  0  0  0  0
 11 12  1  0  0  0  0
 11 13  1  0  0  0  0
 11 14  1  0  0  0  0
 14 15  1  0  0  0  0
 14 16  1  0  0  0  0
 14 17  1  0  0  0  0
M  END
> <VM2 Rank>
2

> <Conf_Id>
82

> <Probability>
15.65

> <Sum Probability>
43.61

> <Delta G>
0.346

> <G>
15.753

> <E>
-2.202

> <-TS>
17.955

> <U+W>
-15.616

> <U>
45.278

> <W>
-60.894

> <W(PB)>
-62.643

> <W(SA)>
1.750

> <Valence>
0.993

> <Coulomb>
44.034

> <VdW>
0.251

> <VdW6>
-2.856

> <VdW12>
3.107

> <Bond>
0.101

> <Angle>
0.434

> <Pdih>
0.458

> <Idih>
0.000

> <Tether>
0.000

$$$$
VeraChem MOL file


 17 16  0  0  0  0  0  0  0  0999 V2000     
   20.0682   18.3818   23.7016 N   0  3  0  0  0  0  0  0  0  0  0  0
   19.1639   17.9015   23.7349 H   0  0  0  0  0  0  0  0  0  0  0  0
   20.3862   18.4835   24.6709 H   0  0  0  0  0  0  0  0  0  0  0  0
   20.7281   17.7517   23.2371 H   0  0  0  0  0  0  0  0  0  0  0  0
   19.9723   19.7215   22.9970 C   0  0  0  0  0  0  0  0  0  0  0  0
   20.9607   20.1883   23.0184 H   0  0  0  0  0  0  0  0  0  0  0  0
   19.2877   20.3505   23.5727 H   0  0  0  0  0  0  0  0  0  0  0  0
   19.4750   19.6274   21.5408 C   0  0  0  0  0  0  0  0  0  0  0  0
   18.4845   19.1538   21.5213 H   0  0  0  0  0  0  0  0  0  0  0  0
   19.3418   20.6460   21.1528 H   0  0  0  0  0  0  0  0  0  0  0  0
   20.4506   18.8542   20.6226 C   0  0  0  0  0  0  0  0  0  0  0  0
   20.5635   17.8206   20.9770 H   0  0  0  0  0  0  0  0  0  0  0  0
   21.4469   19.3162   20.6690 H   0  0  0  0  0  0  0  0  0  0  0  0
   19.9628   18.8352   19.1579 C   0  0  0  0  0  0  0  0  0  0  0  0
   18.9815   18.3502   19.0745 H   0  0  0  0  0  0  0  0  0  0  0  0
   20.6663   18.2823   18.5219 H   0  0  0  0  0  0  0  0  0  0  0  0
   19.8759   19.8533   18.7566 H   0  0  0  0  0  0  0  0  0  0  0  0
  1  2  1  0  0  0  0
  1  3  1  0  0  0  0
  1  4  1  0  0  0  0
  1  5  1  0  0  0  0
  5  6  1  0  0  0  0
  5  7  1  0  0  0  0
  5  8  1  0  0  0  0
  8  9  1  0  0  0  0
  8 10  1  0  0  0  0
  8 11  1  0  0  0  0
 11 12  1  0  0  0  0
 11 13  1  0  0  0  0
 11 14  1  0  0  0  0
 14 15  1  0  0  0  0
 14 16  1  0  0  0  0
 14 17  1  0  0  0  0
M  END
> <VM2 Rank>
3

> <Conf_Id>
87

> <Probability>
15.14

> <Sum Probability>
58.75

> <Delta G>
0.366

> <G>
15.773

> <E>
-2.182

> <-TS>
17.955

> <U+W>
-15.596

> <U>
45.278

> <W>
-60.874

> <W(PB)>
-62.616

> <W(SA)>
1.742

> <Valence>
0.993

> <Coulomb>
44.034

> <VdW>
0.251

> <VdW6>
-2.855

> <VdW12>
3.107

> <Bond>
0.101

> <Angle>
0.434

> <Pdih>
0.458

> <Idih>
0.000

> <Tether>
0.000

$$$$
VeraChem MOL file


 17 16  0  0  0  0  0  0  0  0999 V2000     
   19.5540   18.9866   24.0026 N   0  3  0  0  0  0  0  0  0  0  0  0
   20.4352   18.7384   24.4625 H   0  0  0  0  0  0  0  0  0  0  0  0
   18.9632   18.1496   24.0130 H   0  0  0  0  0  0  0  0  0  0  0  0
   19.0938   19.6816   24.5994 H   0  0  0  0  0  0  0  0  0  0  0  0
   19.7745   19.5083   22.5967 C   0  0  0  0  0  0  0  0  0  0  0  0
   20.3839   20.4136   22.6639 H   0  0  0  0  0  0  0  0  0  0  0  0
   18.8001   19.7807   22.1829 H   0  0  0  0  0  0  0  0  0  0  0  0
   20.4648   18.4873   21.6720 C   0  0  0  0  0  0  0  0  0  0  0  0
   21.4239   18.1902   22.1165 H   0  0  0  0  0  0  0  0  0  0  0  0
   19.8535   17.5775   21.6058 H   0  0  0  0  0  0  0  0  0  0  0  0
   20.7195   19.0454   20.2522 C   0  0  0  0  0  0  0  0  0  0  0  0
   21.2829   18.3011   19.6720 H   0  0  0  0  0  0  0  0  0  0  0  0
   21.3590   19.9372   20.3141 H   0  0  0  0  0  0  0  0  0  0  0  0
   19.4163   19.3924   19.4965 C   0  0  0  0  0  0  0  0  0  0  0  0
   18.7558   18.5184   19.4260 H   0  0  0  0  0  0  0  0  0  0  0  0
   19.6408   19.7255   18.4749 H   0  0  0  0  0  0  0  0  0  0  0  0
   18.8644   20.2000   19.9938 H   0  0  0  0  0  0  0  0  0  0  0  0
  1  2  1  0  0  0  0
  1  3  1  0  0  0  0
  1  4  1  0  0  0  0
  1  5  1  0  0  0  0
  5  6  1  0  0  0  0
  5  7  1  0  0  0  0
  5  8  1  0  0  0  0
  8  9  1  0  0  0  0
  8 10  1  0  0  0  0
  8 11  1  0  0  0  0
 11 12  1  0  0  0  0
 11 13  1  0  0  0  0
 11 14  1  0  0  0  0
 14 15  1  0  0  0  0
 14 16  1  0  0  0  0
 14 17  1  0  0  0  0
M  END
> <VM2 Rank>
4

> <Conf_Id>
38

> <Probability>
15.00

> <Sum Probability>
73.75

> <Delta G>
0.371

> <G>
15.778

> <E>
-2.176

> <-TS>
17.955

> <U+W>
-15.590

> <U>
45.174

> <W>
-60.764

> <W(PB)>
-62.518

> <W(SA)>
1.754

> <Valence>
1.161

> <Coulomb>
43.789

> <VdW>
0.224

> <VdW6>
-2.897

> <VdW12>
3.121

> <Bond>
0.100

> <Angle>
0.500

> <Pdih>
0.561

> <Idih>
0.000

> <Tether>
0.000

$$$$
VeraChem MOL file


 17 16  0  0  0  0  0  0  0  0999 V2000     
   19.7514   18.7333   24.0063 N   0  3  0  0  0  0  0  0  0  0  0  0
   18.7953   18.3650   24.0098 H   0  0  0  0  0  0  0  0  0  0  0  0
   19.7194   19.6568   24.4489 H   0  0  0  0  0  0  0  0  0  0  0  0
   20.3042   18.1286   24.6224 H   0  0  0  0  0  0  0  0  0  0  0  0
   20.3313   18.7938   22.6073 C   0  0  0  0  0  0  0  0  0  0  0  0
   20.3633   17.7750   22.2126 H   0  0  0  0  0  0  0  0  0  0  0  0
   21.3569   19.1650   22.6824 H   0  0  0  0  0  0  0  0  0  0  0  0
   19.5233   19.6953   21.6541 C   0  0  0  0  0  0  0  0  0  0  0  0
   18.4927   19.3234   21.5799 H   0  0  0  0  0  0  0  0  0  0  0  0
   19.4632   20.7060   22.0792 H   0  0  0  0  0  0  0  0  0  0  0  0
   20.1470   19.7799   20.2413 C   0  0  0  0  0  0  0  0  0  0  0  0
   21.1671   20.1834   20.3104 H   0  0  0  0  0  0  0  0  0  0  0  0
   19.5714   20.4971   19.6394 H   0  0  0  0  0  0  0  0  0  0  0  0
   20.1760   18.4177   19.5110 C   0  0  0  0  0  0  0  0  0  0  0  0
   20.8170   17.6946   20.0310 H   0  0  0  0  0  0  0  0  0  0  0  0
   20.5686   18.5352   18.4926 H   0  0  0  0  0  0  0  0  0  0  0  0
   19.1682   17.9893   19.4338 H   0  0  0  0  0  0  0  0  0  0  0  0
  1  2  1  0  0  0  0
  1  3  1  0  0  0  0
  1  4  1  0  0  0  0
  1  5  1  0  0  0  0
  5  6  1  0  0  0  0
  5  7  1  0  0  0  0
  5  8  1  0  0  0  0
  8  9  1  0  0  0  0
  8 10  1  0  0  0  0
  8 11  1  0  0  0  0
 11 12  1  0  0  0  0
 11 13  1  0  0  0  0
 11 14  1  0  0  0  0
 14 15  1  0  0  0  0
 14 16  1  0  0  0  0
 14 17  1  0  0  0  0
M  END
> <VM2 Rank>
5

> <Conf_Id>
41

> <Probability>
14.11

> <Sum Probability>
87.86

> <Delta G>
0.408

> <G>
15.815

> <E>
-2.140

> <-TS>
17.955

> <U+W>
-15.554

> <U>
45.174

> <W>
-60.728

> <W(PB)>
-62.487

> <W(SA)>
1.758

> <Valence>
1.161

> <Coulomb>
43.789

> <VdW>
0.224

> <VdW6>
-2.897

> <VdW12>
3.121

> <Bond>
0.100

> <Angle>
0.500

> <Pdih>
0.561

> <Idih>
0.000

> <Tether>
0.000

$$$$
VeraChem MOL file


 17 16  0  0  0  0  0  0  0  0999 V2000     
   19.6054   18.3343   23.4320 N   0  3  0  0  0  0  0  0  0  0  0  0
   19.4468   17.5580   22.7834 H   0  0  0  0  0  0  0  0  0  0  0  0
   18.8596   18.2946   24.1341 H   0  0  0  0  0  0  0  0  0  0  0  0
   20.4851   18.1451   23.9215 H   0  0  0  0  0  0  0  0  0  0  0  0
   19.6333   19.6697   22.7138 C   0  0  0  0  0  0  0  0  0  0  0  0
   19.7676   20.4503   23.4675 H   0  0  0  0  0  0  0  0  0  0  0  0
   18.6597   19.8210   22.2406 H   0  0  0  0  0  0  0  0  0  0  0  0
   20.7497   19.7843   21.6553 C   0  0  0  0  0  0  0  0  0  0  0  0
   20.7338   20.7993   21.2366 H   0  0  0  0  0  0  0  0  0  0  0  0
   21.7252   19.6716   22.1467 H   0  0  0  0  0  0  0  0  0  0  0  0
   20.6330   18.7560   20.5027 C   0  0  0  0  0  0  0  0  0  0  0  0
   20.7395   17.7354   20.8949 H   0  0  0  0  0  0  0  0  0  0  0  0
   21.4736   18.9038   19.8103 H   0  0  0  0  0  0  0  0  0  0  0  0
   19.3076   18.8758   19.7162 C   0  0  0  0  0  0  0  0  0  0  0  0
   18.4406   18.6459   20.3482 H   0  0  0  0  0  0  0  0  0  0  0  0
   19.2964   18.1750   18.8714 H   0  0  0  0  0  0  0  0  0  0  0  0
   19.1784   19.8885   19.3125 H   0  0  0  0  0  0  0  0  0  0  0  0
  1  2  1  0  0  0  0
  1  3  1  0  0  0  0
  1  4  1  0  0  0  0
  1  5  1  0  0  0  0
  5  6  1  0  0  0  0
  5  7  1  0  0  0  0
  5  8  1  0  0  0  0
  8  9  1  0  0  0  0
  8 10  1  0  0  0  0
  8 11  1  0  0  0  0
 11 12  1  0  0  0  0
 11 13  1  0  0  0  0
 11 14  1  0  0  0  0
 14 15  1  0  0  0  0
 14 16  1  0  0  0  0
 14 17  1  0  0  0  0
M  END
> <VM2 Rank>
6

> <Conf_Id>
170

> <Probability>
6.05

> <Sum Probability>
93.92

> <Delta G>
0.912

> <G>
16.319

> <E>
-1.812

> <-TS>
18.131

> <U+W>
-15.225

> <U>
45.697

> <W>
-60.922

> <W(PB)>
-62.634

> <W(SA)>
1.712

> <Valence>
1.263

> <Coulomb>
44.179

> <VdW>
0.255

> <VdW6>
-3.552

> <VdW12>
3.807

> <Bond>
0.125

> <Angle>
0.616

> <Pdih>
0.521

> <Idih>
0.000

> <Tether>
0.000

$$$$
VeraChem MOL file


 17 16  0  0  0  0  0  0  0  0999 V2000     
   19.1396   18.9320   23.4232 N   0  3  0  0  0  0  0  0  0  0  0  0
   18.3575   18.9560   22.7628 H   0  0  0  0  0  0  0  0  0  0  0  0
   19.1644   19.8402   23.8965 H   0  0  0  0  0  0  0  0  0  0  0  0
   18.9087   18.2317   24.1351 H   0  0  0  0  0  0  0  0  0  0  0  0
   20.4515   18.6196   22.7294 C   0  0  0  0  0  0  0  0  0  0  0  0
   20.3669   17.6300   22.2730 H   0  0  0  0  0  0  0  0  0  0  0  0
   21.2304   18.5730   23.4953 H   0  0  0  0  0  0  0  0  0  0  0  0
   20.8507   19.6546   21.6572 C   0  0  0  0  0  0  0  0  0  0  0  0
   20.9730   20.6369   22.1324 H   0  0  0  0  0  0  0  0  0  0  0  0
   21.8370   19.3836   21.2576 H   0  0  0  0  0  0  0  0  0  0  0  0
   19.8418   19.7713   20.4876 C   0  0  0  0  0  0  0  0  0  0  0  0
   20.2006   20.5375   19.7861 H   0  0  0  0  0  0  0  0  0  0  0  0
   18.8727   20.1309   20.8594 H   0  0  0  0  0  0  0  0  0  0  0  0
   19.6453   18.4425   19.7225 C   0  0  0  0  0  0  0  0  0  0  0  0
   18.9752   18.5872   18.8653 H   0  0  0  0  0  0  0  0  0  0  0  0
   19.2015   17.6696   20.3626 H   0  0  0  0  0  0  0  0  0  0  0  0
   20.6014   18.0626   19.3395 H   0  0  0  0  0  0  0  0  0  0  0  0
  1  2  1  0  0  0  0
  1  3  1  0  0  0  0
  1  4  1  0  0  0  0
  1  5  1  0  0  0  0
  5  6  1  0  0  0  0
  5  7  1  0  0  0  0
  5  8  1  0  0  0  0
  8  9  1  0  0  0  0
  8 10  1  0  0  0  0
  8 11  1  0  0  0  0
 11 12  1  0  0  0  0
 11 13  1  0  0  0  0
 11 14  1  0  0  0  0
 14 15  1  0  0  0  0
 14 16  1  0  0  0  0
 14 17  1  0  0  0  0
M  END
> <VM2 Rank>
7

> <Conf_Id>
74

> <Probability>
5.61

> <Sum Probability>
99.53

> <Delta G>
0.958

> <G>
16.365

> <E>
-1.766

> <-TS>
18.131

> <U+W>
-15.180

> <U>
45.697

> <W>
-60.876

> <W(PB)>
-62.587

> <W(SA)>
1.710

> <Valence>
1.263

> <Coulomb>
44.179

> <VdW>
0.255

> <VdW6>
-3.552

> <VdW12>
3.807

> <Bond>
0.125

> <Angle>
0.616

> <Pdih>
0.521

> <Idih>
0.000

> <Tether>
0.000

$$$$
VeraChem MOL file


 17 16  0  0  0  0  0  0  0  0999 V2000     
   19.4442   18.2039   23.2130 N   0  3  0  0  0  0  0  0  0  0  0  0
   19.3471   17.5465   22.4351 H   0  0  0  0  0  0  0  0  0  0  0  0
   18.5074   18.5598   23.4255 H   0  0  0  0  0  0  0  0  0  0  0  0
   19.7491   17.6638   24.0292 H   0  0  0  0  0  0  0  0  0  0  0  0
   20.4118   19.3246   22.8846 C   0  0  0  0  0  0  0  0  0  0  0  0
   21.4055   18.8939   22.7351 H   0  0  0  0  0  0  0  0  0  0  0  0
   20.4548   19.9770   23.7609 H   0  0  0  0  0  0  0  0  0  0  0  0
   20.0154   20.1640   21.6518 C   0  0  0  0  0  0  0  0  0  0  0  0
   18.9414   20.3905   21.6811 H   0  0  0  0  0  0  0  0  0  0  0  0
   20.5293   21.1316   21.7262 H   0  0  0  0  0  0  0  0  0  0  0  0
   20.3950   19.5263   20.2909 C   0  0  0  0  0  0  0  0  0  0  0  0
   21.4811   19.3628   20.2495 H   0  0  0  0  0  0  0  0  0  0  0  0
   20.1658   20.2482   19.4945 H   0  0  0  0  0  0  0  0  0  0  0  0
   19.6626   18.2013   19.9797 C   0  0  0  0  0  0  0  0  0  0  0  0
   20.0159   17.3859   20.6215 H   0  0  0  0  0  0  0  0  0  0  0  0
   19.8495   17.8980   18.9413 H   0  0  0  0  0  0  0  0  0  0  0  0
   18.5771   18.3068   20.1054 H   0  0  0  0  0  0  0  0  0  0  0  0
  1  2  1  0  0  0  0
  1  3  1  0  0  0  0
  1  4  1  0  0  0  0
  1  5  1  0  0  0  0
  5  6  1  0  0  0  0
  5  7  1  0  0  0  0
  5  8  1  0  0  0  0
  8  9  1  0  0  0  0
  8 10  1  0  0  0  0
  8 11  1  0  0  0  0
 11 12  1  0  0  0  0
 11 13  1  0  0  0  0
 11 14  1  0  0  0  0
 14 15  1  0  0  0  0
 14 16  1  0  0  0  0
 14 17  1  0  0  0  0
M  END
> <VM2 Rank>
8

> <Conf_Id>
67

> <Probability>
0.25

> <Sum Probability>
99.77

> <Delta G>
2.819

> <G>
18.226

> <E>
0.210

> <-TS>
18.016

> <U+W>
-13.203

> <U>
47.423

> <W>
-60.627

> <W(PB)>
-62.328

> <W(SA)>
1.702

> <Valence>
2.414

> <Coulomb>
44.831

> <VdW>
0.178

> <VdW6>
-3.743

> <VdW12>
3.921

> <Bond>
0.138

> <Angle>
0.941

> <Pdih>
1.336

> <Idih>
0.000

> <Tether>
0.000

$$$$
VeraChem MOL file


 17 16  0  0  0  0  0  0  0  0999 V2000     
   18.9770   18.8034   23.2042 N   0  3  0  0  0  0  0  0  0  0  0  0
   19.0902   17.8121   23.4366 H   0  0  0  0  0  0  0  0  0  0  0  0
   18.3270   18.8553   22.4157 H   0  0  0  0  0  0  0  0  0  0  0  0
   18.5161   19.2459   24.0058 H   0  0  0  0  0  0  0  0  0  0  0  0
   20.3047   19.4620   22.8826 C   0  0  0  0  0  0  0  0  0  0  0  0
   20.9352   19.3606   23.7701 H   0  0  0  0  0  0  0  0  0  0  0  0
   20.1321   20.5278   22.7108 H   0  0  0  0  0  0  0  0  0  0  0  0
   21.0395   18.8500   21.6713 C   0  0  0  0  0  0  0  0  0  0  0  0
   22.1022   19.1135   21.7561 H   0  0  0  0  0  0  0  0  0  0  0  0
   20.9962   17.7539   21.7202 H   0  0  0  0  0  0  0  0  0  0  0  0
   20.5335   19.3486   20.2936 C   0  0  0  0  0  0  0  0  0  0  0  0
   21.1890   18.9355   19.5140 H   0  0  0  0  0  0  0  0  0  0  0  0
   20.6410   20.4408   20.2335 H   0  0  0  0  0  0  0  0  0  0  0  0
   19.0743   18.9561   19.9685 C   0  0  0  0  0  0  0  0  0  0  0  0
   18.9096   17.8802   20.1117 H   0  0  0  0  0  0  0  0  0  0  0  0
   18.8409   19.1922   18.9221 H   0  0  0  0  0  0  0  0  0  0  0  0
   18.3608   19.5095   20.5900 H   0  0  0  0  0  0  0  0  0  0  0  0
  1  2  1  0  0  0  0
  1  3  1  0  0  0  0
  1  4  1  0  0  0  0
  1  5  1  0  0  0  0
  5  6  1  0  0  0  0
  5  7  1  0  0  0  0
  5  8  1  0  0  0  0
  8  9  1  0  0  0  0
  8 10  1  0  0  0  0
  8 11  1  0  0  0  0
 11 12  1  0  0  0  0
 11 13  1  0  0  0  0
 11 14  1  0  0  0  0
 14 15  1  0  0  0  0
 14 16  1  0  0  0  0
 14 17  1  0  0  0  0
M  END
> <VM2 Rank>
9

> <Conf_Id>
47

> <Probability>
0.23

> <Sum Probability>
100.00

> <Delta G>
2.871

> <G>
18.277

> <E>
0.262

> <-TS>
18.016

> <U+W>
-13.152

> <U>
47.423

> <W>
-60.575

> <W(PB)>
-62.262

> <W(SA)>
1.687

> <Valence>
2.414

> <Coulomb>
44.831

> <VdW>
0.178

> <VdW6>
-3.743

> <VdW12>
3.921

> <Bond>
0.138

> <Angle>
0.941

> <Pdih>
1.336

> <Idih>
0.000

> <Tether>
0.000

$$$$
