VeraChem MOL file


 19 18  0  0  0  0  0  0  0  0999 V2000     
   19.9539   19.2771   25.5145 C   0  0  0  0  0  0  0  0  0  0  0  0
   20.6501   18.4763   26.1063 O   0  5  0  0  0  0  0  0  0  0  0  0
   19.7318   20.4018   25.9168 O   0  0  0  0  0  0  0  0  0  0  0  0
   19.3419   18.8542   24.1837 C   0  0  0  0  0  0  0  0  0  0  0  0
   18.3779   19.3654   24.0741 H   0  0  0  0  0  0  0  0  0  0  0  0
   19.1346   17.7782   24.2304 H   0  0  0  0  0  0  0  0  0  0  0  0
   20.2549   19.1703   22.9735 C   0  0  0  0  0  0  0  0  0  0  0  0
   20.4634   20.2489   22.9483 H   0  0  0  0  0  0  0  0  0  0  0  0
   21.2201   18.6616   23.1046 H   0  0  0  0  0  0  0  0  0  0  0  0
   19.6127   18.7328   21.6394 C   0  0  0  0  0  0  0  0  0  0  0  0
   18.6475   19.2419   21.5119 H   0  0  0  0  0  0  0  0  0  0  0  0
   19.4043   17.6544   21.6683 H   0  0  0  0  0  0  0  0  0  0  0  0
   20.5245   19.0489   20.4356 C   0  0  0  0  0  0  0  0  0  0  0  0
   20.7337   20.1271   20.4021 H   0  0  0  0  0  0  0  0  0  0  0  0
   21.4905   18.5397   20.5585 H   0  0  0  0  0  0  0  0  0  0  0  0
   19.8802   18.6107   19.1052 C   0  0  0  0  0  0  0  0  0  0  0  0
   19.6887   17.5296   19.0988 H   0  0  0  0  0  0  0  0  0  0  0  0
   18.9263   19.1290   18.9413 H   0  0  0  0  0  0  0  0  0  0  0  0
   20.5415   18.8428   18.2603 H   0  0  0  0  0  0  0  0  0  0  0  0
  1  2  1  0  0  0  0
  1  3  2  0  0  0  0
  1  4  1  0  0  0  0
  4  5  1  0  0  0  0
  4  6  1  0  0  0  0
  4  7  1  0  0  0  0
  7  8  1  0  0  0  0
  7  9  1  0  0  0  0
  7 10  1  0  0  0  0
 10 11  1  0  0  0  0
 10 12  1  0  0  0  0
 10 13  1  0  0  0  0
 13 14  1  0  0  0  0
 13 15  1  0  0  0  0
 13 16  1  0  0  0  0
 16 17  1  0  0  0  0
 16 18  1  0  0  0  0
 16 19  1  0  0  0  0
M  END
> <VM2 Rank>
1

> <Conf_Id>
193

> <Probability>
41.03

> <Sum Probability>
41.03

> <Delta G>
0.000

> <G>
-26.152

> <E>
-40.889

> <-TS>
14.737

> <U+W>
-56.091

> <U>
5.975

> <W>
-62.065

> <W(PB)>
-64.218

> <W(SA)>
2.153

> <Valence>
6.673

> <Coulomb>
-1.307

> <VdW>
0.610

> <VdW6>
-5.351

> <VdW12>
5.961

> <Bond>
0.086

> <Angle>
2.253

> <Pdih>
4.333

> <Idih>
0.001

> <Tether>
0.000

$$$$
VeraChem MOL file


 19 18  0  0  0  0  0  0  0  0999 V2000     
   19.8292   19.3146   25.3695 C   0  0  0  0  0  0  0  0  0  0  0  0
   20.1459   18.4559   26.1686 O   0  5  0  0  0  0  0  0  0  0  0  0
   19.7257   20.4915   25.6531 O   0  0  0  0  0  0  0  0  0  0  0  0
   19.5681   18.8952   23.9271 C   0  0  0  0  0  0  0  0  0  0  0  0
   18.7938   19.5567   23.5226 H   0  0  0  0  0  0  0  0  0  0  0  0
   19.1556   17.8792   23.9375 H   0  0  0  0  0  0  0  0  0  0  0  0
   20.8442   18.9453   23.0472 C   0  0  0  0  0  0  0  0  0  0  0  0
   21.2228   19.9761   23.0082 H   0  0  0  0  0  0  0  0  0  0  0  0
   21.6283   18.3450   23.5290 H   0  0  0  0  0  0  0  0  0  0  0  0
   20.6254   18.4138   21.6108 C   0  0  0  0  0  0  0  0  0  0  0  0
   20.2551   17.3803   21.6531 H   0  0  0  0  0  0  0  0  0  0  0  0
   21.5982   18.3748   21.1016 H   0  0  0  0  0  0  0  0  0  0  0  0
   19.6562   19.2806   20.7759 C   0  0  0  0  0  0  0  0  0  0  0  0
   18.6554   19.2714   21.2273 H   0  0  0  0  0  0  0  0  0  0  0  0
   19.9989   20.3245   20.7759 H   0  0  0  0  0  0  0  0  0  0  0  0
   19.5552   18.7750   19.3229 C   0  0  0  0  0  0  0  0  0  0  0  0
   20.5340   18.8068   18.8265 H   0  0  0  0  0  0  0  0  0  0  0  0
   19.1882   17.7407   19.2918 H   0  0  0  0  0  0  0  0  0  0  0  0
   18.8615   19.3984   18.7439 H   0  0  0  0  0  0  0  0  0  0  0  0
  1  2  1  0  0  0  0
  1  3  2  0  0  0  0
  1  4  1  0  0  0  0
  4  5  1  0  0  0  0
  4  6  1  0  0  0  0
  4  7  1  0  0  0  0
  7  8  1  0  0  0  0
  7  9  1  0  0  0  0
  7 10  1  0  0  0  0
 10 11  1  0  0  0  0
 10 12  1  0  0  0  0
 10 13  1  0  0  0  0
 13 14  1  0  0  0  0
 13 15  1  0  0  0  0
 13 16  1  0  0  0  0
 16 17  1  0  0  0  0
 16 18  1  0  0  0  0
 16 19  1  0  0  0  0
M  END
> <VM2 Rank>
2

> <Conf_Id>
258

> <Probability>
11.86

> <Sum Probability>
52.90

> <Delta G>
0.740

> <G>
-25.412

> <E>
-40.258

> <-TS>
14.846

> <U+W>
-55.460

> <U>
6.914

> <W>
-62.374

> <W(PB)>
-64.451

> <W(SA)>
2.077

> <Valence>
7.196

> <Coulomb>
-1.020

> <VdW>
0.738

> <VdW6>
-6.011

> <VdW12>
6.749

> <Bond>
0.126

> <Angle>
2.499

> <Pdih>
4.570

> <Idih>
0.001

> <Tether>
0.000

$$$$
VeraChem MOL file


 19 18  0  0  0  0  0  0  0  0999 V2000     
   20.1747   19.3731   25.3607 C   0  0  0  0  0  0  0  0  0  0  0  0
   20.1982   18.4647   26.1673 O   0  5  0  0  0  0  0  0  0  0  0  0
   19.8985   20.5207   25.6485 O   0  0  0  0  0  0  0  0  0  0  0  0
   20.4874   19.0508   23.9038 C   0  0  0  0  0  0  0  0  0  0  0  0
   21.2110   18.2270   23.8852 H   0  0  0  0  0  0  0  0  0  0  0  0
   20.9802   19.9267   23.4670 H   0  0  0  0  0  0  0  0  0  0  0  0
   19.2240   18.6712   23.0884 C   0  0  0  0  0  0  0  0  0  0  0  0
   18.7058   17.8504   23.6034 H   0  0  0  0  0  0  0  0  0  0  0  0
   18.5261   19.5197   23.0768 H   0  0  0  0  0  0  0  0  0  0  0  0
   19.5341   18.2291   21.6386 C   0  0  0  0  0  0  0  0  0  0  0  0
   18.6044   17.8681   21.1778 H   0  0  0  0  0  0  0  0  0  0  0  0
   20.2253   17.3753   21.6539 H   0  0  0  0  0  0  0  0  0  0  0  0
   20.1217   19.3594   20.7641 C   0  0  0  0  0  0  0  0  0  0  0  0
   19.4552   20.2325   20.7897 H   0  0  0  0  0  0  0  0  0  0  0  0
   21.0909   19.6837   21.1653 H   0  0  0  0  0  0  0  0  0  0  0  0
   20.3114   18.9030   19.3036 C   0  0  0  0  0  0  0  0  0  0  0  0
   20.7319   19.7150   18.6962 H   0  0  0  0  0  0  0  0  0  0  0  0
   20.9963   18.0468   19.2458 H   0  0  0  0  0  0  0  0  0  0  0  0
   19.3534   18.6068   18.8565 H   0  0  0  0  0  0  0  0  0  0  0  0
  1  2  1  0  0  0  0
  1  3  2  0  0  0  0
  1  4  1  0  0  0  0
  4  5  1  0  0  0  0
  4  6  1  0  0  0  0
  4  7  1  0  0  0  0
  7  8  1  0  0  0  0
  7  9  1  0  0  0  0
  7 10  1  0  0  0  0
 10 11  1  0  0  0  0
 10 12  1  0  0  0  0
 10 13  1  0  0  0  0
 13 14  1  0  0  0  0
 13 15  1  0  0  0  0
 13 16  1  0  0  0  0
 16 17  1  0  0  0  0
 16 18  1  0  0  0  0
 16 19  1  0  0  0  0
M  END
> <VM2 Rank>
3

> <Conf_Id>
261

> <Probability>
11.06

> <Sum Probability>
63.96

> <Delta G>
0.781

> <G>
-25.371

> <E>
-40.216

> <-TS>
14.846

> <U+W>
-55.418

> <U>
6.914

> <W>
-62.332

> <W(PB)>
-64.422

> <W(SA)>
2.090

> <Valence>
7.196

> <Coulomb>
-1.020

> <VdW>
0.738

> <VdW6>
-6.011

> <VdW12>
6.749

> <Bond>
0.126

> <Angle>
2.499

> <Pdih>
4.570

> <Idih>
0.001

> <Tether>
0.000

$$$$
VeraChem MOL file


 19 18  0  0  0  0  0  0  0  0999 V2000     
   20.0106   19.3758   25.3743 C   0  0  0  0  0  0  0  0  0  0  0  0
   20.8026   18.7068   26.0078 O   0  5  0  0  0  0  0  0  0  0  0  0
   19.7500   20.5339   25.6333 O   0  0  0  0  0  0  0  0  0  0  0  0
   19.3188   18.7318   24.1779 C   0  0  0  0  0  0  0  0  0  0  0  0
   18.3203   19.1751   24.0821 H   0  0  0  0  0  0  0  0  0  0  0  0
   19.1809   17.6662   24.3972 H   0  0  0  0  0  0  0  0  0  0  0  0
   20.1097   18.9083   22.8582 C   0  0  0  0  0  0  0  0  0  0  0  0
   20.2515   19.9807   22.6696 H   0  0  0  0  0  0  0  0  0  0  0  0
   21.1098   18.4681   22.9730 H   0  0  0  0  0  0  0  0  0  0  0  0
   19.3840   18.2496   21.6623 C   0  0  0  0  0  0  0  0  0  0  0  0
   18.4037   18.7237   21.5171 H   0  0  0  0  0  0  0  0  0  0  0  0
   19.1878   17.1951   21.9000 H   0  0  0  0  0  0  0  0  0  0  0  0
   20.1897   18.3139   20.3443 C   0  0  0  0  0  0  0  0  0  0  0  0
   21.1690   17.8355   20.4840 H   0  0  0  0  0  0  0  0  0  0  0  0
   19.6632   17.7256   19.5802 H   0  0  0  0  0  0  0  0  0  0  0  0
   20.3846   19.7519   19.8170 C   0  0  0  0  0  0  0  0  0  0  0  0
   21.0061   20.3475   20.4973 H   0  0  0  0  0  0  0  0  0  0  0  0
   20.8828   19.7377   18.8389 H   0  0  0  0  0  0  0  0  0  0  0  0
   19.4193   20.2607   19.6971 H   0  0  0  0  0  0  0  0  0  0  0  0
  1  2  1  0  0  0  0
  1  3  2  0  0  0  0
  1  4  1  0  0  0  0
  4  5  1  0  0  0  0
  4  6  1  0  0  0  0
  4  7  1  0  0  0  0
  7  8  1  0  0  0  0
  7  9  1  0  0  0  0
  7 10  1  0  0  0  0
 10 11  1  0  0  0  0
 10 12  1  0  0  0  0
 10 13  1  0  0  0  0
 13 14  1  0  0  0  0
 13 15  1  0  0  0  0
 13 16  1  0  0  0  0
 16 17  1  0  0  0  0
 16 18  1  0  0  0  0
 16 19  1  0  0  0  0
M  END
> <VM2 Rank>
4

> <Conf_Id>
56

> <Probability>
9.39

> <Sum Probability>
73.35

> <Delta G>
0.880

> <G>
-25.272

> <E>
-40.125

> <-TS>
14.853

> <U+W>
-55.327

> <U>
7.244

> <W>
-62.571

> <W(PB)>
-64.665

> <W(SA)>
2.094

> <Valence>
7.174

> <Coulomb>
-0.669

> <VdW>
0.739

> <VdW6>
-5.969

> <VdW12>
6.708

> <Bond>
0.116

> <Angle>
2.481

> <Pdih>
4.576

> <Idih>
0.000

> <Tether>
0.000

$$$$
VeraChem MOL file


 19 18  0  0  0  0  0  0  0  0999 V2000     
   19.8728   19.2877   25.3817 C   0  0  0  0  0  0  0  0  0  0  0  0
   20.1973   18.3193   26.0399 O   0  5  0  0  0  0  0  0  0  0  0  0
   18.9512   20.0226   25.6759 O   0  0  0  0  0  0  0  0  0  0  0  0
   20.6536   19.5862   24.1066 C   0  0  0  0  0  0  0  0  0  0  0  0
   21.6933   19.2744   24.2631 H   0  0  0  0  0  0  0  0  0  0  0  0
   20.6600   20.6727   23.9572 H   0  0  0  0  0  0  0  0  0  0  0  0
   20.0650   18.8797   22.8606 C   0  0  0  0  0  0  0  0  0  0  0  0
   20.0566   17.7940   23.0293 H   0  0  0  0  0  0  0  0  0  0  0  0
   19.0199   19.1925   22.7353 H   0  0  0  0  0  0  0  0  0  0  0  0
   20.8734   19.2028   21.5828 C   0  0  0  0  0  0  0  0  0  0  0  0
   21.9287   18.9492   21.7537 H   0  0  0  0  0  0  0  0  0  0  0  0
   20.8406   20.2833   21.3870 H   0  0  0  0  0  0  0  0  0  0  0  0
   20.3803   18.4359   20.3341 C   0  0  0  0  0  0  0  0  0  0  0  0
   21.0748   18.6290   19.5048 H   0  0  0  0  0  0  0  0  0  0  0  0
   20.4171   17.3543   20.5241 H   0  0  0  0  0  0  0  0  0  0  0  0
   18.9562   18.8377   19.8933 C   0  0  0  0  0  0  0  0  0  0  0  0
   18.6880   18.3330   18.9561 H   0  0  0  0  0  0  0  0  0  0  0  0
   18.2094   18.5575   20.6466 H   0  0  0  0  0  0  0  0  0  0  0  0
   18.8876   19.9204   19.7256 H   0  0  0  0  0  0  0  0  0  0  0  0
  1  2  1  0  0  0  0
  1  3  2  0  0  0  0
  1  4  1  0  0  0  0
  4  5  1  0  0  0  0
  4  6  1  0  0  0  0
  4  7  1  0  0  0  0
  7  8  1  0  0  0  0
  7  9  1  0  0  0  0
  7 10  1  0  0  0  0
 10 11  1  0  0  0  0
 10 12  1  0  0  0  0
 10 13  1  0  0  0  0
 13 14  1  0  0  0  0
 13 15  1  0  0  0  0
 13 16  1  0  0  0  0
 16 17  1  0  0  0  0
 16 18  1  0  0  0  0
 16 19  1  0  0  0  0
M  END
> <VM2 Rank>
5

> <Conf_Id>
93

> <Probability>
9.28

> <Sum Probability>
82.63

> <Delta G>
0.886

> <G>
-25.266

> <E>
-40.119

> <-TS>
14.853

> <U+W>
-55.321

> <U>
7.244

> <W>
-62.565

> <W(PB)>
-64.668

> <W(SA)>
2.103

> <Valence>
7.174

> <Coulomb>
-0.669

> <VdW>
0.739

> <VdW6>
-5.969

> <VdW12>
6.708

> <Bond>
0.116

> <Angle>
2.481

> <Pdih>
4.576

> <Idih>
0.000

> <Tether>
0.000

$$$$
VeraChem MOL file


 19 18  0  0  0  0  0  0  0  0999 V2000     
   20.1397   19.2125   25.1803 C   0  0  0  0  0  0  0  0  0  0  0  0
   20.9105   18.2974   25.3929 O   0  5  0  0  0  0  0  0  0  0  0  0
   20.3192   20.3476   25.5751 O   0  0  0  0  0  0  0  0  0  0  0  0
   18.8655   18.9176   24.3937 C   0  0  0  0  0  0  0  0  0  0  0  0
   18.0325   19.3860   24.9312 H   0  0  0  0  0  0  0  0  0  0  0  0
   18.6857   17.8358   24.4105 H   0  0  0  0  0  0  0  0  0  0  0  0
   18.8927   19.4329   22.9312 C   0  0  0  0  0  0  0  0  0  0  0  0
   17.8955   19.3035   22.4892 H   0  0  0  0  0  0  0  0  0  0  0  0
   19.1020   20.5117   22.9293 H   0  0  0  0  0  0  0  0  0  0  0  0
   19.9351   18.6960   22.0608 C   0  0  0  0  0  0  0  0  0  0  0  0
   19.7294   17.6169   22.0763 H   0  0  0  0  0  0  0  0  0  0  0  0
   20.9383   18.8348   22.4872 H   0  0  0  0  0  0  0  0  0  0  0  0
   19.9231   19.2026   20.6035 C   0  0  0  0  0  0  0  0  0  0  0  0
   18.9231   19.0623   20.1702 H   0  0  0  0  0  0  0  0  0  0  0  0
   20.1310   20.2815   20.5849 H   0  0  0  0  0  0  0  0  0  0  0  0
   20.9641   18.4654   19.7376 C   0  0  0  0  0  0  0  0  0  0  0  0
   21.9783   18.6148   20.1307 H   0  0  0  0  0  0  0  0  0  0  0  0
   20.7614   17.3867   19.7131 H   0  0  0  0  0  0  0  0  0  0  0  0
   20.9424   18.8381   18.7052 H   0  0  0  0  0  0  0  0  0  0  0  0
  1  2  1  0  0  0  0
  1  3  2  0  0  0  0
  1  4  1  0  0  0  0
  4  5  1  0  0  0  0
  4  6  1  0  0  0  0
  4  7  1  0  0  0  0
  7  8  1  0  0  0  0
  7  9  1  0  0  0  0
  7 10  1  0  0  0  0
 10 11  1  0  0  0  0
 10 12  1  0  0  0  0
 10 13  1  0  0  0  0
 13 14  1  0  0  0  0
 13 15  1  0  0  0  0
 13 16  1  0  0  0  0
 16 17  1  0  0  0  0
 16 18  1  0  0  0  0
 16 19  1  0  0  0  0
M  END
> <VM2 Rank>
6

> <Conf_Id>
278

> <Probability>
3.73

> <Sum Probability>
86.36

> <Delta G>
1.430

> <G>
-24.722

> <E>
-39.769

> <-TS>
15.047

> <U+W>
-54.971

> <U>
8.266

> <W>
-63.238

> <W(PB)>
-65.341

> <W(SA)>
2.103

> <Valence>
6.935

> <Coulomb>
0.874

> <VdW>
0.457

> <VdW6>
-6.205

> <VdW12>
6.662

> <Bond>
0.107

> <Angle>
2.420

> <Pdih>
4.407

> <Idih>
0.001

> <Tether>
0.000

$$$$
VeraChem MOL file


 19 18  0  0  0  0  0  0  0  0999 V2000     
   20.0469   19.4069   25.1612 C   0  0  0  0  0  0  0  0  0  0  0  0
   21.0054   18.9084   25.7174 O   0  5  0  0  0  0  0  0  0  0  0  0
   19.8126   20.5992   25.1659 O   0  0  0  0  0  0  0  0  0  0  0  0
   19.0739   18.4808   24.4366 C   0  0  0  0  0  0  0  0  0  0  0  0
   18.1247   19.0117   24.2945 H   0  0  0  0  0  0  0  0  0  0  0  0
   18.8677   17.6353   25.1035 H   0  0  0  0  0  0  0  0  0  0  0  0
   19.5997   17.9514   23.0771 C   0  0  0  0  0  0  0  0  0  0  0  0
   20.5641   17.4476   23.2311 H   0  0  0  0  0  0  0  0  0  0  0  0
   18.9032   17.1917   22.6971 H   0  0  0  0  0  0  0  0  0  0  0  0
   19.7563   19.0710   22.0238 C   0  0  0  0  0  0  0  0  0  0  0  0
   20.4651   19.8268   22.3895 H   0  0  0  0  0  0  0  0  0  0  0  0
   18.7929   19.5799   21.8830 H   0  0  0  0  0  0  0  0  0  0  0  0
   20.2500   18.5174   20.6709 C   0  0  0  0  0  0  0  0  0  0  0  0
   21.2149   18.0098   20.8084 H   0  0  0  0  0  0  0  0  0  0  0  0
   19.5426   17.7637   20.2981 H   0  0  0  0  0  0  0  0  0  0  0  0
   20.4051   19.6368   19.6221 C   0  0  0  0  0  0  0  0  0  0  0  0
   20.7571   19.2260   18.6669 H   0  0  0  0  0  0  0  0  0  0  0  0
   19.4469   20.1414   19.4417 H   0  0  0  0  0  0  0  0  0  0  0  0
   21.1315   20.3895   19.9558 H   0  0  0  0  0  0  0  0  0  0  0  0
  1  2  1  0  0  0  0
  1  3  2  0  0  0  0
  1  4  1  0  0  0  0
  4  5  1  0  0  0  0
  4  6  1  0  0  0  0
  4  7  1  0  0  0  0
  7  8  1  0  0  0  0
  7  9  1  0  0  0  0
  7 10  1  0  0  0  0
 10 11  1  0  0  0  0
 10 12  1  0  0  0  0
 10 13  1  0  0  0  0
 13 14  1  0  0  0  0
 13 15  1  0  0  0  0
 13 16  1  0  0  0  0
 16 17  1  0  0  0  0
 16 18  1  0  0  0  0
 16 19  1  0  0  0  0
M  END
> <VM2 Rank>
7

> <Conf_Id>
247

> <Probability>
3.72

> <Sum Probability>
90.07

> <Delta G>
1.432

> <G>
-24.720

> <E>
-39.768

> <-TS>
15.047

> <U+W>
-54.970

> <U>
8.266

> <W>
-63.236

> <W(PB)>
-65.330

> <W(SA)>
2.095

> <Valence>
6.935

> <Coulomb>
0.874

> <VdW>
0.457

> <VdW6>
-6.205

> <VdW12>
6.662

> <Bond>
0.107

> <Angle>
2.420

> <Pdih>
4.407

> <Idih>
0.001

> <Tether>
0.000

$$$$
VeraChem MOL file


 19 18  0  0  0  0  0  0  0  0999 V2000     
   20.0073   19.2236   25.5349 C   0  0  0  0  0  0  0  0  0  0  0  0
   19.9566   18.5581   26.5499 O   0  5  0  0  0  0  0  0  0  0  0  0
   20.1008   20.4358   25.5405 O   0  0  0  0  0  0  0  0  0  0  0  0
   19.9481   18.4725   24.2038 C   0  0  0  0  0  0  0  0  0  0  0  0
   19.0189   17.8906   24.1975 H   0  0  0  0  0  0  0  0  0  0  0  0
   20.7765   17.7544   24.1962 H   0  0  0  0  0  0  0  0  0  0  0  0
   20.0163   19.3645   22.9356 C   0  0  0  0  0  0  0  0  0  0  0  0
   19.1872   20.0854   22.9521 H   0  0  0  0  0  0  0  0  0  0  0  0
   20.9465   19.9491   22.9509 H   0  0  0  0  0  0  0  0  0  0  0  0
   19.9504   18.5267   21.6402 C   0  0  0  0  0  0  0  0  0  0  0  0
   19.0198   17.9429   21.6271 H   0  0  0  0  0  0  0  0  0  0  0  0
   20.7801   17.8065   21.6258 H   0  0  0  0  0  0  0  0  0  0  0  0
   20.0183   19.4152   20.3808 C   0  0  0  0  0  0  0  0  0  0  0  0
   19.1888   20.1359   20.3905 H   0  0  0  0  0  0  0  0  0  0  0  0
   20.9490   19.9995   20.3891 H   0  0  0  0  0  0  0  0  0  0  0  0
   19.9522   18.5756   19.0894 C   0  0  0  0  0  0  0  0  0  0  0  0
   19.0159   18.0044   19.0398 H   0  0  0  0  0  0  0  0  0  0  0  0
   20.0017   19.2229   18.2042 H   0  0  0  0  0  0  0  0  0  0  0  0
   20.7893   17.8669   19.0384 H   0  0  0  0  0  0  0  0  0  0  0  0
  1  2  1  0  0  0  0
  1  3  2  0  0  0  0
  1  4  1  0  0  0  0
  4  5  1  0  0  0  0
  4  6  1  0  0  0  0
  4  7  1  0  0  0  0
  7  8  1  0  0  0  0
  7  9  1  0  0  0  0
  7 10  1  0  0  0  0
 10 11  1  0  0  0  0
 10 12  1  0  0  0  0
 10 13  1  0  0  0  0
 13 14  1  0  0  0  0
 13 15  1  0  0  0  0
 13 16  1  0  0  0  0
 16 17  1  0  0  0  0
 16 18  1  0  0  0  0
 16 19  1  0  0  0  0
M  END
> <VM2 Rank>
8

> <Conf_Id>
0

> <Probability>
2.34

> <Sum Probability>
92.41

> <Delta G>
1.709

> <G>
-24.443

> <E>
-39.689

> <-TS>
15.246

> <U+W>
-54.891

> <U>
6.966

> <W>
-61.857

> <W(PB)>
-63.965

> <W(SA)>
2.108

> <Valence>
7.175

> <Coulomb>
-1.360

> <VdW>
1.151

> <VdW6>
-5.641

> <VdW12>
6.792

> <Bond>
0.119

> <Angle>
2.715

> <Pdih>
4.340

> <Idih>
0.000

> <Tether>
0.000

$$$$
VeraChem MOL file


 19 18  0  0  0  0  0  0  0  0999 V2000     
   19.8396   19.3989   25.1884 C   0  0  0  0  0  0  0  0  0  0  0  0
   20.2288   18.7002   26.1031 O   0  5  0  0  0  0  0  0  0  0  0  0
   19.6637   20.5972   25.2858 O   0  0  0  0  0  0  0  0  0  0  0  0
   19.5756   18.7386   23.8399 C   0  0  0  0  0  0  0  0  0  0  0  0
   18.7541   19.2808   23.3579 H   0  0  0  0  0  0  0  0  0  0  0  0
   19.2276   17.7151   24.0235 H   0  0  0  0  0  0  0  0  0  0  0  0
   20.8268   18.7219   22.9240 C   0  0  0  0  0  0  0  0  0  0  0  0
   21.1434   19.7526   22.7159 H   0  0  0  0  0  0  0  0  0  0  0  0
   21.6572   18.2538   23.4704 H   0  0  0  0  0  0  0  0  0  0  0  0
   20.6130   17.9507   21.5973 C   0  0  0  0  0  0  0  0  0  0  0  0
   20.3979   16.8985   21.8281 H   0  0  0  0  0  0  0  0  0  0  0  0
   21.5559   17.9508   21.0336 H   0  0  0  0  0  0  0  0  0  0  0  0
   19.4867   18.5013   20.6882 C   0  0  0  0  0  0  0  0  0  0  0  0
   19.4205   17.8691   19.7921 H   0  0  0  0  0  0  0  0  0  0  0  0
   18.5154   18.4143   21.1928 H   0  0  0  0  0  0  0  0  0  0  0  0
   19.7158   19.9632   20.2483 C   0  0  0  0  0  0  0  0  0  0  0  0
   19.6743   20.6484   21.1045 H   0  0  0  0  0  0  0  0  0  0  0  0
   20.6926   20.0784   19.7609 H   0  0  0  0  0  0  0  0  0  0  0  0
   18.9423   20.2754   19.5348 H   0  0  0  0  0  0  0  0  0  0  0  0
  1  2  1  0  0  0  0
  1  3  2  0  0  0  0
  1  4  1  0  0  0  0
  4  5  1  0  0  0  0
  4  6  1  0  0  0  0
  4  7  1  0  0  0  0
  7  8  1  0  0  0  0
  7  9  1  0  0  0  0
  7 10  1  0  0  0  0
 10 11  1  0  0  0  0
 10 12  1  0  0  0  0
 10 13  1  0  0  0  0
 13 14  1  0  0  0  0
 13 15  1  0  0  0  0
 13 16  1  0  0  0  0
 16 17  1  0  0  0  0
 16 18  1  0  0  0  0
 16 19  1  0  0  0  0
M  END
> <VM2 Rank>
9

> <Conf_Id>
181

> <Probability>
1.64

> <Sum Probability>
94.05

> <Delta G>
1.919

> <G>
-24.233

> <E>
-39.381

> <-TS>
15.148

> <U+W>
-54.583

> <U>
8.219

> <W>
-62.803

> <W(PB)>
-64.860

> <W(SA)>
2.057

> <Valence>
7.609

> <Coulomb>
-0.088

> <VdW>
0.699

> <VdW6>
-6.924

> <VdW12>
7.623

> <Bond>
0.163

> <Angle>
2.870

> <Pdih>
4.576

> <Idih>
0.001

> <Tether>
0.000

$$$$
VeraChem MOL file


 19 18  0  0  0  0  0  0  0  0999 V2000     
   20.0745   19.4634   25.1809 C   0  0  0  0  0  0  0  0  0  0  0  0
   20.1504   18.6787   26.1056 O   0  5  0  0  0  0  0  0  0  0  0  0
   19.6200   20.5852   25.2871 O   0  0  0  0  0  0  0  0  0  0  0  0
   20.5581   19.0080   23.8087 C   0  0  0  0  0  0  0  0  0  0  0  0
   21.3893   18.3080   23.9550 H   0  0  0  0  0  0  0  0  0  0  0  0
   20.9585   19.8854   23.2879 H   0  0  0  0  0  0  0  0  0  0  0  0
   19.4387   18.3411   22.9681 C   0  0  0  0  0  0  0  0  0  0  0  0
   18.9968   17.5240   23.5548 H   0  0  0  0  0  0  0  0  0  0  0  0
   18.6294   19.0630   22.7957 H   0  0  0  0  0  0  0  0  0  0  0  0
   19.9371   17.7653   21.6187 C   0  0  0  0  0  0  0  0  0  0  0  0
   19.0945   17.2756   21.1118 H   0  0  0  0  0  0  0  0  0  0  0  0
   20.6717   16.9736   21.8194 H   0  0  0  0  0  0  0  0  0  0  0  0
   20.5695   18.7983   20.6539 C   0  0  0  0  0  0  0  0  0  0  0  0
   21.4773   19.2268   21.0988 H   0  0  0  0  0  0  0  0  0  0  0  0
   20.8957   18.2738   19.7453 H   0  0  0  0  0  0  0  0  0  0  0  0
   19.6017   19.9320   20.2519 C   0  0  0  0  0  0  0  0  0  0  0  0
   19.3386   20.5564   21.1152 H   0  0  0  0  0  0  0  0  0  0  0  0
   20.0643   20.5832   19.4991 H   0  0  0  0  0  0  0  0  0  0  0  0
   18.6758   19.5252   19.8250 H   0  0  0  0  0  0  0  0  0  0  0  0
  1  2  1  0  0  0  0
  1  3  2  0  0  0  0
  1  4  1  0  0  0  0
  4  5  1  0  0  0  0
  4  6  1  0  0  0  0
  4  7  1  0  0  0  0
  7  8  1  0  0  0  0
  7  9  1  0  0  0  0
  7 10  1  0  0  0  0
 10 11  1  0  0  0  0
 10 12  1  0  0  0  0
 10 13  1  0  0  0  0
 13 14  1  0  0  0  0
 13 15  1  0  0  0  0
 13 16  1  0  0  0  0
 16 17  1  0  0  0  0
 16 18  1  0  0  0  0
 16 19  1  0  0  0  0
M  END
> <VM2 Rank>
10

> <Conf_Id>
21

> <Probability>
1.61

> <Sum Probability>
95.66

> <Delta G>
1.930

> <G>
-24.222

> <E>
-39.370

> <-TS>
15.148

> <U+W>
-54.572

> <U>
8.220

> <W>
-62.792

> <W(PB)>
-64.830

> <W(SA)>
2.038

> <Valence>
7.609

> <Coulomb>
-0.088

> <VdW>
0.699

> <VdW6>
-6.924

> <VdW12>
7.623

> <Bond>
0.163

> <Angle>
2.870

> <Pdih>
4.576

> <Idih>
0.000

> <Tether>
0.000

$$$$
VeraChem MOL file


 19 18  0  0  0  0  0  0  0  0999 V2000     
   20.0017   19.2478   25.2108 C   0  0  0  0  0  0  0  0  0  0  0  0
   20.7795   18.4084   25.6194 O   0  5  0  0  0  0  0  0  0  0  0  0
   20.0127   20.4073   25.5745 O   0  0  0  0  0  0  0  0  0  0  0  0
   18.9384   18.8199   24.2030 C   0  0  0  0  0  0  0  0  0  0  0  0
   17.9821   19.2376   24.5391 H   0  0  0  0  0  0  0  0  0  0  0  0
   18.8385   17.7283   24.2406 H   0  0  0  0  0  0  0  0  0  0  0  0
   19.2216   19.2813   22.7495 C   0  0  0  0  0  0  0  0  0  0  0  0
   18.3376   19.0637   22.1367 H   0  0  0  0  0  0  0  0  0  0  0  0
   19.3585   20.3714   22.7339 H   0  0  0  0  0  0  0  0  0  0  0  0
   20.4623   18.5878   22.1374 C   0  0  0  0  0  0  0  0  0  0  0  0
   20.3072   17.5005   22.1186 H   0  0  0  0  0  0  0  0  0  0  0  0
   21.3315   18.7654   22.7854 H   0  0  0  0  0  0  0  0  0  0  0  0
   20.8052   19.0867   20.7146 C   0  0  0  0  0  0  0  0  0  0  0  0
   20.9629   20.1739   20.7306 H   0  0  0  0  0  0  0  0  0  0  0  0
   21.7599   18.6393   20.4053 H   0  0  0  0  0  0  0  0  0  0  0  0
   19.7286   18.7329   19.6658 C   0  0  0  0  0  0  0  0  0  0  0  0
   19.5313   17.6530   19.6542 H   0  0  0  0  0  0  0  0  0  0  0  0
   18.7847   19.2539   19.8684 H   0  0  0  0  0  0  0  0  0  0  0  0
   20.0606   19.0264   18.6615 H   0  0  0  0  0  0  0  0  0  0  0  0
  1  2  1  0  0  0  0
  1  3  2  0  0  0  0
  1  4  1  0  0  0  0
  4  5  1  0  0  0  0
  4  6  1  0  0  0  0
  4  7  1  0  0  0  0
  7  8  1  0  0  0  0
  7  9  1  0  0  0  0
  7 10  1  0  0  0  0
 10 11  1  0  0  0  0
 10 12  1  0  0  0  0
 10 13  1  0  0  0  0
 13 14  1  0  0  0  0
 13 15  1  0  0  0  0
 13 16  1  0  0  0  0
 16 17  1  0  0  0  0
 16 18  1  0  0  0  0
 16 19  1  0  0  0  0
M  END
> <VM2 Rank>
11

> <Conf_Id>
235

> <Probability>
0.74

> <Sum Probability>
96.41

> <Delta G>
2.392

> <G>
-23.760

> <E>
-38.926

> <-TS>
15.166

> <U+W>
-54.128

> <U>
8.869

> <W>
-62.997

> <W(PB)>
-65.086

> <W(SA)>
2.089

> <Valence>
7.469

> <Coulomb>
0.761

> <VdW>
0.639

> <VdW6>
-6.781

> <VdW12>
7.420

> <Bond>
0.141

> <Angle>
2.667

> <Pdih>
4.660

> <Idih>
0.001

> <Tether>
0.000

$$$$
VeraChem MOL file


 19 18  0  0  0  0  0  0  0  0999 V2000     
   20.0790   19.3488   25.1049 C   0  0  0  0  0  0  0  0  0  0  0  0
   20.9618   18.6236   25.5189 O   0  5  0  0  0  0  0  0  0  0  0  0
   20.0481   20.5479   25.2995 O   0  0  0  0  0  0  0  0  0  0  0  0
   18.9318   18.7175   24.3208 C   0  0  0  0  0  0  0  0  0  0  0  0
   17.9974   19.1412   24.7073 H   0  0  0  0  0  0  0  0  0  0  0  0
   18.9074   17.6431   24.5400 H   0  0  0  0  0  0  0  0  0  0  0  0
   19.0113   18.9505   22.7896 C   0  0  0  0  0  0  0  0  0  0  0  0
   18.0878   18.5808   22.3242 H   0  0  0  0  0  0  0  0  0  0  0  0
   19.0551   20.0303   22.5952 H   0  0  0  0  0  0  0  0  0  0  0  0
   20.2268   18.2424   22.1451 C   0  0  0  0  0  0  0  0  0  0  0  0
   20.2101   17.1796   22.4228 H   0  0  0  0  0  0  0  0  0  0  0  0
   21.1590   18.6549   22.5551 H   0  0  0  0  0  0  0  0  0  0  0  0
   20.2517   18.3481   20.6028 C   0  0  0  0  0  0  0  0  0  0  0  0
   21.0745   17.7285   20.2203 H   0  0  0  0  0  0  0  0  0  0  0  0
   19.3263   17.9266   20.1865 H   0  0  0  0  0  0  0  0  0  0  0  0
   20.4394   19.7934   20.0932 C   0  0  0  0  0  0  0  0  0  0  0  0
   21.3439   20.2459   20.5202 H   0  0  0  0  0  0  0  0  0  0  0  0
   20.5391   19.8051   19.0001 H   0  0  0  0  0  0  0  0  0  0  0  0
   19.5816   20.4251   20.3554 H   0  0  0  0  0  0  0  0  0  0  0  0
  1  2  1  0  0  0  0
  1  3  2  0  0  0  0
  1  4  1  0  0  0  0
  4  5  1  0  0  0  0
  4  6  1  0  0  0  0
  4  7  1  0  0  0  0
  7  8  1  0  0  0  0
  7  9  1  0  0  0  0
  7 10  1  0  0  0  0
 10 11  1  0  0  0  0
 10 12  1  0  0  0  0
 10 13  1  0  0  0  0
 13 14  1  0  0  0  0
 13 15  1  0  0  0  0
 13 16  1  0  0  0  0
 16 17  1  0  0  0  0
 16 18  1  0  0  0  0
 16 19  1  0  0  0  0
M  END
> <VM2 Rank>
12

> <Conf_Id>
148

> <Probability>
0.73

> <Sum Probability>
97.14

> <Delta G>
2.400

> <G>
-23.752

> <E>
-38.917

> <-TS>
15.165

> <U+W>
-54.119

> <U>
9.285

> <W>
-63.404

> <W(PB)>
-65.477

> <W(SA)>
2.073

> <Valence>
7.426

> <Coulomb>
1.298

> <VdW>
0.561

> <VdW6>
-6.840

> <VdW12>
7.401

> <Bond>
0.137

> <Angle>
2.635

> <Pdih>
4.653

> <Idih>
0.001

> <Tether>
0.000

$$$$
VeraChem MOL file


 19 18  0  0  0  0  0  0  0  0999 V2000     
   20.1194   19.2641   25.1133 C   0  0  0  0  0  0  0  0  0  0  0  0
   21.0096   18.5319   25.4980 O   0  5  0  0  0  0  0  0  0  0  0  0
   20.0869   20.4578   25.3384 O   0  0  0  0  0  0  0  0  0  0  0  0
   18.9669   18.6440   24.3281 C   0  0  0  0  0  0  0  0  0  0  0  0
   18.1064   19.3225   24.3747 H   0  0  0  0  0  0  0  0  0  0  0  0
   18.6734   17.7238   24.8469 H   0  0  0  0  0  0  0  0  0  0  0  0
   19.3130   18.3179   22.8519 C   0  0  0  0  0  0  0  0  0  0  0  0
   20.1880   17.6548   22.8292 H   0  0  0  0  0  0  0  0  0  0  0  0
   18.4793   17.7598   22.4051 H   0  0  0  0  0  0  0  0  0  0  0  0
   19.5846   19.5890   22.0125 C   0  0  0  0  0  0  0  0  0  0  0  0
   20.4610   20.1186   22.4110 H   0  0  0  0  0  0  0  0  0  0  0  0
   18.7336   20.2757   22.1179 H   0  0  0  0  0  0  0  0  0  0  0  0
   19.7990   19.2975   20.5093 C   0  0  0  0  0  0  0  0  0  0  0  0
   18.9204   18.7778   20.1027 H   0  0  0  0  0  0  0  0  0  0  0  0
   19.8706   20.2531   19.9717 H   0  0  0  0  0  0  0  0  0  0  0  0
   21.0706   18.4698   20.2235 C   0  0  0  0  0  0  0  0  0  0  0  0
   21.2256   18.3654   19.1419 H   0  0  0  0  0  0  0  0  0  0  0  0
   21.9590   18.9561   20.6472 H   0  0  0  0  0  0  0  0  0  0  0  0
   20.9953   17.4606   20.6473 H   0  0  0  0  0  0  0  0  0  0  0  0
  1  2  1  0  0  0  0
  1  3  2  0  0  0  0
  1  4  1  0  0  0  0
  4  5  1  0  0  0  0
  4  6  1  0  0  0  0
  4  7  1  0  0  0  0
  7  8  1  0  0  0  0
  7  9  1  0  0  0  0
  7 10  1  0  0  0  0
 10 11  1  0  0  0  0
 10 12  1  0  0  0  0
 10 13  1  0  0  0  0
 13 14  1  0  0  0  0
 13 15  1  0  0  0  0
 13 16  1  0  0  0  0
 16 17  1  0  0  0  0
 16 18  1  0  0  0  0
 16 19  1  0  0  0  0
M  END
> <VM2 Rank>
13

> <Conf_Id>
317

> <Probability>
0.73

> <Sum Probability>
97.87

> <Delta G>
2.405

> <G>
-23.747

> <E>
-38.911

> <-TS>
15.164

> <U+W>
-54.114

> <U>
9.285

> <W>
-63.398

> <W(PB)>
-65.463

> <W(SA)>
2.065

> <Valence>
7.426

> <Coulomb>
1.298

> <VdW>
0.561

> <VdW6>
-6.840

> <VdW12>
7.401

> <Bond>
0.137

> <Angle>
2.635

> <Pdih>
4.653

> <Idih>
0.001

> <Tether>
0.000

$$$$
VeraChem MOL file


 19 18  0  0  0  0  0  0  0  0999 V2000     
   19.9847   19.2836   25.2073 C   0  0  0  0  0  0  0  0  0  0  0  0
   20.8579   18.6350   25.7491 O   0  5  0  0  0  0  0  0  0  0  0  0
   19.7983   20.4659   25.4168 O   0  0  0  0  0  0  0  0  0  0  0  0
   19.0589   18.5672   24.2279 C   0  0  0  0  0  0  0  0  0  0  0  0
   18.1513   19.1692   24.0987 H   0  0  0  0  0  0  0  0  0  0  0  0
   18.7508   17.6258   24.6979 H   0  0  0  0  0  0  0  0  0  0  0  0
   19.7041   18.2697   22.8491 C   0  0  0  0  0  0  0  0  0  0  0  0
   20.6324   17.7007   22.9969 H   0  0  0  0  0  0  0  0  0  0  0  0
   19.0240   17.6246   22.2784 H   0  0  0  0  0  0  0  0  0  0  0  0
   20.0003   19.5564   22.0420 C   0  0  0  0  0  0  0  0  0  0  0  0
   20.6375   20.2203   22.6421 H   0  0  0  0  0  0  0  0  0  0  0  0
   19.0652   20.1042   21.8621 H   0  0  0  0  0  0  0  0  0  0  0  0
   20.7098   19.2866   20.6949 C   0  0  0  0  0  0  0  0  0  0  0  0
   20.9918   20.2494   20.2467 H   0  0  0  0  0  0  0  0  0  0  0  0
   21.6467   18.7406   20.8718 H   0  0  0  0  0  0  0  0  0  0  0  0
   19.8361   18.5076   19.6879 C   0  0  0  0  0  0  0  0  0  0  0  0
   19.6257   17.4908   20.0421 H   0  0  0  0  0  0  0  0  0  0  0  0
   18.8796   19.0193   19.5195 H   0  0  0  0  0  0  0  0  0  0  0  0
   20.3487   18.4226   18.7210 H   0  0  0  0  0  0  0  0  0  0  0  0
  1  2  1  0  0  0  0
  1  3  2  0  0  0  0
  1  4  1  0  0  0  0
  4  5  1  0  0  0  0
  4  6  1  0  0  0  0
  4  7  1  0  0  0  0
  7  8  1  0  0  0  0
  7  9  1  0  0  0  0
  7 10  1  0  0  0  0
 10 11  1  0  0  0  0
 10 12  1  0  0  0  0
 10 13  1  0  0  0  0
 13 14  1  0  0  0  0
 13 15  1  0  0  0  0
 13 16  1  0  0  0  0
 16 17  1  0  0  0  0
 16 18  1  0  0  0  0
 16 19  1  0  0  0  0
M  END
> <VM2 Rank>
14

> <Conf_Id>
238

> <Probability>
0.70

> <Sum Probability>
98.56

> <Delta G>
2.428

> <G>
-23.723

> <E>
-38.888

> <-TS>
15.165

> <U+W>
-54.091

> <U>
8.869

> <W>
-62.959

> <W(PB)>
-65.044

> <W(SA)>
2.085

> <Valence>
7.469

> <Coulomb>
0.761

> <VdW>
0.639

> <VdW6>
-6.781

> <VdW12>
7.420

> <Bond>
0.141

> <Angle>
2.667

> <Pdih>
4.661

> <Idih>
0.001

> <Tether>
0.000

$$$$
VeraChem MOL file


 19 18  0  0  0  0  0  0  0  0999 V2000     
   20.1990   19.1456   24.9736 C   0  0  0  0  0  0  0  0  0  0  0  0
   21.2081   18.4714   24.9122 O   0  5  0  0  0  0  0  0  0  0  0  0
   20.1027   20.1501   25.6508 O   0  0  0  0  0  0  0  0  0  0  0  0
   18.9748   18.6904   24.1838 C   0  0  0  0  0  0  0  0  0  0  0  0
   18.1272   18.6730   24.8788 H   0  0  0  0  0  0  0  0  0  0  0  0
   19.1305   17.6551   23.8597 H   0  0  0  0  0  0  0  0  0  0  0  0
   18.6262   19.5980   22.9724 C   0  0  0  0  0  0  0  0  0  0  0  0
   17.6998   19.2362   22.5063 H   0  0  0  0  0  0  0  0  0  0  0  0
   18.4099   20.6101   23.3415 H   0  0  0  0  0  0  0  0  0  0  0  0
   19.7368   19.6865   21.8972 C   0  0  0  0  0  0  0  0  0  0  0  0
   20.6554   20.0904   22.3448 H   0  0  0  0  0  0  0  0  0  0  0  0
   19.4226   20.4089   21.1316 H   0  0  0  0  0  0  0  0  0  0  0  0
   20.0436   18.3337   21.2170 C   0  0  0  0  0  0  0  0  0  0  0  0
   20.4485   17.6264   21.9532 H   0  0  0  0  0  0  0  0  0  0  0  0
   19.1154   17.8956   20.8250 H   0  0  0  0  0  0  0  0  0  0  0  0
   21.0588   18.4963   20.0679 C   0  0  0  0  0  0  0  0  0  0  0  0
   20.6715   19.1709   19.2932 H   0  0  0  0  0  0  0  0  0  0  0  0
   22.0071   18.9072   20.4384 H   0  0  0  0  0  0  0  0  0  0  0  0
   21.2698   17.5267   19.5984 H   0  0  0  0  0  0  0  0  0  0  0  0
  1  2  1  0  0  0  0
  1  3  2  0  0  0  0
  1  4  1  0  0  0  0
  4  5  1  0  0  0  0
  4  6  1  0  0  0  0
  4  7  1  0  0  0  0
  7  8  1  0  0  0  0
  7  9  1  0  0  0  0
  7 10  1  0  0  0  0
 10 11  1  0  0  0  0
 10 12  1  0  0  0  0
 10 13  1  0  0  0  0
 13 14  1  0  0  0  0
 13 15  1  0  0  0  0
 13 16  1  0  0  0  0
 16 17  1  0  0  0  0
 16 18  1  0  0  0  0
 16 19  1  0  0  0  0
M  END
> <VM2 Rank>
15

> <Conf_Id>
159

> <Probability>
0.45

> <Sum Probability>
99.01

> <Delta G>
2.696

> <G>
-23.456

> <E>
-38.650

> <-TS>
15.194

> <U+W>
-53.852

> <U>
9.751

> <W>
-63.603

> <W(PB)>
-65.658

> <W(SA)>
2.055

> <Valence>
7.453

> <Coulomb>
1.916

> <VdW>
0.382

> <VdW6>
-7.170

> <VdW12>
7.552

> <Bond>
0.153

> <Angle>
2.768

> <Pdih>
4.531

> <Idih>
0.001

> <Tether>
0.000

$$$$
VeraChem MOL file


 19 18  0  0  0  0  0  0  0  0999 V2000     
   20.0346   19.0209   24.9861 C   0  0  0  0  0  0  0  0  0  0  0  0
   20.4074   17.8645   24.9729 O   0  5  0  0  0  0  0  0  0  0  0  0
   19.1610   19.4364   25.7217 O   0  0  0  0  0  0  0  0  0  0  0  0
   20.7209   20.0138   24.0519 C   0  0  0  0  0  0  0  0  0  0  0  0
   21.6417   19.5584   23.6699 H   0  0  0  0  0  0  0  0  0  0  0  0
   21.0293   20.8726   24.6595 H   0  0  0  0  0  0  0  0  0  0  0  0
   19.8270   20.5080   22.8817 C   0  0  0  0  0  0  0  0  0  0  0  0
   18.9488   21.0185   23.3008 H   0  0  0  0  0  0  0  0  0  0  0  0
   20.3755   21.2642   22.3041 H   0  0  0  0  0  0  0  0  0  0  0  0
   19.3441   19.3888   21.9270 C   0  0  0  0  0  0  0  0  0  0  0  0
   18.6612   19.8318   21.1893 H   0  0  0  0  0  0  0  0  0  0  0  0
   18.7556   18.6502   22.4885 H   0  0  0  0  0  0  0  0  0  0  0  0
   20.4953   18.6762   21.1827 C   0  0  0  0  0  0  0  0  0  0  0  0
   21.1245   19.4187   20.6729 H   0  0  0  0  0  0  0  0  0  0  0  0
   21.1369   18.1482   21.9009 H   0  0  0  0  0  0  0  0  0  0  0  0
   19.9597   17.6633   20.1509 C   0  0  0  0  0  0  0  0  0  0  0  0
   19.3491   16.8926   20.6393 H   0  0  0  0  0  0  0  0  0  0  0  0
   19.3411   18.1627   19.3937 H   0  0  0  0  0  0  0  0  0  0  0  0
   20.7888   17.1623   19.6346 H   0  0  0  0  0  0  0  0  0  0  0  0
  1  2  1  0  0  0  0
  1  3  2  0  0  0  0
  1  4  1  0  0  0  0
  4  5  1  0  0  0  0
  4  6  1  0  0  0  0
  4  7  1  0  0  0  0
  7  8  1  0  0  0  0
  7  9  1  0  0  0  0
  7 10  1  0  0  0  0
 10 11  1  0  0  0  0
 10 12  1  0  0  0  0
 10 13  1  0  0  0  0
 13 14  1  0  0  0  0
 13 15  1  0  0  0  0
 13 16  1  0  0  0  0
 16 17  1  0  0  0  0
 16 18  1  0  0  0  0
 16 19  1  0  0  0  0
M  END
> <VM2 Rank>
16

> <Conf_Id>
140

> <Probability>
0.42

> <Sum Probability>
99.43

> <Delta G>
2.726

> <G>
-23.426

> <E>
-38.619

> <-TS>
15.194

> <U+W>
-53.821

> <U>
9.751

> <W>
-63.573

> <W(PB)>
-65.638

> <W(SA)>
2.065

> <Valence>
7.453

> <Coulomb>
1.917

> <VdW>
0.382

> <VdW6>
-7.170

> <VdW12>
7.552

> <Bond>
0.153

> <Angle>
2.768

> <Pdih>
4.531

> <Idih>
0.001

> <Tether>
0.000

$$$$
VeraChem MOL file


 19 18  0  0  0  0  0  0  0  0999 V2000     
   20.1779   19.1937   24.9613 C   0  0  0  0  0  0  0  0  0  0  0  0
   20.8440   18.1850   25.0859 O   0  5  0  0  0  0  0  0  0  0  0  0
   19.3427   19.5503   25.7691 O   0  0  0  0  0  0  0  0  0  0  0  0
   20.4233   20.0785   23.7422 C   0  0  0  0  0  0  0  0  0  0  0  0
   21.3702   19.7817   23.2769 H   0  0  0  0  0  0  0  0  0  0  0  0
   20.5639   21.1032   24.1056 H   0  0  0  0  0  0  0  0  0  0  0  0
   19.2723   20.0567   22.6997 C   0  0  0  0  0  0  0  0  0  0  0  0
   18.3547   20.4216   23.1813 H   0  0  0  0  0  0  0  0  0  0  0  0
   19.4967   20.7724   21.8982 H   0  0  0  0  0  0  0  0  0  0  0  0
   18.9891   18.6606   22.0874 C   0  0  0  0  0  0  0  0  0  0  0  0
   18.1496   18.7479   21.3844 H   0  0  0  0  0  0  0  0  0  0  0  0
   18.6478   17.9834   22.8823 H   0  0  0  0  0  0  0  0  0  0  0  0
   20.1871   18.0053   21.3577 C   0  0  0  0  0  0  0  0  0  0  0  0
   21.0022   17.8128   22.0683 H   0  0  0  0  0  0  0  0  0  0  0  0
   19.8728   17.0211   20.9842 H   0  0  0  0  0  0  0  0  0  0  0  0
   20.7136   18.8419   20.1717 C   0  0  0  0  0  0  0  0  0  0  0  0
   21.1437   19.7916   20.5135 H   0  0  0  0  0  0  0  0  0  0  0  0
   21.4993   18.2949   19.6347 H   0  0  0  0  0  0  0  0  0  0  0  0
   19.9082   19.0640   19.4596 H   0  0  0  0  0  0  0  0  0  0  0  0
  1  2  1  0  0  0  0
  1  3  2  0  0  0  0
  1  4  1  0  0  0  0
  4  5  1  0  0  0  0
  4  6  1  0  0  0  0
  4  7  1  0  0  0  0
  7  8  1  0  0  0  0
  7  9  1  0  0  0  0
  7 10  1  0  0  0  0
 10 11  1  0  0  0  0
 10 12  1  0  0  0  0
 10 13  1  0  0  0  0
 13 14  1  0  0  0  0
 13 15  1  0  0  0  0
 13 16  1  0  0  0  0
 16 17  1  0  0  0  0
 16 18  1  0  0  0  0
 16 19  1  0  0  0  0
M  END
> <VM2 Rank>
17

> <Conf_Id>
316

> <Probability>
0.09

> <Sum Probability>
99.52

> <Delta G>
3.673

> <G>
-22.479

> <E>
-38.023

> <-TS>
15.544

> <U+W>
-53.225

> <U>
10.215

> <W>
-63.440

> <W(PB)>
-65.471

> <W(SA)>
2.031

> <Valence>
7.868

> <Coulomb>
1.969

> <VdW>
0.378

> <VdW6>
-8.068

> <VdW12>
8.446

> <Bond>
0.191

> <Angle>
3.117

> <Pdih>
4.559

> <Idih>
0.001

> <Tether>
0.000

$$$$
VeraChem MOL file


 19 18  0  0  0  0  0  0  0  0999 V2000     
   20.0733   19.4131   24.9397 C   0  0  0  0  0  0  0  0  0  0  0  0
   19.7588   18.6779   25.8550 O   0  5  0  0  0  0  0  0  0  0  0  0
   19.7072   20.5685   24.8511 O   0  0  0  0  0  0  0  0  0  0  0  0
   21.0033   18.8626   23.8620 C   0  0  0  0  0  0  0  0  0  0  0  0
   21.8546   18.3971   24.3722 H   0  0  0  0  0  0  0  0  0  0  0  0
   21.4084   19.7017   23.2848 H   0  0  0  0  0  0  0  0  0  0  0  0
   20.3379   17.8226   22.9197 C   0  0  0  0  0  0  0  0  0  0  0  0
   21.0925   17.4268   22.2277 H   0  0  0  0  0  0  0  0  0  0  0  0
   20.0026   16.9668   23.5215 H   0  0  0  0  0  0  0  0  0  0  0  0
   19.1289   18.3675   22.1163 C   0  0  0  0  0  0  0  0  0  0  0  0
   18.3305   18.6484   22.8169 H   0  0  0  0  0  0  0  0  0  0  0  0
   18.7188   17.5545   21.5019 H   0  0  0  0  0  0  0  0  0  0  0  0
   19.4364   19.5792   21.2028 C   0  0  0  0  0  0  0  0  0  0  0  0
   18.5071   19.8842   20.7024 H   0  0  0  0  0  0  0  0  0  0  0  0
   19.7493   20.4395   21.8098 H   0  0  0  0  0  0  0  0  0  0  0  0
   20.5043   19.2806   20.1286 C   0  0  0  0  0  0  0  0  0  0  0  0
   20.2205   18.4094   19.5241 H   0  0  0  0  0  0  0  0  0  0  0  0
   20.6200   20.1382   19.4534 H   0  0  0  0  0  0  0  0  0  0  0  0
   21.4826   19.0811   20.5835 H   0  0  0  0  0  0  0  0  0  0  0  0
  1  2  1  0  0  0  0
  1  3  2  0  0  0  0
  1  4  1  0  0  0  0
  4  5  1  0  0  0  0
  4  6  1  0  0  0  0
  4  7  1  0  0  0  0
  7  8  1  0  0  0  0
  7  9  1  0  0  0  0
  7 10  1  0  0  0  0
 10 11  1  0  0  0  0
 10 12  1  0  0  0  0
 10 13  1  0  0  0  0
 13 14  1  0  0  0  0
 13 15  1  0  0  0  0
 13 16  1  0  0  0  0
 16 17  1  0  0  0  0
 16 18  1  0  0  0  0
 16 19  1  0  0  0  0
M  END
> <VM2 Rank>
18

> <Conf_Id>
145

> <Probability>
0.08

> <Sum Probability>
99.61

> <Delta G>
3.689

> <G>
-22.463

> <E>
-38.007

> <-TS>
15.544

> <U+W>
-53.209

> <U>
10.215

> <W>
-63.424

> <W(PB)>
-65.459

> <W(SA)>
2.035

> <Valence>
7.868

> <Coulomb>
1.970

> <VdW>
0.378

> <VdW6>
-8.068

> <VdW12>
8.446

> <Bond>
0.191

> <Angle>
3.117

> <Pdih>
4.559

> <Idih>
0.001

> <Tether>
0.000

$$$$
VeraChem MOL file


 19 18  0  0  0  0  0  0  0  0999 V2000     
   19.8106   19.0625   25.2072 C   0  0  0  0  0  0  0  0  0  0  0  0
   20.5399   18.2448   25.7325 O   0  5  0  0  0  0  0  0  0  0  0  0
   19.2280   19.9351   25.8200 O   0  0  0  0  0  0  0  0  0  0  0  0
   19.6332   19.0036   23.6942 C   0  0  0  0  0  0  0  0  0  0  0  0
   18.6263   19.3655   23.4541 H   0  0  0  0  0  0  0  0  0  0  0  0
   19.6860   17.9508   23.3952 H   0  0  0  0  0  0  0  0  0  0  0  0
   20.6969   19.8331   22.9318 C   0  0  0  0  0  0  0  0  0  0  0  0
   20.7186   20.8481   23.3521 H   0  0  0  0  0  0  0  0  0  0  0  0
   21.6910   19.4030   23.1160 H   0  0  0  0  0  0  0  0  0  0  0  0
   20.4510   19.9393   21.4057 C   0  0  0  0  0  0  0  0  0  0  0  0
   21.2330   20.5894   20.9899 H   0  0  0  0  0  0  0  0  0  0  0  0
   19.5003   20.4547   21.2116 H   0  0  0  0  0  0  0  0  0  0  0  0
   20.4936   18.5892   20.6479 C   0  0  0  0  0  0  0  0  0  0  0  0
   20.9437   18.7560   19.6595 H   0  0  0  0  0  0  0  0  0  0  0  0
   21.1531   17.8807   21.1679 H   0  0  0  0  0  0  0  0  0  0  0  0
   19.0967   17.9644   20.4356 C   0  0  0  0  0  0  0  0  0  0  0  0
   19.1790   17.0210   19.8804 H   0  0  0  0  0  0  0  0  0  0  0  0
   18.5957   17.7500   21.3861 H   0  0  0  0  0  0  0  0  0  0  0  0
   18.4517   18.6386   19.8572 H   0  0  0  0  0  0  0  0  0  0  0  0
  1  2  1  0  0  0  0
  1  3  2  0  0  0  0
  1  4  1  0  0  0  0
  4  5  1  0  0  0  0
  4  6  1  0  0  0  0
  4  7  1  0  0  0  0
  7  8  1  0  0  0  0
  7  9  1  0  0  0  0
  7 10  1  0  0  0  0
 10 11  1  0  0  0  0
 10 12  1  0  0  0  0
 10 13  1  0  0  0  0
 13 14  1  0  0  0  0
 13 15  1  0  0  0  0
 13 16  1  0  0  0  0
 16 17  1  0  0  0  0
 16 18  1  0  0  0  0
 16 19  1  0  0  0  0
M  END
> <VM2 Rank>
19

> <Conf_Id>
121

> <Probability>
0.08

> <Sum Probability>
99.69

> <Delta G>
3.723

> <G>
-22.429

> <E>
-37.493

> <-TS>
15.064

> <U+W>
-52.695

> <U>
10.231

> <W>
-62.925

> <W(PB)>
-64.991

> <W(SA)>
2.066

> <Valence>
9.644

> <Coulomb>
-0.164

> <VdW>
0.751

> <VdW6>
-6.881

> <VdW12>
7.631

> <Bond>
0.163

> <Angle>
2.998

> <Pdih>
6.482

> <Idih>
0.001

> <Tether>
0.000

$$$$
VeraChem MOL file


 19 18  0  0  0  0  0  0  0  0999 V2000     
   20.2415   19.4255   25.1681 C   0  0  0  0  0  0  0  0  0  0  0  0
   20.9796   18.6152   25.6924 O   0  5  0  0  0  0  0  0  0  0  0  0
   19.5456   20.2025   25.7912 O   0  0  0  0  0  0  0  0  0  0  0  0
   20.1682   19.4545   23.6456 C   0  0  0  0  0  0  0  0  0  0  0  0
   21.1603   19.1932   23.2610 H   0  0  0  0  0  0  0  0  0  0  0  0
   19.9530   20.4835   23.3336 H   0  0  0  0  0  0  0  0  0  0  0  0
   19.0994   18.4874   23.0770 C   0  0  0  0  0  0  0  0  0  0  0  0
   19.3775   17.4541   23.3264 H   0  0  0  0  0  0  0  0  0  0  0  0
   18.1448   18.6800   23.5860 H   0  0  0  0  0  0  0  0  0  0  0  0
   18.8741   18.6108   21.5491 C   0  0  0  0  0  0  0  0  0  0  0  0
   18.5042   19.6154   21.3021 H   0  0  0  0  0  0  0  0  0  0  0  0
   18.0642   17.9197   21.2780 H   0  0  0  0  0  0  0  0  0  0  0  0
   20.1111   18.2668   20.6828 C   0  0  0  0  0  0  0  0  0  0  0  0
   20.7528   17.5434   21.2046 H   0  0  0  0  0  0  0  0  0  0  0  0
   19.7690   17.7660   19.7665 H   0  0  0  0  0  0  0  0  0  0  0  0
   20.9306   19.5093   20.2688 C   0  0  0  0  0  0  0  0  0  0  0  0
   20.3140   20.2072   19.6875 H   0  0  0  0  0  0  0  0  0  0  0  0
   21.3235   20.0485   21.1379 H   0  0  0  0  0  0  0  0  0  0  0  0
   21.7836   19.2151   19.6438 H   0  0  0  0  0  0  0  0  0  0  0  0
  1  2  1  0  0  0  0
  1  3  2  0  0  0  0
  1  4  1  0  0  0  0
  4  5  1  0  0  0  0
  4  6  1  0  0  0  0
  4  7  1  0  0  0  0
  7  8  1  0  0  0  0
  7  9  1  0  0  0  0
  7 10  1  0  0  0  0
 10 11  1  0  0  0  0
 10 12  1  0  0  0  0
 10 13  1  0  0  0  0
 13 14  1  0  0  0  0
 13 15  1  0  0  0  0
 13 16  1  0  0  0  0
 16 17  1  0  0  0  0
 16 18  1  0  0  0  0
 16 19  1  0  0  0  0
M  END
> <VM2 Rank>
20

> <Conf_Id>
313

> <Probability>
0.08

> <Sum Probability>
99.76

> <Delta G>
3.739

> <G>
-22.413

> <E>
-37.477

> <-TS>
15.064

> <U+W>
-52.680

> <U>
10.231

> <W>
-62.910

> <W(PB)>
-64.975

> <W(SA)>
2.065

> <Valence>
9.644

> <Coulomb>
-0.164

> <VdW>
0.751

> <VdW6>
-6.881

> <VdW12>
7.631

> <Bond>
0.163

> <Angle>
2.998

> <Pdih>
6.482

> <Idih>
0.001

> <Tether>
0.000

$$$$
VeraChem MOL file


 19 18  0  0  0  0  0  0  0  0999 V2000     
   19.7658   19.0377   24.8684 C   0  0  0  0  0  0  0  0  0  0  0  0
   19.5076   17.8711   25.0901 O   0  5  0  0  0  0  0  0  0  0  0  0
   19.0141   19.9532   25.1405 O   0  0  0  0  0  0  0  0  0  0  0  0
   21.1357   19.3734   24.2817 C   0  0  0  0  0  0  0  0  0  0  0  0
   21.7045   18.4450   24.1495 H   0  0  0  0  0  0  0  0  0  0  0  0
   21.6629   19.9579   25.0446 H   0  0  0  0  0  0  0  0  0  0  0  0
   21.1096   20.1822   22.9542 C   0  0  0  0  0  0  0  0  0  0  0  0
   20.3755   20.9967   23.0261 H   0  0  0  0  0  0  0  0  0  0  0  0
   22.0877   20.6671   22.8337 H   0  0  0  0  0  0  0  0  0  0  0  0
   20.8428   19.3373   21.6839 C   0  0  0  0  0  0  0  0  0  0  0  0
   21.5842   18.5297   21.6144 H   0  0  0  0  0  0  0  0  0  0  0  0
   21.0024   19.9790   20.8066 H   0  0  0  0  0  0  0  0  0  0  0  0
   19.4191   18.7427   21.6103 C   0  0  0  0  0  0  0  0  0  0  0  0
   19.2813   17.9961   22.4028 H   0  0  0  0  0  0  0  0  0  0  0  0
   18.6758   19.5338   21.7808 H   0  0  0  0  0  0  0  0  0  0  0  0
   19.1553   18.0744   20.2459 C   0  0  0  0  0  0  0  0  0  0  0  0
   18.1435   17.6499   20.2131 H   0  0  0  0  0  0  0  0  0  0  0  0
   19.2444   18.8011   19.4279 H   0  0  0  0  0  0  0  0  0  0  0  0
   19.8701   17.2616   20.0626 H   0  0  0  0  0  0  0  0  0  0  0  0
  1  2  1  0  0  0  0
  1  3  2  0  0  0  0
  1  4  1  0  0  0  0
  4  5  1  0  0  0  0
  4  6  1  0  0  0  0
  4  7  1  0  0  0  0
  7  8  1  0  0  0  0
  7  9  1  0  0  0  0
  7 10  1  0  0  0  0
 10 11  1  0  0  0  0
 10 12  1  0  0  0  0
 10 13  1  0  0  0  0
 13 14  1  0  0  0  0
 13 15  1  0  0  0  0
 13 16  1  0  0  0  0
 16 17  1  0  0  0  0
 16 18  1  0  0  0  0
 16 19  1  0  0  0  0
M  END
> <VM2 Rank>
21

> <Conf_Id>
311

> <Probability>
0.06

> <Sum Probability>
99.82

> <Delta G>
3.877

> <G>
-22.275

> <E>
-37.624

> <-TS>
15.349

> <U+W>
-52.826

> <U>
10.967

> <W>
-63.794

> <W(PB)>
-65.830

> <W(SA)>
2.036

> <Valence>
8.609

> <Coulomb>
1.892

> <VdW>
0.467

> <VdW6>
-7.569

> <VdW12>
8.035

> <Bond>
0.170

> <Angle>
3.196

> <Pdih>
5.236

> <Idih>
0.007

> <Tether>
0.000

$$$$
VeraChem MOL file


 19 18  0  0  0  0  0  0  0  0999 V2000     
   19.6995   19.1767   24.8547 C   0  0  0  0  0  0  0  0  0  0  0  0
   19.9097   18.0760   25.3255 O   0  5  0  0  0  0  0  0  0  0  0  0
   18.6198   19.7320   24.9067 O   0  0  0  0  0  0  0  0  0  0  0  0
   20.8689   19.9327   24.2267 C   0  0  0  0  0  0  0  0  0  0  0  0
   21.5950   20.1002   25.0307 H   0  0  0  0  0  0  0  0  0  0  0  0
   20.5227   20.9226   23.9057 H   0  0  0  0  0  0  0  0  0  0  0  0
   21.5768   19.2027   23.0507 C   0  0  0  0  0  0  0  0  0  0  0  0
   22.5782   19.6388   22.9349 H   0  0  0  0  0  0  0  0  0  0  0  0
   21.7354   18.1459   23.3068 H   0  0  0  0  0  0  0  0  0  0  0  0
   20.8530   19.3157   21.6861 C   0  0  0  0  0  0  0  0  0  0  0  0
   21.5155   18.9037   20.9124 H   0  0  0  0  0  0  0  0  0  0  0  0
   20.7041   20.3742   21.4329 H   0  0  0  0  0  0  0  0  0  0  0  0
   19.5004   18.5725   21.6270 C   0  0  0  0  0  0  0  0  0  0  0  0
   19.6278   17.5387   21.9770 H   0  0  0  0  0  0  0  0  0  0  0  0
   18.7772   19.0523   22.2988 H   0  0  0  0  0  0  0  0  0  0  0  0
   18.9218   18.5639   20.1977 C   0  0  0  0  0  0  0  0  0  0  0  0
   19.6008   18.0546   19.5012 H   0  0  0  0  0  0  0  0  0  0  0  0
   17.9575   18.0399   20.1745 H   0  0  0  0  0  0  0  0  0  0  0  0
   18.7606   19.5870   19.8337 H   0  0  0  0  0  0  0  0  0  0  0  0
  1  2  1  0  0  0  0
  1  3  2  0  0  0  0
  1  4  1  0  0  0  0
  4  5  1  0  0  0  0
  4  6  1  0  0  0  0
  4  7  1  0  0  0  0
  7  8  1  0  0  0  0
  7  9  1  0  0  0  0
  7 10  1  0  0  0  0
 10 11  1  0  0  0  0
 10 12  1  0  0  0  0
 10 13  1  0  0  0  0
 13 14  1  0  0  0  0
 13 15  1  0  0  0  0
 13 16  1  0  0  0  0
 16 17  1  0  0  0  0
 16 18  1  0  0  0  0
 16 19  1  0  0  0  0
M  END
> <VM2 Rank>
22

> <Conf_Id>
147

> <Probability>
0.06

> <Sum Probability>
99.89

> <Delta G>
3.882

> <G>
-22.270

> <E>
-37.620

> <-TS>
15.349

> <U+W>
-52.822

> <U>
10.967

> <W>
-63.789

> <W(PB)>
-65.837

> <W(SA)>
2.048

> <Valence>
8.609

> <Coulomb>
1.892

> <VdW>
0.466

> <VdW6>
-7.568

> <VdW12>
8.035

> <Bond>
0.170

> <Angle>
3.196

> <Pdih>
5.237

> <Idih>
0.007

> <Tether>
0.000

$$$$
VeraChem MOL file


 19 18  0  0  0  0  0  0  0  0999 V2000     
   20.2427   19.2700   25.1812 C   0  0  0  0  0  0  0  0  0  0  0  0
   20.9861   18.3512   25.4629 O   0  5  0  0  0  0  0  0  0  0  0  0
   19.5488   19.8470   25.9949 O   0  0  0  0  0  0  0  0  0  0  0  0
   20.1614   19.7111   23.7242 C   0  0  0  0  0  0  0  0  0  0  0  0
   21.1448   19.5538   23.2704 H   0  0  0  0  0  0  0  0  0  0  0  0
   19.9714   20.7909   23.7078 H   0  0  0  0  0  0  0  0  0  0  0  0
   19.0554   18.9653   22.9316 C   0  0  0  0  0  0  0  0  0  0  0  0
   19.2109   17.8795   22.9955 H   0  0  0  0  0  0  0  0  0  0  0  0
   18.0937   19.1659   23.4238 H   0  0  0  0  0  0  0  0  0  0  0  0
   18.9548   19.4065   21.4493 C   0  0  0  0  0  0  0  0  0  0  0  0
   19.2663   20.4545   21.3418 H   0  0  0  0  0  0  0  0  0  0  0  0
   17.8965   19.3781   21.1558 H   0  0  0  0  0  0  0  0  0  0  0  0
   19.7372   18.5141   20.4546 C   0  0  0  0  0  0  0  0  0  0  0  0
   19.3569   17.4845   20.5059 H   0  0  0  0  0  0  0  0  0  0  0  0
   19.5318   18.8668   19.4345 H   0  0  0  0  0  0  0  0  0  0  0  0
   21.2638   18.5069   20.6764 C   0  0  0  0  0  0  0  0  0  0  0  0
   21.6636   19.5289   20.7010 H   0  0  0  0  0  0  0  0  0  0  0  0
   21.5243   18.0061   21.6172 H   0  0  0  0  0  0  0  0  0  0  0  0
   21.7666   17.9658   19.8645 H   0  0  0  0  0  0  0  0  0  0  0  0
  1  2  1  0  0  0  0
  1  3  2  0  0  0  0
  1  4  1  0  0  0  0
  4  5  1  0  0  0  0
  4  6  1  0  0  0  0
  4  7  1  0  0  0  0
  7  8  1  0  0  0  0
  7  9  1  0  0  0  0
  7 10  1  0  0  0  0
 10 11  1  0  0  0  0
 10 12  1  0  0  0  0
 10 13  1  0  0  0  0
 13 14  1  0  0  0  0
 13 15  1  0  0  0  0
 13 16  1  0  0  0  0
 16 17  1  0  0  0  0
 16 18  1  0  0  0  0
 16 19  1  0  0  0  0
M  END
> <VM2 Rank>
23

> <Conf_Id>
256

> <Probability>
0.05

> <Sum Probability>
99.94

> <Delta G>
3.993

> <G>
-22.159

> <E>
-37.233

> <-TS>
15.074

> <U+W>
-52.435

> <U>
10.422

> <W>
-62.856

> <W(PB)>
-64.914

> <W(SA)>
2.057

> <Valence>
9.628

> <Coulomb>
0.101

> <VdW>
0.692

> <VdW6>
-6.927

> <VdW12>
7.619

> <Bond>
0.173

> <Angle>
2.989

> <Pdih>
6.465

> <Idih>
0.000

> <Tether>
0.000

$$$$
VeraChem MOL file


 19 18  0  0  0  0  0  0  0  0999 V2000     
   20.1565   19.4509   25.1634 C   0  0  0  0  0  0  0  0  0  0  0  0
   20.1009   18.6898   26.1090 O   0  5  0  0  0  0  0  0  0  0  0  0
   19.8967   20.6355   25.2379 O   0  0  0  0  0  0  0  0  0  0  0  0
   20.5556   18.8842   23.8056 C   0  0  0  0  0  0  0  0  0  0  0  0
   21.2690   18.0691   23.9758 H   0  0  0  0  0  0  0  0  0  0  0  0
   21.0909   19.6670   23.2593 H   0  0  0  0  0  0  0  0  0  0  0  0
   19.3413   18.3656   22.9906 C   0  0  0  0  0  0  0  0  0  0  0  0
   18.8501   17.5791   23.5802 H   0  0  0  0  0  0  0  0  0  0  0  0
   18.5979   19.1656   22.8689 H   0  0  0  0  0  0  0  0  0  0  0  0
   19.7301   17.7798   21.6095 C   0  0  0  0  0  0  0  0  0  0  0  0
   19.0609   16.9349   21.3965 H   0  0  0  0  0  0  0  0  0  0  0  0
   20.7431   17.3562   21.6469 H   0  0  0  0  0  0  0  0  0  0  0  0
   19.6128   18.7750   20.4289 C   0  0  0  0  0  0  0  0  0  0  0  0
   19.8320   18.2366   19.4966 H   0  0  0  0  0  0  0  0  0  0  0  0
   18.5748   19.1253   20.3444 H   0  0  0  0  0  0  0  0  0  0  0  0
   20.5562   19.9912   20.5301 C   0  0  0  0  0  0  0  0  0  0  0  0
   20.5190   20.5833   19.6066 H   0  0  0  0  0  0  0  0  0  0  0  0
   20.2637   20.6509   21.3566 H   0  0  0  0  0  0  0  0  0  0  0  0
   21.5950   19.6728   20.6868 H   0  0  0  0  0  0  0  0  0  0  0  0
  1  2  1  0  0  0  0
  1  3  2  0  0  0  0
  1  4  1  0  0  0  0
  4  5  1  0  0  0  0
  4  6  1  0  0  0  0
  4  7  1  0  0  0  0
  7  8  1  0  0  0  0
  7  9  1  0  0  0  0
  7 10  1  0  0  0  0
 10 11  1  0  0  0  0
 10 12  1  0  0  0  0
 10 13  1  0  0  0  0
 13 14  1  0  0  0  0
 13 15  1  0  0  0  0
 13 16  1  0  0  0  0
 16 17  1  0  0  0  0
 16 18  1  0  0  0  0
 16 19  1  0  0  0  0
M  END
> <VM2 Rank>
24

> <Conf_Id>
133

> <Probability>
0.05

> <Sum Probability>
99.99

> <Delta G>
4.003

> <G>
-22.149

> <E>
-37.223

> <-TS>
15.074

> <U+W>
-52.425

> <U>
10.422

> <W>
-62.846

> <W(PB)>
-64.904

> <W(SA)>
2.058

> <Valence>
9.628

> <Coulomb>
0.102

> <VdW>
0.692

> <VdW6>
-6.927

> <VdW12>
7.619

> <Bond>
0.173

> <Angle>
2.989

> <Pdih>
6.465

> <Idih>
0.000

> <Tether>
0.000

$$$$
VeraChem MOL file


 19 18  0  0  0  0  0  0  0  0999 V2000     
   19.8147   19.3791   24.9740 C   0  0  0  0  0  0  0  0  0  0  0  0
   20.3971   18.8679   25.9103 O   0  5  0  0  0  0  0  0  0  0  0  0
   19.6335   20.5762   24.8699 O   0  0  0  0  0  0  0  0  0  0  0  0
   19.2569   18.4636   23.8874 C   0  0  0  0  0  0  0  0  0  0  0  0
   18.5155   19.0249   23.3099 H   0  0  0  0  0  0  0  0  0  0  0  0
   18.7151   17.6552   24.3921 H   0  0  0  0  0  0  0  0  0  0  0  0
   20.3423   17.8522   22.9584 C   0  0  0  0  0  0  0  0  0  0  0  0
   21.0942   17.3614   23.5919 H   0  0  0  0  0  0  0  0  0  0  0  0
   19.9005   17.0568   22.3433 H   0  0  0  0  0  0  0  0  0  0  0  0
   21.0547   18.8849   22.0466 C   0  0  0  0  0  0  0  0  0  0  0  0
   22.1022   18.5738   21.9333 H   0  0  0  0  0  0  0  0  0  0  0  0
   21.0879   19.8695   22.5327 H   0  0  0  0  0  0  0  0  0  0  0  0
   20.4522   19.0164   20.6261 C   0  0  0  0  0  0  0  0  0  0  0  0
   21.0791   19.7065   20.0448 H   0  0  0  0  0  0  0  0  0  0  0  0
   20.5042   18.0468   20.1119 H   0  0  0  0  0  0  0  0  0  0  0  0
   18.9984   19.5317   20.6024 C   0  0  0  0  0  0  0  0  0  0  0  0
   18.6785   19.7310   19.5716 H   0  0  0  0  0  0  0  0  0  0  0  0
   18.3091   18.7902   21.0247 H   0  0  0  0  0  0  0  0  0  0  0  0
   18.9021   20.4641   21.1741 H   0  0  0  0  0  0  0  0  0  0  0  0
  1  2  1  0  0  0  0
  1  3  2  0  0  0  0
  1  4  1  0  0  0  0
  4  5  1  0  0  0  0
  4  6  1  0  0  0  0
  4  7  1  0  0  0  0
  7  8  1  0  0  0  0
  7  9  1  0  0  0  0
  7 10  1  0  0  0  0
 10 11  1  0  0  0  0
 10 12  1  0  0  0  0
 10 13  1  0  0  0  0
 13 14  1  0  0  0  0
 13 15  1  0  0  0  0
 13 16  1  0  0  0  0
 16 17  1  0  0  0  0
 16 18  1  0  0  0  0
 16 19  1  0  0  0  0
M  END
> <VM2 Rank>
25

> <Conf_Id>
225

> <Probability>
0.00

> <Sum Probability>
99.99

> <Delta G>
5.601

> <G>
-20.551

> <E>
-35.982

> <-TS>
15.431

> <U+W>
-51.185

> <U>
12.334

> <W>
-63.519

> <W(PB)>
-65.541

> <W(SA)>
2.022

> <Valence>
9.984

> <Coulomb>
1.768

> <VdW>
0.583

> <VdW6>
-7.767

> <VdW12>
8.349

> <Bond>
0.203

> <Angle>
3.192

> <Pdih>
6.588

> <Idih>
0.001

> <Tether>
0.000

$$$$
VeraChem MOL file


 19 18  0  0  0  0  0  0  0  0999 V2000     
   20.0010   19.4545   24.9683 C   0  0  0  0  0  0  0  0  0  0  0  0
   19.9881   18.7023   25.9228 O   0  5  0  0  0  0  0  0  0  0  0  0
   19.2936   20.4387   24.8805 O   0  0  0  0  0  0  0  0  0  0  0  0
   20.9793   19.1605   23.8340 C   0  0  0  0  0  0  0  0  0  0  0  0
   21.9565   18.9667   24.2916 H   0  0  0  0  0  0  0  0  0  0  0  0
   21.0903   20.0668   23.2302 H   0  0  0  0  0  0  0  0  0  0  0  0
   20.5762   17.9469   22.9512 C   0  0  0  0  0  0  0  0  0  0  0  0
   21.4130   17.6688   22.2965 H   0  0  0  0  0  0  0  0  0  0  0  0
   20.4115   17.0853   23.6130 H   0  0  0  0  0  0  0  0  0  0  0  0
   19.2992   18.1748   22.1009 C   0  0  0  0  0  0  0  0  0  0  0  0
   18.6172   18.8700   22.6092 H   0  0  0  0  0  0  0  0  0  0  0  0
   18.7580   17.2209   22.0369 H   0  0  0  0  0  0  0  0  0  0  0  0
   19.5646   18.6572   20.6536 C   0  0  0  0  0  0  0  0  0  0  0  0
   20.1735   17.9129   20.1222 H   0  0  0  0  0  0  0  0  0  0  0  0
   18.6045   18.7052   20.1214 H   0  0  0  0  0  0  0  0  0  0  0  0
   20.2481   20.0371   20.5636 C   0  0  0  0  0  0  0  0  0  0  0  0
   19.6998   20.7868   21.1492 H   0  0  0  0  0  0  0  0  0  0  0  0
   21.2801   19.9921   20.9326 H   0  0  0  0  0  0  0  0  0  0  0  0
   20.2843   20.3804   19.5217 H   0  0  0  0  0  0  0  0  0  0  0  0
  1  2  1  0  0  0  0
  1  3  2  0  0  0  0
  1  4  1  0  0  0  0
  4  5  1  0  0  0  0
  4  6  1  0  0  0  0
  4  7  1  0  0  0  0
  7  8  1  0  0  0  0
  7  9  1  0  0  0  0
  7 10  1  0  0  0  0
 10 11  1  0  0  0  0
 10 12  1  0  0  0  0
 10 13  1  0  0  0  0
 13 14  1  0  0  0  0
 13 15  1  0  0  0  0
 13 16  1  0  0  0  0
 16 17  1  0  0  0  0
 16 18  1  0  0  0  0
 16 19  1  0  0  0  0
M  END
> <VM2 Rank>
26

> <Conf_Id>
216

> <Probability>
0.00

> <Sum Probability>
99.99

> <Delta G>
5.624

> <G>
-20.528

> <E>
-35.960

> <-TS>
15.431

> <U+W>
-51.162

> <U>
12.335

> <W>
-63.496

> <W(PB)>
-65.523

> <W(SA)>
2.027

> <Valence>
9.984

> <Coulomb>
1.768

> <VdW>
0.582

> <VdW6>
-7.767

> <VdW12>
8.349

> <Bond>
0.203

> <Angle>
3.192

> <Pdih>
6.589

> <Idih>
0.001

> <Tether>
0.000

$$$$
VeraChem MOL file


 19 18  0  0  0  0  0  0  0  0999 V2000     
   19.7443   19.0154   24.7146 C   0  0  0  0  0  0  0  0  0  0  0  0
   19.8979   17.8632   25.0697 O   0  5  0  0  0  0  0  0  0  0  0  0
   18.7005   19.6239   24.8479 O   0  0  0  0  0  0  0  0  0  0  0  0
   20.9581   19.7726   24.1795 C   0  0  0  0  0  0  0  0  0  0  0  0
   21.8425   19.1285   24.2543 H   0  0  0  0  0  0  0  0  0  0  0  0
   21.1236   20.6123   24.8645 H   0  0  0  0  0  0  0  0  0  0  0  0
   20.8120   20.3235   22.7331 C   0  0  0  0  0  0  0  0  0  0  0  0
   19.8208   20.7772   22.6006 H   0  0  0  0  0  0  0  0  0  0  0  0
   21.5314   21.1446   22.6127 H   0  0  0  0  0  0  0  0  0  0  0  0
   21.0959   19.2887   21.6132 C   0  0  0  0  0  0  0  0  0  0  0  0
   22.1059   18.8803   21.7533 H   0  0  0  0  0  0  0  0  0  0  0  0
   21.1160   19.8152   20.6492 H   0  0  0  0  0  0  0  0  0  0  0  0
   20.0928   18.1149   21.5093 C   0  0  0  0  0  0  0  0  0  0  0  0
   20.4244   17.4437   20.7054 H   0  0  0  0  0  0  0  0  0  0  0  0
   20.1110   17.5157   22.4284 H   0  0  0  0  0  0  0  0  0  0  0  0
   18.6486   18.5697   21.2078 C   0  0  0  0  0  0  0  0  0  0  0  0
   17.9977   17.7002   21.0502 H   0  0  0  0  0  0  0  0  0  0  0  0
   18.2313   19.1489   22.0414 H   0  0  0  0  0  0  0  0  0  0  0  0
   18.6116   19.1900   20.3030 H   0  0  0  0  0  0  0  0  0  0  0  0
  1  2  1  0  0  0  0
  1  3  2  0  0  0  0
  1  4  1  0  0  0  0
  4  5  1  0  0  0  0
  4  6  1  0  0  0  0
  4  7  1  0  0  0  0
  7  8  1  0  0  0  0
  7  9  1  0  0  0  0
  7 10  1  0  0  0  0
 10 11  1  0  0  0  0
 10 12  1  0  0  0  0
 10 13  1  0  0  0  0
 13 14  1  0  0  0  0
 13 15  1  0  0  0  0
 13 16  1  0  0  0  0
 16 17  1  0  0  0  0
 16 18  1  0  0  0  0
 16 19  1  0  0  0  0
M  END
> <VM2 Rank>
27

> <Conf_Id>
157

> <Probability>
0.00

> <Sum Probability>
100.00

> <Delta G>
5.643

> <G>
-20.508

> <E>
-36.490

> <-TS>
15.981

> <U+W>
-51.692

> <U>
12.631

> <W>
-64.323

> <W(PB)>
-66.284

> <W(SA)>
1.961

> <Valence>
9.240

> <Coulomb>
3.216

> <VdW>
0.176

> <VdW6>
-8.727

> <VdW12>
8.902

> <Bond>
0.204

> <Angle>
3.670

> <Pdih>
5.348

> <Idih>
0.019

> <Tether>
0.000

$$$$
VeraChem MOL file


 19 18  0  0  0  0  0  0  0  0999 V2000     
   20.2643   19.3259   24.6898 C   0  0  0  0  0  0  0  0  0  0  0  0
   21.2292   18.6580   25.0064 O   0  5  0  0  0  0  0  0  0  0  0  0
   20.2314   20.5379   24.7754 O   0  0  0  0  0  0  0  0  0  0  0  0
   18.9885   18.5967   24.2729 C   0  0  0  0  0  0  0  0  0  0  0  0
   18.2204   18.8789   25.0023 H   0  0  0  0  0  0  0  0  0  0  0  0
   19.1424   17.5164   24.3824 H   0  0  0  0  0  0  0  0  0  0  0  0
   18.4721   18.9266   22.8442 C   0  0  0  0  0  0  0  0  0  0  0  0
   17.4026   18.6796   22.8088 H   0  0  0  0  0  0  0  0  0  0  0  0
   18.5321   20.0078   22.6618 H   0  0  0  0  0  0  0  0  0  0  0  0
   19.1693   18.1385   21.7046 C   0  0  0  0  0  0  0  0  0  0  0  0
   18.6298   18.3310   20.7672 H   0  0  0  0  0  0  0  0  0  0  0  0
   19.0612   17.0626   21.8977 H   0  0  0  0  0  0  0  0  0  0  0  0
   20.6670   18.4578   21.4820 C   0  0  0  0  0  0  0  0  0  0  0  0
   21.2493   18.1951   22.3743 H   0  0  0  0  0  0  0  0  0  0  0  0
   21.0442   17.8138   20.6758 H   0  0  0  0  0  0  0  0  0  0  0  0
   20.9281   19.9306   21.0997 C   0  0  0  0  0  0  0  0  0  0  0  0
   21.9885   20.0827   20.8609 H   0  0  0  0  0  0  0  0  0  0  0  0
   20.3372   20.2203   20.2213 H   0  0  0  0  0  0  0  0  0  0  0  0
   20.6743   20.6073   21.9256 H   0  0  0  0  0  0  0  0  0  0  0  0
  1  2  1  0  0  0  0
  1  3  2  0  0  0  0
  1  4  1  0  0  0  0
  4  5  1  0  0  0  0
  4  6  1  0  0  0  0
  4  7  1  0  0  0  0
  7  8  1  0  0  0  0
  7  9  1  0  0  0  0
  7 10  1  0  0  0  0
 10 11  1  0  0  0  0
 10 12  1  0  0  0  0
 10 13  1  0  0  0  0
 13 14  1  0  0  0  0
 13 15  1  0  0  0  0
 13 16  1  0  0  0  0
 16 17  1  0  0  0  0
 16 18  1  0  0  0  0
 16 19  1  0  0  0  0
M  END
> <VM2 Rank>
28

> <Conf_Id>
112

> <Probability>
0.00

> <Sum Probability>
100.00

> <Delta G>
5.658

> <G>
-20.494

> <E>
-36.476

> <-TS>
15.982

> <U+W>
-51.678

> <U>
12.630

> <W>
-64.308

> <W(PB)>
-66.285

> <W(SA)>
1.977

> <Valence>
9.239

> <Coulomb>
3.215

> <VdW>
0.176

> <VdW6>
-8.727

> <VdW12>
8.903

> <Bond>
0.204

> <Angle>
3.670

> <Pdih>
5.348

> <Idih>
0.018

> <Tether>
0.000

$$$$
VeraChem MOL file


 19 18  0  0  0  0  0  0  0  0999 V2000     
   19.9750   19.5028   24.7725 C   0  0  0  0  0  0  0  0  0  0  0  0
   20.6946   18.9627   25.5899 O   0  5  0  0  0  0  0  0  0  0  0  0
   19.9393   20.7057   24.6051 O   0  0  0  0  0  0  0  0  0  0  0  0
   19.0216   18.6288   23.9598 C   0  0  0  0  0  0  0  0  0  0  0  0
   18.3970   19.2693   23.3279 H   0  0  0  0  0  0  0  0  0  0  0  0
   18.3443   18.1465   24.6740 H   0  0  0  0  0  0  0  0  0  0  0  0
   19.7206   17.5368   23.1058 C   0  0  0  0  0  0  0  0  0  0  0  0
   20.2979   16.8867   23.7777 H   0  0  0  0  0  0  0  0  0  0  0  0
   18.9563   16.8954   22.6470 H   0  0  0  0  0  0  0  0  0  0  0  0
   20.6674   18.0702   22.0005 C   0  0  0  0  0  0  0  0  0  0  0  0
   21.1907   17.2045   21.5720 H   0  0  0  0  0  0  0  0  0  0  0  0
   21.4510   18.7026   22.4401 H   0  0  0  0  0  0  0  0  0  0  0  0
   19.9537   18.8143   20.8441 C   0  0  0  0  0  0  0  0  0  0  0  0
   20.4579   18.5609   19.9013 H   0  0  0  0  0  0  0  0  0  0  0  0
   18.9191   18.4595   20.7413 H   0  0  0  0  0  0  0  0  0  0  0  0
   19.9779   20.3506   20.9973 C   0  0  0  0  0  0  0  0  0  0  0  0
   19.4886   20.8303   20.1400 H   0  0  0  0  0  0  0  0  0  0  0  0
   19.4581   20.6777   21.9048 H   0  0  0  0  0  0  0  0  0  0  0  0
   21.0096   20.7222   21.0474 H   0  0  0  0  0  0  0  0  0  0  0  0
  1  2  1  0  0  0  0
  1  3  2  0  0  0  0
  1  4  1  0  0  0  0
  4  5  1  0  0  0  0
  4  6  1  0  0  0  0
  4  7  1  0  0  0  0
  7  8  1  0  0  0  0
  7  9  1  0  0  0  0
  7 10  1  0  0  0  0
 10 11  1  0  0  0  0
 10 12  1  0  0  0  0
 10 13  1  0  0  0  0
 13 14  1  0  0  0  0
 13 15  1  0  0  0  0
 13 16  1  0  0  0  0
 16 17  1  0  0  0  0
 16 18  1  0  0  0  0
 16 19  1  0  0  0  0
M  END
> <VM2 Rank>
29

> <Conf_Id>
302

> <Probability>
0.00

> <Sum Probability>
100.00

> <Delta G>
6.274

> <G>
-19.878

> <E>
-35.304

> <-TS>
15.426

> <U+W>
-50.506

> <U>
13.498

> <W>
-64.004

> <W(PB)>
-65.991

> <W(SA)>
1.987

> <Valence>
10.296

> <Coulomb>
2.919

> <VdW>
0.283

> <VdW6>
-8.220

> <VdW12>
8.503

> <Bond>
0.193

> <Angle>
3.407

> <Pdih>
6.691

> <Idih>
0.005

> <Tether>
0.000

$$$$
VeraChem MOL file


 19 18  0  0  0  0  0  0  0  0999 V2000     
   20.1050   19.5334   24.6357 C   0  0  0  0  0  0  0  0  0  0  0  0
   21.0797   18.9614   25.0839 O   0  5  0  0  0  0  0  0  0  0  0  0
   19.9598   20.7389   24.6858 O   0  0  0  0  0  0  0  0  0  0  0  0
   18.9453   18.6950   24.0957 C   0  0  0  0  0  0  0  0  0  0  0  0
   18.2265   19.3574   23.5986 H   0  0  0  0  0  0  0  0  0  0  0  0
   18.4348   18.2835   24.9740 H   0  0  0  0  0  0  0  0  0  0  0  0
   19.3401   17.5246   23.1504 C   0  0  0  0  0  0  0  0  0  0  0  0
   20.2398   17.0215   23.5310 H   0  0  0  0  0  0  0  0  0  0  0  0
   18.5399   16.7734   23.1916 H   0  0  0  0  0  0  0  0  0  0  0  0
   19.5406   17.9102   21.6624 C   0  0  0  0  0  0  0  0  0  0  0  0
   18.6079   18.3215   21.2524 H   0  0  0  0  0  0  0  0  0  0  0  0
   19.7252   16.9825   21.1037 H   0  0  0  0  0  0  0  0  0  0  0  0
   20.7195   18.8755   21.3898 C   0  0  0  0  0  0  0  0  0  0  0  0
   21.4541   18.8247   22.2053 H   0  0  0  0  0  0  0  0  0  0  0  0
   21.2469   18.5443   20.4846 H   0  0  0  0  0  0  0  0  0  0  0  0
   20.2600   20.3330   21.1713 C   0  0  0  0  0  0  0  0  0  0  0  0
   19.6028   20.4090   20.2953 H   0  0  0  0  0  0  0  0  0  0  0  0
   19.7119   20.7161   22.0399 H   0  0  0  0  0  0  0  0  0  0  0  0
   21.1243   20.9882   21.0031 H   0  0  0  0  0  0  0  0  0  0  0  0
  1  2  1  0  0  0  0
  1  3  2  0  0  0  0
  1  4  1  0  0  0  0
  4  5  1  0  0  0  0
  4  6  1  0  0  0  0
  4  7  1  0  0  0  0
  7  8  1  0  0  0  0
  7  9  1  0  0  0  0
  7 10  1  0  0  0  0
 10 11  1  0  0  0  0
 10 12  1  0  0  0  0
 10 13  1  0  0  0  0
 13 14  1  0  0  0  0
 13 15  1  0  0  0  0
 13 16  1  0  0  0  0
 16 17  1  0  0  0  0
 16 18  1  0  0  0  0
 16 19  1  0  0  0  0
M  END
> <VM2 Rank>
30

> <Conf_Id>
152

> <Probability>
0.00

> <Sum Probability>
100.00

> <Delta G>
8.073

> <G>
-18.079

> <E>
-33.870

> <-TS>
15.791

> <U+W>
-49.072

> <U>
15.324

> <W>
-64.396

> <W(PB)>
-66.382

> <W(SA)>
1.986

> <Valence>
11.748

> <Coulomb>
3.201

> <VdW>
0.375

> <VdW6>
-8.854

> <VdW12>
9.229

> <Bond>
0.216

> <Angle>
3.812

> <Pdih>
7.698

> <Idih>
0.022

> <Tether>
0.000

$$$$
