@<TRIPOS>MOLECULE
guest-s10_confgen4.mol2 : confsearch ligand conformer 1
          20          19           1
SMALL
USER_CHARGES
 
@<TRIPOS>ATOM
       1    N1      20.391162   20.173139   24.127993 N.4        1 MOL1        -0.5937
       2    H1      21.389538   20.106941   23.914896 H          1 MOL1         0.3684
       3    H2      20.306346   20.444658   25.111222 H          1 MOL1         0.3684
       4    H3      20.007045   20.937965   23.567568 H          1 MOL1         0.3684
       5    C1      19.681093   18.875229   23.851781 C.3        1 MOL1         0.1270
       6    H4      18.627112   19.033845   24.100481 H          1 MOL1         0.0960
       7    C2      20.226101   17.758228   24.756902 C.3        1 MOL1        -0.2382
       8    H5      20.131783   18.034283   25.814334 H          1 MOL1         0.1009
       9    H6      21.284795   17.559090   24.548807 H          1 MOL1         0.1009
      10    H7      19.667278   16.826253   24.605980 H          1 MOL1         0.1009
      11    C3      19.768897   18.454730   22.367995 C.3        1 MOL1        -0.1392
      12    H8      20.820473   18.311798   22.085729 H          1 MOL1         0.0998
      13    H9      19.277222   17.480291   22.246370 H          1 MOL1         0.0998
      14    C4      19.103682   19.471989   21.409772 C.3        1 MOL1        -0.1302
      15    H10     19.614905   20.442190   21.471316 H          1 MOL1         0.0998
      16    H11     18.061402   19.641394   21.715054 H          1 MOL1         0.0998
      17    C5      19.134065   18.980685   19.946557 C.3        1 MOL1        -0.2317
      18    H12     20.165473   18.830933   19.601553 H          1 MOL1         0.1009
      19    H13     18.659949   19.714066   19.281387 H          1 MOL1         0.1009
      20    H14     18.595687   18.030219   19.837028 H          1 MOL1         0.1009
@<TRIPOS>BOND
    1     1     2    1
    2     1     3    1
    3     1     4    1
    4     1     5    1
    5     5     6    1
    6     5     7    1
    7     7     8    1
    8     7     9    1
    9     7    10    1
   10     5    11    1
   11    11    12    1
   12    11    13    1
   13    11    14    1
   14    14    15    1
   15    14    16    1
   16    14    17    1
   17    17    18    1
   18    17    19    1
   19    17    20    1
@<TRIPOS>SUBSTRUCTURE
       1 MOL1            1 RESIDUE      1      MOL     
@<SCITEGIC>MOL_PROPERTY
VConf Rank
SciTegic.value.IntegerValue
1

@<SCITEGIC>MOL_PROPERTY
Conf_Id
SciTegic.value.IntegerValue
74

@<SCITEGIC>MOL_PROPERTY
Delta U+W
SciTegic.value.DoubleValue
0.000

@<SCITEGIC>MOL_PROPERTY
U+W
SciTegic.value.DoubleValue
-36.276

@<SCITEGIC>MOL_PROPERTY
Grad RMS
SciTegic.value.DoubleValue
0.000000

@<SCITEGIC>MOL_PROPERTY
U
SciTegic.value.DoubleValue
22.080

@<SCITEGIC>MOL_PROPERTY
W
SciTegic.value.DoubleValue
-58.356

@<SCITEGIC>MOL_PROPERTY
W(PB)
SciTegic.value.DoubleValue
-60.289

@<SCITEGIC>MOL_PROPERTY
W(SA)
SciTegic.value.DoubleValue
1.932

@<SCITEGIC>MOL_PROPERTY
Valence
SciTegic.value.DoubleValue
1.885

@<SCITEGIC>MOL_PROPERTY
Coulomb
SciTegic.value.DoubleValue
19.559

@<SCITEGIC>MOL_PROPERTY
VdW
SciTegic.value.DoubleValue
0.637

@<SCITEGIC>MOL_PROPERTY
VdW6
SciTegic.value.DoubleValue
-4.482

@<SCITEGIC>MOL_PROPERTY
VdW12
SciTegic.value.DoubleValue
5.119

@<SCITEGIC>MOL_PROPERTY
Bond
SciTegic.value.DoubleValue
0.136

@<SCITEGIC>MOL_PROPERTY
Angle
SciTegic.value.DoubleValue
0.867

@<SCITEGIC>MOL_PROPERTY
Pdih
SciTegic.value.DoubleValue
0.882

@<SCITEGIC>MOL_PROPERTY
Idih
SciTegic.value.DoubleValue
0.000

@<SCITEGIC>MOL_PROPERTY
Tether
SciTegic.value.DoubleValue
0.000

@<TRIPOS>MOLECULE
guest-s10_confgen4.mol2 : confsearch ligand conformer 2
          20          19           1
SMALL
USER_CHARGES
 
@<TRIPOS>ATOM
       1    N1      20.672929   20.059384   24.612508 N.4        1 MOL1        -0.5937
       2    H1      20.558416   21.041686   24.348259 H          1 MOL1         0.3684
       3    H2      21.653610   19.812691   24.457154 H          1 MOL1         0.3684
       4    H3      20.498961   19.995132   25.619129 H          1 MOL1         0.3684
       5    C1      19.747817   19.163426   23.835403 C.3        1 MOL1         0.1270
       6    H4      18.731033   19.497471   24.064381 H          1 MOL1         0.0960
       7    C2      19.897664   17.704828   24.305334 C.3        1 MOL1        -0.2382
       8    H5      19.783470   17.636061   25.394119 H          1 MOL1         0.1009
       9    H6      20.883073   17.301553   24.040914 H          1 MOL1         0.1009
      10    H7      19.131417   17.060757   23.858947 H          1 MOL1         0.1009
      11    C3      19.973964   19.311548   22.312772 C.3        1 MOL1        -0.1392
      12    H8      19.961422   20.380506   22.062103 H          1 MOL1         0.0998
      13    H9      20.974327   18.942733   22.049907 H          1 MOL1         0.0998
      14    C4      18.909117   18.591966   21.449370 C.3        1 MOL1        -0.1302
      15    H10     17.903959   18.914351   21.755630 H          1 MOL1         0.0998
      16    H11     18.958329   17.506691   21.609550 H          1 MOL1         0.0998
      17    C5      19.103509   18.882847   19.945614 C.3        1 MOL1        -0.2317
      18    H12     19.018079   19.957067   19.735869 H          1 MOL1         0.1009
      19    H13     18.343268   18.362519   19.348638 H          1 MOL1         0.1009
      20    H14     20.090094   18.545020   19.602419 H          1 MOL1         0.1009
@<TRIPOS>BOND
    1     1     2    1
    2     1     3    1
    3     1     4    1
    4     1     5    1
    5     5     6    1
    6     5     7    1
    7     7     8    1
    8     7     9    1
    9     7    10    1
   10     5    11    1
   11    11    12    1
   12    11    13    1
   13    11    14    1
   14    14    15    1
   15    14    16    1
   16    14    17    1
   17    17    18    1
   18    17    19    1
   19    17    20    1
@<TRIPOS>SUBSTRUCTURE
       1 MOL1            1 RESIDUE      1      MOL     
@<SCITEGIC>MOL_PROPERTY
VConf Rank
SciTegic.value.IntegerValue
2

@<SCITEGIC>MOL_PROPERTY
Conf_Id
SciTegic.value.IntegerValue
80

@<SCITEGIC>MOL_PROPERTY
Delta U+W
SciTegic.value.DoubleValue
0.460

@<SCITEGIC>MOL_PROPERTY
U+W
SciTegic.value.DoubleValue
-35.817

@<SCITEGIC>MOL_PROPERTY
Grad RMS
SciTegic.value.DoubleValue
0.000000

@<SCITEGIC>MOL_PROPERTY
U
SciTegic.value.DoubleValue
22.495

@<SCITEGIC>MOL_PROPERTY
W
SciTegic.value.DoubleValue
-58.311

@<SCITEGIC>MOL_PROPERTY
W(PB)
SciTegic.value.DoubleValue
-60.259

@<SCITEGIC>MOL_PROPERTY
W(SA)
SciTegic.value.DoubleValue
1.948

@<SCITEGIC>MOL_PROPERTY
Valence
SciTegic.value.DoubleValue
2.419

@<SCITEGIC>MOL_PROPERTY
Coulomb
SciTegic.value.DoubleValue
19.304

@<SCITEGIC>MOL_PROPERTY
VdW
SciTegic.value.DoubleValue
0.772

@<SCITEGIC>MOL_PROPERTY
VdW6
SciTegic.value.DoubleValue
-4.635

@<SCITEGIC>MOL_PROPERTY
VdW12
SciTegic.value.DoubleValue
5.407

@<SCITEGIC>MOL_PROPERTY
Bond
SciTegic.value.DoubleValue
0.149

@<SCITEGIC>MOL_PROPERTY
Angle
SciTegic.value.DoubleValue
1.142

@<SCITEGIC>MOL_PROPERTY
Pdih
SciTegic.value.DoubleValue
1.129

@<SCITEGIC>MOL_PROPERTY
Idih
SciTegic.value.DoubleValue
0.000

@<SCITEGIC>MOL_PROPERTY
Tether
SciTegic.value.DoubleValue
0.000

@<TRIPOS>MOLECULE
guest-s10_confgen4.mol2 : confsearch ligand conformer 3
          20          19           1
SMALL
USER_CHARGES
 
@<TRIPOS>ATOM
       1    N1      20.649543   19.840436   24.741259 N.4        1 MOL1        -0.5937
       2    H1      20.466817   20.846605   24.786498 H          1 MOL1         0.3684
       3    H2      21.628100   19.718594   24.468733 H          1 MOL1         0.3684
       4    H3      20.550281   19.472255   25.691103 H          1 MOL1         0.3684
       5    C1      19.719220   19.148950   23.782565 C.3        1 MOL1         0.1270
       6    H4      18.706172   19.328134   24.155964 H          1 MOL1         0.0960
       7    C2      19.972203   17.631692   23.796184 C.3        1 MOL1        -0.2382
       8    H5      19.976408   17.248759   24.824040 H          1 MOL1         0.1009
       9    H6      20.937111   17.384687   23.336408 H          1 MOL1         0.1009
      10    H7      19.181527   17.097038   23.257681 H          1 MOL1         0.1009
      11    C3      19.824247   19.763662   22.365373 C.3        1 MOL1        -0.1392
      12    H8      19.666368   20.845865   22.463360 H          1 MOL1         0.0998
      13    H9      20.843697   19.645144   21.974982 H          1 MOL1         0.0998
      14    C4      18.790953   19.226934   21.339766 C.3        1 MOL1        -0.1302
      15    H10     18.477424   20.057142   20.691250 H          1 MOL1         0.0998
      16    H11     17.881349   18.888063   21.855279 H          1 MOL1         0.0998
      17    C5      19.348835   18.102326   20.435854 C.3        1 MOL1        -0.2317
      18    H12     20.213562   18.455685   19.859225 H          1 MOL1         0.1009
      19    H13     18.585529   17.770898   19.719961 H          1 MOL1         0.1009
      20    H14     19.664490   17.226188   21.013164 H          1 MOL1         0.1009
@<TRIPOS>BOND
    1     1     2    1
    2     1     3    1
    3     1     4    1
    4     1     5    1
    5     5     6    1
    6     5     7    1
    7     7     8    1
    8     7     9    1
    9     7    10    1
   10     5    11    1
   11    11    12    1
   12    11    13    1
   13    11    14    1
   14    14    15    1
   15    14    16    1
   16    14    17    1
   17    17    18    1
   18    17    19    1
   19    17    20    1
@<TRIPOS>SUBSTRUCTURE
       1 MOL1            1 RESIDUE      1      MOL     
@<SCITEGIC>MOL_PROPERTY
VConf Rank
SciTegic.value.IntegerValue
3

@<SCITEGIC>MOL_PROPERTY
Conf_Id
SciTegic.value.IntegerValue
52

@<SCITEGIC>MOL_PROPERTY
Delta U+W
SciTegic.value.DoubleValue
2.995

@<SCITEGIC>MOL_PROPERTY
U+W
SciTegic.value.DoubleValue
-33.282

@<SCITEGIC>MOL_PROPERTY
Grad RMS
SciTegic.value.DoubleValue
0.000000

@<SCITEGIC>MOL_PROPERTY
U
SciTegic.value.DoubleValue
25.224

@<SCITEGIC>MOL_PROPERTY
W
SciTegic.value.DoubleValue
-58.506

@<SCITEGIC>MOL_PROPERTY
W(PB)
SciTegic.value.DoubleValue
-60.411

@<SCITEGIC>MOL_PROPERTY
W(SA)
SciTegic.value.DoubleValue
1.905

@<SCITEGIC>MOL_PROPERTY
Valence
SciTegic.value.DoubleValue
4.945

@<SCITEGIC>MOL_PROPERTY
Coulomb
SciTegic.value.DoubleValue
19.467

@<SCITEGIC>MOL_PROPERTY
VdW
SciTegic.value.DoubleValue
0.813

@<SCITEGIC>MOL_PROPERTY
VdW6
SciTegic.value.DoubleValue
-5.458

@<SCITEGIC>MOL_PROPERTY
VdW12
SciTegic.value.DoubleValue
6.270

@<SCITEGIC>MOL_PROPERTY
Bond
SciTegic.value.DoubleValue
0.200

@<SCITEGIC>MOL_PROPERTY
Angle
SciTegic.value.DoubleValue
1.675

@<SCITEGIC>MOL_PROPERTY
Pdih
SciTegic.value.DoubleValue
3.070

@<SCITEGIC>MOL_PROPERTY
Idih
SciTegic.value.DoubleValue
0.000

@<SCITEGIC>MOL_PROPERTY
Tether
SciTegic.value.DoubleValue
0.000

@<TRIPOS>MOLECULE
guest-s10_confgen4.mol2 : confsearch ligand conformer 4
          20          19           1
SMALL
USER_CHARGES
 
@<TRIPOS>ATOM
       1    N1      20.441469   20.173924   23.645026 N.4        1 MOL1        -0.5937
       2    H1      21.446827   20.003531   23.563793 H          1 MOL1         0.3684
       3    H2      20.292498   20.728269   24.492468 H          1 MOL1         0.3684
       4    H3      20.163189   20.748778   22.846849 H          1 MOL1         0.3684
       5    C1      19.668054   18.884172   23.685265 C.3        1 MOL1         0.1270
       6    H4      18.613819   19.144725   23.821047 H          1 MOL1         0.0960
       7    C2      20.115554   18.045265   24.894289 C.3        1 MOL1        -0.2382
       8    H5      21.166011   17.742562   24.800644 H          1 MOL1         0.1009
       9    H6      19.505507   17.138276   24.988415 H          1 MOL1         0.1009
      10    H7      20.005643   18.615259   25.825075 H          1 MOL1         0.1009
      11    C3      19.801730   18.063674   22.380218 C.3        1 MOL1        -0.1392
      12    H8      20.856571   18.005086   22.081133 H          1 MOL1         0.0998
      13    H9      19.489998   17.030344   22.583037 H          1 MOL1         0.0998
      14    C4      18.938866   18.577441   21.197798 C.3        1 MOL1        -0.1302
      15    H10     17.879345   18.588203   21.489917 H          1 MOL1         0.0998
      16    H11     19.018320   17.852130   20.375826 H          1 MOL1         0.0998
      17    C5      19.339327   19.969523   20.658403 C.3        1 MOL1        -0.2317
      18    H12     18.824912   20.170412   19.709558 H          1 MOL1         0.1009
      19    H13     20.419178   20.029465   20.469606 H          1 MOL1         0.1009
      20    H14     19.053574   20.769229   21.351408 H          1 MOL1         0.1009
@<TRIPOS>BOND
    1     1     2    1
    2     1     3    1
    3     1     4    1
    4     1     5    1
    5     5     6    1
    6     5     7    1
    7     7     8    1
    8     7     9    1
    9     7    10    1
   10     5    11    1
   11    11    12    1
   12    11    13    1
   13    11    14    1
   14    14    15    1
   15    14    16    1
   16    14    17    1
   17    17    18    1
   18    17    19    1
   19    17    20    1
@<TRIPOS>SUBSTRUCTURE
       1 MOL1            1 RESIDUE      1      MOL     
@<SCITEGIC>MOL_PROPERTY
VConf Rank
SciTegic.value.IntegerValue
4

@<SCITEGIC>MOL_PROPERTY
Conf_Id
SciTegic.value.IntegerValue
54

@<SCITEGIC>MOL_PROPERTY
Delta U+W
SciTegic.value.DoubleValue
2.752

@<SCITEGIC>MOL_PROPERTY
U+W
SciTegic.value.DoubleValue
-33.525

@<SCITEGIC>MOL_PROPERTY
Grad RMS
SciTegic.value.DoubleValue
0.000000

@<SCITEGIC>MOL_PROPERTY
U
SciTegic.value.DoubleValue
24.337

@<SCITEGIC>MOL_PROPERTY
W
SciTegic.value.DoubleValue
-57.862

@<SCITEGIC>MOL_PROPERTY
W(PB)
SciTegic.value.DoubleValue
-59.764

@<SCITEGIC>MOL_PROPERTY
W(SA)
SciTegic.value.DoubleValue
1.901

@<SCITEGIC>MOL_PROPERTY
Valence
SciTegic.value.DoubleValue
3.593

@<SCITEGIC>MOL_PROPERTY
Coulomb
SciTegic.value.DoubleValue
20.067

@<SCITEGIC>MOL_PROPERTY
VdW
SciTegic.value.DoubleValue
0.677

@<SCITEGIC>MOL_PROPERTY
VdW6
SciTegic.value.DoubleValue
-5.466

@<SCITEGIC>MOL_PROPERTY
VdW12
SciTegic.value.DoubleValue
6.144

@<SCITEGIC>MOL_PROPERTY
Bond
SciTegic.value.DoubleValue
0.191

@<SCITEGIC>MOL_PROPERTY
Angle
SciTegic.value.DoubleValue
1.557

@<SCITEGIC>MOL_PROPERTY
Pdih
SciTegic.value.DoubleValue
1.845

@<SCITEGIC>MOL_PROPERTY
Idih
SciTegic.value.DoubleValue
0.000

@<SCITEGIC>MOL_PROPERTY
Tether
SciTegic.value.DoubleValue
0.000

@<TRIPOS>MOLECULE
guest-s10_confgen4.mol2 : confsearch ligand conformer 5
          20          19           1
SMALL
USER_CHARGES
 
@<TRIPOS>ATOM
       1    N1      20.298441   20.232599   24.227339 N.4        1 MOL1        -0.5937
       2    H1      20.686522   20.277674   25.173391 H          1 MOL1         0.3684
       3    H2      19.666941   21.030946   24.119810 H          1 MOL1         0.3684
       4    H3      21.073194   20.363226   23.573014 H          1 MOL1         0.3684
       5    C1      19.587852   18.928638   23.985191 C.3        1 MOL1         0.1270
       6    H4      18.794664   18.872011   24.737299 H          1 MOL1         0.0960
       7    C2      20.530726   17.734063   24.215021 C.3        1 MOL1        -0.2382
       8    H5      20.009515   16.785543   24.035795 H          1 MOL1         0.1009
       9    H6      20.891338   17.723947   25.250850 H          1 MOL1         0.1009
      10    H7      21.406375   17.775127   23.556542 H          1 MOL1         0.1009
      11    C3      18.906764   18.873558   22.596617 C.3        1 MOL1        -0.1392
      12    H8      18.334559   17.939423   22.521050 H          1 MOL1         0.0998
      13    H9      18.168407   19.684126   22.539913 H          1 MOL1         0.0998
      14    C4      19.873200   18.980702   21.388782 C.3        1 MOL1        -0.1302
      15    H10     20.588465   18.147455   21.399188 H          1 MOL1         0.0998
      16    H11     20.460747   19.906278   21.454041 H          1 MOL1         0.0998
      17    C5      19.108017   18.964441   20.048051 C.3        1 MOL1        -0.2317
      18    H12     19.804761   19.038722   19.203009 H          1 MOL1         0.1009
      19    H13     18.408203   19.807708   19.981853 H          1 MOL1         0.1009
      20    H14     18.535384   18.035118   19.931115 H          1 MOL1         0.1009
@<TRIPOS>BOND
    1     1     2    1
    2     1     3    1
    3     1     4    1
    4     1     5    1
    5     5     6    1
    6     5     7    1
    7     7     8    1
    8     7     9    1
    9     7    10    1
   10     5    11    1
   11    11    12    1
   12    11    13    1
   13    11    14    1
   14    14    15    1
   15    14    16    1
   16    14    17    1
   17    17    18    1
   18    17    19    1
   19    17    20    1
@<TRIPOS>SUBSTRUCTURE
       1 MOL1            1 RESIDUE      1      MOL     
@<SCITEGIC>MOL_PROPERTY
VConf Rank
SciTegic.value.IntegerValue
5

@<SCITEGIC>MOL_PROPERTY
Conf_Id
SciTegic.value.IntegerValue
63

@<SCITEGIC>MOL_PROPERTY
Delta U+W
SciTegic.value.DoubleValue
0.420

@<SCITEGIC>MOL_PROPERTY
U+W
SciTegic.value.DoubleValue
-35.856

@<SCITEGIC>MOL_PROPERTY
Grad RMS
SciTegic.value.DoubleValue
0.000000

@<SCITEGIC>MOL_PROPERTY
U
SciTegic.value.DoubleValue
22.625

@<SCITEGIC>MOL_PROPERTY
W
SciTegic.value.DoubleValue
-58.481

@<SCITEGIC>MOL_PROPERTY
W(PB)
SciTegic.value.DoubleValue
-60.400

@<SCITEGIC>MOL_PROPERTY
W(SA)
SciTegic.value.DoubleValue
1.919

@<SCITEGIC>MOL_PROPERTY
Valence
SciTegic.value.DoubleValue
2.404

@<SCITEGIC>MOL_PROPERTY
Coulomb
SciTegic.value.DoubleValue
19.464

@<SCITEGIC>MOL_PROPERTY
VdW
SciTegic.value.DoubleValue
0.757

@<SCITEGIC>MOL_PROPERTY
VdW6
SciTegic.value.DoubleValue
-5.074

@<SCITEGIC>MOL_PROPERTY
VdW12
SciTegic.value.DoubleValue
5.830

@<SCITEGIC>MOL_PROPERTY
Bond
SciTegic.value.DoubleValue
0.172

@<SCITEGIC>MOL_PROPERTY
Angle
SciTegic.value.DoubleValue
1.207

@<SCITEGIC>MOL_PROPERTY
Pdih
SciTegic.value.DoubleValue
1.025

@<SCITEGIC>MOL_PROPERTY
Idih
SciTegic.value.DoubleValue
0.000

@<SCITEGIC>MOL_PROPERTY
Tether
SciTegic.value.DoubleValue
0.000

@<TRIPOS>MOLECULE
guest-s10_confgen4.mol2 : confsearch ligand conformer 6
          20          19           1
SMALL
USER_CHARGES
 
@<TRIPOS>ATOM
       1    N1      20.048467   20.219810   23.972542 N.4        1 MOL1        -0.5937
       2    H1      19.798079   20.882799   23.234555 H          1 MOL1         0.3684
       3    H2      21.058438   20.289270   24.119358 H          1 MOL1         0.3684
       4    H3      19.591907   20.533533   24.833166 H          1 MOL1         0.3684
       5    C1      19.639304   18.817908   23.610005 C.3        1 MOL1         0.1270
       6    H4      18.553639   18.831940   23.474857 H          1 MOL1         0.0960
       7    C2      19.966212   17.843844   24.753615 C.3        1 MOL1        -0.2382
       8    H5      19.476899   18.158461   25.683575 H          1 MOL1         0.1009
       9    H6      21.046878   17.793372   24.936277 H          1 MOL1         0.1009
      10    H7      19.612150   16.832661   24.517458 H          1 MOL1         0.1009
      11    C3      20.285598   18.335870   22.291322 C.3        1 MOL1        -0.1392
      12    H8      21.376400   18.299257   22.412335 H          1 MOL1         0.0998
      13    H9      19.964599   17.304726   22.092255 H          1 MOL1         0.0998
      14    C4      19.941479   19.210002   21.058692 C.3        1 MOL1        -0.1302
      15    H10     20.447786   18.791671   20.177468 H          1 MOL1         0.0998
      16    H11     20.346289   20.223125   21.186271 H          1 MOL1         0.0998
      17    C5      18.423940   19.286566   20.774825 C.3        1 MOL1        -0.2317
      18    H12     17.996159   18.284122   20.643339 H          1 MOL1         0.1009
      19    H13     18.232998   19.854803   19.855197 H          1 MOL1         0.1009
      20    H14     17.884137   19.785396   21.589489 H          1 MOL1         0.1009
@<TRIPOS>BOND
    1     1     2    1
    2     1     3    1
    3     1     4    1
    4     1     5    1
    5     5     6    1
    6     5     7    1
    7     7     8    1
    8     7     9    1
    9     7    10    1
   10     5    11    1
   11    11    12    1
   12    11    13    1
   13    11    14    1
   14    14    15    1
   15    14    16    1
   16    14    17    1
   17    17    18    1
   18    17    19    1
   19    17    20    1
@<TRIPOS>SUBSTRUCTURE
       1 MOL1            1 RESIDUE      1      MOL     
@<SCITEGIC>MOL_PROPERTY
VConf Rank
SciTegic.value.IntegerValue
6

@<SCITEGIC>MOL_PROPERTY
Conf_Id
SciTegic.value.IntegerValue
50

@<SCITEGIC>MOL_PROPERTY
Delta U+W
SciTegic.value.DoubleValue
0.466

@<SCITEGIC>MOL_PROPERTY
U+W
SciTegic.value.DoubleValue
-35.811

@<SCITEGIC>MOL_PROPERTY
Grad RMS
SciTegic.value.DoubleValue
0.000000

@<SCITEGIC>MOL_PROPERTY
U
SciTegic.value.DoubleValue
22.369

@<SCITEGIC>MOL_PROPERTY
W
SciTegic.value.DoubleValue
-58.180

@<SCITEGIC>MOL_PROPERTY
W(PB)
SciTegic.value.DoubleValue
-60.103

@<SCITEGIC>MOL_PROPERTY
W(SA)
SciTegic.value.DoubleValue
1.923

@<SCITEGIC>MOL_PROPERTY
Valence
SciTegic.value.DoubleValue
2.168

@<SCITEGIC>MOL_PROPERTY
Coulomb
SciTegic.value.DoubleValue
19.636

@<SCITEGIC>MOL_PROPERTY
VdW
SciTegic.value.DoubleValue
0.566

@<SCITEGIC>MOL_PROPERTY
VdW6
SciTegic.value.DoubleValue
-5.263

@<SCITEGIC>MOL_PROPERTY
VdW12
SciTegic.value.DoubleValue
5.829

@<SCITEGIC>MOL_PROPERTY
Bond
SciTegic.value.DoubleValue
0.162

@<SCITEGIC>MOL_PROPERTY
Angle
SciTegic.value.DoubleValue
1.066

@<SCITEGIC>MOL_PROPERTY
Pdih
SciTegic.value.DoubleValue
0.939

@<SCITEGIC>MOL_PROPERTY
Idih
SciTegic.value.DoubleValue
0.000

@<SCITEGIC>MOL_PROPERTY
Tether
SciTegic.value.DoubleValue
0.000

@<TRIPOS>MOLECULE
guest-s10_confgen4.mol2 : confsearch ligand conformer 7
          20          19           1
SMALL
USER_CHARGES
 
@<TRIPOS>ATOM
       1    N1      20.312781   19.949991   24.719774 N.4        1 MOL1        -0.5937
       2    H1      20.246659   20.949218   24.507242 H          1 MOL1         0.3684
       3    H2      21.301033   19.733021   24.871937 H          1 MOL1         0.3684
       4    H3      19.827536   19.797235   25.607996 H          1 MOL1         0.3684
       5    C1      19.725067   19.108420   23.619351 C.3        1 MOL1         0.1270
       6    H4      18.677487   19.412271   23.529832 H          1 MOL1         0.0960
       7    C2      19.775662   17.619651   24.010466 C.3        1 MOL1        -0.2382
       8    H5      20.809978   17.284520   24.157247 H          1 MOL1         0.1009
       9    H6      19.322809   16.985255   23.240886 H          1 MOL1         0.1009
      10    H7      19.227977   17.447008   24.945005 H          1 MOL1         0.1009
      11    C3      20.419685   19.367359   22.259687 C.3        1 MOL1        -0.1392
      12    H8      20.975956   20.312467   22.314516 H          1 MOL1         0.0998
      13    H9      21.172196   18.592929   22.059690 H          1 MOL1         0.0998
      14    C4      19.438768   19.478414   21.065011 C.3        1 MOL1        -0.1302
      15    H10     20.011584   19.738589   20.163832 H          1 MOL1         0.0998
      16    H11     18.744241   20.312896   21.236334 H          1 MOL1         0.0998
      17    C5      18.633036   18.190166   20.786711 C.3        1 MOL1        -0.2317
      18    H12     19.298562   17.327464   20.653115 H          1 MOL1         0.1009
      19    H13     18.039517   18.299848   19.869790 H          1 MOL1         0.1009
      20    H14     17.935146   17.969326   21.603907 H          1 MOL1         0.1009
@<TRIPOS>BOND
    1     1     2    1
    2     1     3    1
    3     1     4    1
    4     1     5    1
    5     5     6    1
    6     5     7    1
    7     7     8    1
    8     7     9    1
    9     7    10    1
   10     5    11    1
   11    11    12    1
   12    11    13    1
   13    11    14    1
   14    14    15    1
   15    14    16    1
   16    14    17    1
   17    17    18    1
   18    17    19    1
   19    17    20    1
@<TRIPOS>SUBSTRUCTURE
       1 MOL1            1 RESIDUE      1      MOL     
@<SCITEGIC>MOL_PROPERTY
VConf Rank
SciTegic.value.IntegerValue
7

@<SCITEGIC>MOL_PROPERTY
Conf_Id
SciTegic.value.IntegerValue
3

@<SCITEGIC>MOL_PROPERTY
Delta U+W
SciTegic.value.DoubleValue
3.093

@<SCITEGIC>MOL_PROPERTY
U+W
SciTegic.value.DoubleValue
-33.184

@<SCITEGIC>MOL_PROPERTY
Grad RMS
SciTegic.value.DoubleValue
0.000000

@<SCITEGIC>MOL_PROPERTY
U
SciTegic.value.DoubleValue
25.256

@<SCITEGIC>MOL_PROPERTY
W
SciTegic.value.DoubleValue
-58.439

@<SCITEGIC>MOL_PROPERTY
W(PB)
SciTegic.value.DoubleValue
-60.337

@<SCITEGIC>MOL_PROPERTY
W(SA)
SciTegic.value.DoubleValue
1.898

@<SCITEGIC>MOL_PROPERTY
Valence
SciTegic.value.DoubleValue
4.963

@<SCITEGIC>MOL_PROPERTY
Coulomb
SciTegic.value.DoubleValue
19.511

@<SCITEGIC>MOL_PROPERTY
VdW
SciTegic.value.DoubleValue
0.782

@<SCITEGIC>MOL_PROPERTY
VdW6
SciTegic.value.DoubleValue
-5.429

@<SCITEGIC>MOL_PROPERTY
VdW12
SciTegic.value.DoubleValue
6.211

@<SCITEGIC>MOL_PROPERTY
Bond
SciTegic.value.DoubleValue
0.174

@<SCITEGIC>MOL_PROPERTY
Angle
SciTegic.value.DoubleValue
1.377

@<SCITEGIC>MOL_PROPERTY
Pdih
SciTegic.value.DoubleValue
3.412

@<SCITEGIC>MOL_PROPERTY
Idih
SciTegic.value.DoubleValue
0.000

@<SCITEGIC>MOL_PROPERTY
Tether
SciTegic.value.DoubleValue
0.000

@<TRIPOS>MOLECULE
guest-s10_confgen4.mol2 : confsearch ligand conformer 8
          20          19           1
SMALL
USER_CHARGES
 
@<TRIPOS>ATOM
       1    N1      20.312875   20.092356   24.625135 N.4        1 MOL1        -0.5937
       2    H1      19.791487   20.063123   25.505439 H          1 MOL1         0.3684
       3    H2      20.318861   21.066093   24.309492 H          1 MOL1         0.3684
       4    H3      21.279759   19.832709   24.835855 H          1 MOL1         0.3684
       5    C1      19.707142   19.178443   23.595459 C.3        1 MOL1         0.1270
       6    H4      18.682232   19.528419   23.439983 H          1 MOL1         0.0960
       7    C2      19.652472   17.734605   24.126914 C.3        1 MOL1        -0.2382
       8    H5      19.089469   17.082444   23.449235 H          1 MOL1         0.1009
       9    H6      19.150684   17.700039   25.101669 H          1 MOL1         0.1009
      10    H7      20.659894   17.317486   24.247749 H          1 MOL1         0.1009
      11    C3      20.462781   19.273586   22.248468 C.3        1 MOL1        -0.1392
      12    H8      20.538950   20.330862   21.962300 H          1 MOL1         0.0998
      13    H9      21.493475   18.920084   22.384268 H          1 MOL1         0.0998
      14    C4      19.811591   18.496837   21.075558 C.3        1 MOL1        -0.1302
      15    H10     19.839948   17.416416   21.270899 H          1 MOL1         0.0998
      16    H11     20.415834   18.653936   20.171098 H          1 MOL1         0.0998
      17    C5      18.358138   18.938172   20.789467 C.3        1 MOL1        -0.2317
      18    H12     18.304228   20.017017   20.593647 H          1 MOL1         0.1009
      19    H13     17.693641   18.708283   21.631879 H          1 MOL1         0.1009
      20    H14     17.964844   18.417555   19.906689 H          1 MOL1         0.1009
@<TRIPOS>BOND
    1     1     2    1
    2     1     3    1
    3     1     4    1
    4     1     5    1
    5     5     6    1
    6     5     7    1
    7     7     8    1
    8     7     9    1
    9     7    10    1
   10     5    11    1
   11    11    12    1
   12    11    13    1
   13    11    14    1
   14    14    15    1
   15    14    16    1
   16    14    17    1
   17    17    18    1
   18    17    19    1
   19    17    20    1
@<TRIPOS>SUBSTRUCTURE
       1 MOL1            1 RESIDUE      1      MOL     
@<SCITEGIC>MOL_PROPERTY
VConf Rank
SciTegic.value.IntegerValue
8

@<SCITEGIC>MOL_PROPERTY
Conf_Id
SciTegic.value.IntegerValue
64

@<SCITEGIC>MOL_PROPERTY
Delta U+W
SciTegic.value.DoubleValue
0.544

@<SCITEGIC>MOL_PROPERTY
U+W
SciTegic.value.DoubleValue
-35.732

@<SCITEGIC>MOL_PROPERTY
Grad RMS
SciTegic.value.DoubleValue
0.000000

@<SCITEGIC>MOL_PROPERTY
U
SciTegic.value.DoubleValue
22.800

@<SCITEGIC>MOL_PROPERTY
W
SciTegic.value.DoubleValue
-58.532

@<SCITEGIC>MOL_PROPERTY
W(PB)
SciTegic.value.DoubleValue
-60.437

@<SCITEGIC>MOL_PROPERTY
W(SA)
SciTegic.value.DoubleValue
1.905

@<SCITEGIC>MOL_PROPERTY
Valence
SciTegic.value.DoubleValue
2.662

@<SCITEGIC>MOL_PROPERTY
Coulomb
SciTegic.value.DoubleValue
19.485

@<SCITEGIC>MOL_PROPERTY
VdW
SciTegic.value.DoubleValue
0.653

@<SCITEGIC>MOL_PROPERTY
VdW6
SciTegic.value.DoubleValue
-5.460

@<SCITEGIC>MOL_PROPERTY
VdW12
SciTegic.value.DoubleValue
6.113

@<SCITEGIC>MOL_PROPERTY
Bond
SciTegic.value.DoubleValue
0.174

@<SCITEGIC>MOL_PROPERTY
Angle
SciTegic.value.DoubleValue
1.378

@<SCITEGIC>MOL_PROPERTY
Pdih
SciTegic.value.DoubleValue
1.109

@<SCITEGIC>MOL_PROPERTY
Idih
SciTegic.value.DoubleValue
0.000

@<SCITEGIC>MOL_PROPERTY
Tether
SciTegic.value.DoubleValue
0.000

@<TRIPOS>MOLECULE
guest-s10_confgen4.mol2 : confsearch ligand conformer 9
          20          19           1
SMALL
USER_CHARGES
 
@<TRIPOS>ATOM
       1    N1      20.411972   20.113382   24.324924 N.4        1 MOL1        -0.5937
       2    H1      21.051131   20.413310   23.585471 H          1 MOL1         0.3684
       3    H2      20.974373   19.935153   25.161317 H          1 MOL1         0.3684
       4    H3      19.795082   20.902271   24.536493 H          1 MOL1         0.3684
       5    C1      19.630800   18.893532   23.916795 C.3        1 MOL1         0.1270
       6    H4      18.991470   18.648193   24.770627 H          1 MOL1         0.0960
       7    C2      20.566403   17.695830   23.684670 C.3        1 MOL1        -0.2382
       8    H5      21.327745   17.921609   22.928964 H          1 MOL1         0.1009
       9    H6      20.000135   16.814811   23.358349 H          1 MOL1         0.1009
      10    H7      21.087019   17.431279   24.613077 H          1 MOL1         0.1009
      11    C3      18.692602   19.169281   22.714843 C.3        1 MOL1        -0.1392
      12    H8      18.024445   18.310200   22.569784 H          1 MOL1         0.0998
      13    H9      18.034331   20.001494   22.996946 H          1 MOL1         0.0998
      14    C4      19.385369   19.530613   21.371437 C.3        1 MOL1        -0.1302
      15    H10     20.332591   20.056861   21.548108 H          1 MOL1         0.0998
      16    H11     18.744309   20.241967   20.831993 H          1 MOL1         0.0998
      17    C5      19.617855   18.311362   20.448331 C.3        1 MOL1        -0.2317
      18    H12     20.288125   17.572135   20.900281 H          1 MOL1         0.1009
      19    H13     20.068883   18.629608   19.499512 H          1 MOL1         0.1009
      20    H14     18.669977   17.810053   20.213256 H          1 MOL1         0.1009
@<TRIPOS>BOND
    1     1     2    1
    2     1     3    1
    3     1     4    1
    4     1     5    1
    5     5     6    1
    6     5     7    1
    7     7     8    1
    8     7     9    1
    9     7    10    1
   10     5    11    1
   11    11    12    1
   12    11    13    1
   13    11    14    1
   14    14    15    1
   15    14    16    1
   16    14    17    1
   17    17    18    1
   18    17    19    1
   19    17    20    1
@<TRIPOS>SUBSTRUCTURE
       1 MOL1            1 RESIDUE      1      MOL     
@<SCITEGIC>MOL_PROPERTY
VConf Rank
SciTegic.value.IntegerValue
9

@<SCITEGIC>MOL_PROPERTY
Conf_Id
SciTegic.value.IntegerValue
35

@<SCITEGIC>MOL_PROPERTY
Delta U+W
SciTegic.value.DoubleValue
3.004

@<SCITEGIC>MOL_PROPERTY
U+W
SciTegic.value.DoubleValue
-33.272

@<SCITEGIC>MOL_PROPERTY
Grad RMS
SciTegic.value.DoubleValue
0.000000

@<SCITEGIC>MOL_PROPERTY
U
SciTegic.value.DoubleValue
25.367

@<SCITEGIC>MOL_PROPERTY
W
SciTegic.value.DoubleValue
-58.639

@<SCITEGIC>MOL_PROPERTY
W(PB)
SciTegic.value.DoubleValue
-60.512

@<SCITEGIC>MOL_PROPERTY
W(SA)
SciTegic.value.DoubleValue
1.873

@<SCITEGIC>MOL_PROPERTY
Valence
SciTegic.value.DoubleValue
4.943

@<SCITEGIC>MOL_PROPERTY
Coulomb
SciTegic.value.DoubleValue
19.661

@<SCITEGIC>MOL_PROPERTY
VdW
SciTegic.value.DoubleValue
0.764

@<SCITEGIC>MOL_PROPERTY
VdW6
SciTegic.value.DoubleValue
-5.871

@<SCITEGIC>MOL_PROPERTY
VdW12
SciTegic.value.DoubleValue
6.636

@<SCITEGIC>MOL_PROPERTY
Bond
SciTegic.value.DoubleValue
0.230

@<SCITEGIC>MOL_PROPERTY
Angle
SciTegic.value.DoubleValue
1.857

@<SCITEGIC>MOL_PROPERTY
Pdih
SciTegic.value.DoubleValue
2.855

@<SCITEGIC>MOL_PROPERTY
Idih
SciTegic.value.DoubleValue
0.000

@<SCITEGIC>MOL_PROPERTY
Tether
SciTegic.value.DoubleValue
0.000

@<TRIPOS>MOLECULE
guest-s10_confgen4.mol2 : confsearch ligand conformer 10
          20          19           1
SMALL
USER_CHARGES
 
@<TRIPOS>ATOM
       1    N1      20.552656   20.223476   23.720393 N.4        1 MOL1        -0.5937
       2    H1      21.249200   20.286573   24.467686 H          1 MOL1         0.3684
       3    H2      20.005685   21.088357   23.740003 H          1 MOL1         0.3684
       4    H3      21.054107   20.198764   22.830486 H          1 MOL1         0.3684
       5    C1      19.675048   19.012978   23.884588 C.3        1 MOL1         0.1270
       6    H4      19.169925   19.150225   24.845806 H          1 MOL1         0.0960
       7    C2      20.509654   17.723902   23.985713 C.3        1 MOL1        -0.2382
       8    H5      21.121163   17.566065   23.089366 H          1 MOL1         0.1009
       9    H6      19.860362   16.849645   24.118062 H          1 MOL1         0.1009
      10    H7      21.185086   17.770152   24.848627 H          1 MOL1         0.1009
      11    C3      18.566244   18.915929   22.805493 C.3        1 MOL1        -0.1392
      12    H8      17.806340   18.213333   23.172165 H          1 MOL1         0.0998
      13    H9      18.055208   19.884835   22.732833 H          1 MOL1         0.0998
      14    C4      18.993240   18.453941   21.383931 C.3        1 MOL1        -0.1302
      15    H10     18.089936   18.395826   20.760642 H          1 MOL1         0.0998
      16    H11     19.392394   17.431183   21.419600 H          1 MOL1         0.0998
      17    C5      20.008157   19.383774   20.680883 C.3        1 MOL1        -0.2317
      18    H12     19.674406   20.429296   20.706105 H          1 MOL1         0.1009
      19    H13     20.120303   19.096037   19.627412 H          1 MOL1         0.1009
      20    H14     21.001493   19.317253   21.139277 H          1 MOL1         0.1009
@<TRIPOS>BOND
    1     1     2    1
    2     1     3    1
    3     1     4    1
    4     1     5    1
    5     5     6    1
    6     5     7    1
    7     7     8    1
    8     7     9    1
    9     7    10    1
   10     5    11    1
   11    11    12    1
   12    11    13    1
   13    11    14    1
   14    14    15    1
   15    14    16    1
   16    14    17    1
   17    17    18    1
   18    17    19    1
   19    17    20    1
@<TRIPOS>SUBSTRUCTURE
       1 MOL1            1 RESIDUE      1      MOL     
@<SCITEGIC>MOL_PROPERTY
VConf Rank
SciTegic.value.IntegerValue
10

@<SCITEGIC>MOL_PROPERTY
Conf_Id
SciTegic.value.IntegerValue
55

@<SCITEGIC>MOL_PROPERTY
Delta U+W
SciTegic.value.DoubleValue
2.767

@<SCITEGIC>MOL_PROPERTY
U+W
SciTegic.value.DoubleValue
-33.509

@<SCITEGIC>MOL_PROPERTY
Grad RMS
SciTegic.value.DoubleValue
0.000000

@<SCITEGIC>MOL_PROPERTY
U
SciTegic.value.DoubleValue
24.552

@<SCITEGIC>MOL_PROPERTY
W
SciTegic.value.DoubleValue
-58.061

@<SCITEGIC>MOL_PROPERTY
W(PB)
SciTegic.value.DoubleValue
-59.930

@<SCITEGIC>MOL_PROPERTY
W(SA)
SciTegic.value.DoubleValue
1.869

@<SCITEGIC>MOL_PROPERTY
Valence
SciTegic.value.DoubleValue
3.726

@<SCITEGIC>MOL_PROPERTY
Coulomb
SciTegic.value.DoubleValue
20.219

@<SCITEGIC>MOL_PROPERTY
VdW
SciTegic.value.DoubleValue
0.606

@<SCITEGIC>MOL_PROPERTY
VdW6
SciTegic.value.DoubleValue
-6.395

@<SCITEGIC>MOL_PROPERTY
VdW12
SciTegic.value.DoubleValue
7.001

@<SCITEGIC>MOL_PROPERTY
Bond
SciTegic.value.DoubleValue
0.241

@<SCITEGIC>MOL_PROPERTY
Angle
SciTegic.value.DoubleValue
2.098

@<SCITEGIC>MOL_PROPERTY
Pdih
SciTegic.value.DoubleValue
1.387

@<SCITEGIC>MOL_PROPERTY
Idih
SciTegic.value.DoubleValue
0.000

@<SCITEGIC>MOL_PROPERTY
Tether
SciTegic.value.DoubleValue
0.000

@<TRIPOS>MOLECULE
guest-s10_confgen4.mol2 : confsearch ligand conformer 11
          20          19           1
SMALL
USER_CHARGES
 
@<TRIPOS>ATOM
       1    N1      17.812163   18.751327   22.391022 N.4        1 MOL1        -0.5937
       2    H1      17.687658   19.580324   21.804671 H          1 MOL1         0.3684
       3    H2      16.904175   18.535735   22.811419 H          1 MOL1         0.3684
       4    H3      18.053963   17.971778   21.774241 H          1 MOL1         0.3684
       5    C1      18.866982   18.972278   23.441545 C.3        1 MOL1         0.1270
       6    H4      18.938382   18.043558   24.016235 H          1 MOL1         0.0960
       7    C2      18.447550   20.099578   24.399271 C.3        1 MOL1        -0.2382
       8    H5      17.479334   19.874959   24.863350 H          1 MOL1         0.1009
       9    H6      18.359504   21.057376   23.871384 H          1 MOL1         0.1009
      10    H7      19.182014   20.220195   25.205282 H          1 MOL1         0.1009
      11    C3      20.255436   19.272264   22.834622 C.3        1 MOL1        -0.1392
      12    H8      20.205419   20.188963   22.232063 H          1 MOL1         0.0998
      13    H9      20.962797   19.472497   23.650474 H          1 MOL1         0.0998
      14    C4      20.804009   18.109300   21.973169 C.3        1 MOL1        -0.1302
      15    H10     20.141744   17.926130   21.116268 H          1 MOL1         0.0998
      16    H11     20.819867   17.184275   22.566735 H          1 MOL1         0.0998
      17    C5      22.226750   18.407120   21.453156 C.3        1 MOL1        -0.2317
      18    H12     22.238358   19.310885   20.829995 H          1 MOL1         0.1009
      19    H13     22.599236   17.573470   20.843757 H          1 MOL1         0.1009
      20    H14     22.928665   18.555915   22.284064 H          1 MOL1         0.1009
@<TRIPOS>BOND
    1     1     2    1
    2     1     3    1
    3     1     4    1
    4     1     5    1
    5     5     6    1
    6     5     7    1
    7     7     8    1
    8     7     9    1
    9     7    10    1
   10     5    11    1
   11    11    12    1
   12    11    13    1
   13    11    14    1
   14    14    15    1
   15    14    16    1
   16    14    17    1
   17    17    18    1
   18    17    19    1
   19    17    20    1
@<TRIPOS>SUBSTRUCTURE
       1 MOL1            1 RESIDUE      1      MOL     
@<SCITEGIC>MOL_PROPERTY
VConf Rank
SciTegic.value.IntegerValue
11

@<SCITEGIC>MOL_PROPERTY
Conf_Id
SciTegic.value.IntegerValue
74

@<SCITEGIC>MOL_PROPERTY
Delta U+W
SciTegic.value.DoubleValue
0.000

@<SCITEGIC>MOL_PROPERTY
U+W
SciTegic.value.DoubleValue
-36.276

@<SCITEGIC>MOL_PROPERTY
Grad RMS
SciTegic.value.DoubleValue
0.000000

@<SCITEGIC>MOL_PROPERTY
U
SciTegic.value.DoubleValue
22.080

@<SCITEGIC>MOL_PROPERTY
W
SciTegic.value.DoubleValue
-58.356

@<SCITEGIC>MOL_PROPERTY
W(PB)
SciTegic.value.DoubleValue
-60.289

@<SCITEGIC>MOL_PROPERTY
W(SA)
SciTegic.value.DoubleValue
1.932

@<SCITEGIC>MOL_PROPERTY
Valence
SciTegic.value.DoubleValue
1.885

@<SCITEGIC>MOL_PROPERTY
Coulomb
SciTegic.value.DoubleValue
19.559

@<SCITEGIC>MOL_PROPERTY
VdW
SciTegic.value.DoubleValue
0.637

@<SCITEGIC>MOL_PROPERTY
VdW6
SciTegic.value.DoubleValue
-4.482

@<SCITEGIC>MOL_PROPERTY
VdW12
SciTegic.value.DoubleValue
5.119

@<SCITEGIC>MOL_PROPERTY
Bond
SciTegic.value.DoubleValue
0.136

@<SCITEGIC>MOL_PROPERTY
Angle
SciTegic.value.DoubleValue
0.867

@<SCITEGIC>MOL_PROPERTY
Pdih
SciTegic.value.DoubleValue
0.882

@<SCITEGIC>MOL_PROPERTY
Idih
SciTegic.value.DoubleValue
0.000

@<SCITEGIC>MOL_PROPERTY
Tether
SciTegic.value.DoubleValue
0.000

@<TRIPOS>MOLECULE
guest-s10_confgen4.mol2 : confsearch ligand conformer 12
          20          19           1
SMALL
USER_CHARGES
 
@<TRIPOS>ATOM
       1    N1      17.755331   18.558252   24.001104 N.4        1 MOL1        -0.5937
       2    H1      17.031420   18.588153   23.277975 H          1 MOL1         0.3684
       3    H2      17.731866   19.453788   24.495261 H          1 MOL1         0.3684
       4    H3      17.483182   17.833944   24.671172 H          1 MOL1         0.3684
       5    C1      19.113958   18.285087   23.416313 C.3        1 MOL1         0.1270
       6    H4      19.044145   17.314704   22.914966 H          1 MOL1         0.0960
       7    C2      20.165645   18.179210   24.535931 C.3        1 MOL1        -0.2382
       8    H5      19.848169   17.455924   25.297041 H          1 MOL1         0.1009
       9    H6      20.318934   19.146813   25.029718 H          1 MOL1         0.1009
      10    H7      21.130561   17.835307   24.146197 H          1 MOL1         0.1009
      11    C3      19.492328   19.349013   22.359722 C.3        1 MOL1        -0.1392
      12    H8      18.656535   19.451273   21.654985 H          1 MOL1         0.0998
      13    H9      19.610359   20.326807   22.845353 H          1 MOL1         0.0998
      14    C4      20.771894   19.006859   21.557972 C.3        1 MOL1        -0.1302
      15    H10     20.679479   18.001395   21.123723 H          1 MOL1         0.0998
      16    H11     21.645077   18.987500   22.223613 H          1 MOL1         0.0998
      17    C5      21.027960   20.029562   20.430058 C.3        1 MOL1        -0.2317
      18    H12     20.194215   20.048601   19.716094 H          1 MOL1         0.1009
      19    H13     21.939894   19.774191   19.874855 H          1 MOL1         0.1009
      20    H14     21.153505   21.041856   20.835964 H          1 MOL1         0.1009
@<TRIPOS>BOND
    1     1     2    1
    2     1     3    1
    3     1     4    1
    4     1     5    1
    5     5     6    1
    6     5     7    1
    7     7     8    1
    8     7     9    1
    9     7    10    1
   10     5    11    1
   11    11    12    1
   12    11    13    1
   13    11    14    1
   14    14    15    1
   15    14    16    1
   16    14    17    1
   17    17    18    1
   18    17    19    1
   19    17    20    1
@<TRIPOS>SUBSTRUCTURE
       1 MOL1            1 RESIDUE      1      MOL     
@<SCITEGIC>MOL_PROPERTY
VConf Rank
SciTegic.value.IntegerValue
12

@<SCITEGIC>MOL_PROPERTY
Conf_Id
SciTegic.value.IntegerValue
80

@<SCITEGIC>MOL_PROPERTY
Delta U+W
SciTegic.value.DoubleValue
0.460

@<SCITEGIC>MOL_PROPERTY
U+W
SciTegic.value.DoubleValue
-35.817

@<SCITEGIC>MOL_PROPERTY
Grad RMS
SciTegic.value.DoubleValue
0.000000

@<SCITEGIC>MOL_PROPERTY
U
SciTegic.value.DoubleValue
22.495

@<SCITEGIC>MOL_PROPERTY
W
SciTegic.value.DoubleValue
-58.311

@<SCITEGIC>MOL_PROPERTY
W(PB)
SciTegic.value.DoubleValue
-60.259

@<SCITEGIC>MOL_PROPERTY
W(SA)
SciTegic.value.DoubleValue
1.948

@<SCITEGIC>MOL_PROPERTY
Valence
SciTegic.value.DoubleValue
2.419

@<SCITEGIC>MOL_PROPERTY
Coulomb
SciTegic.value.DoubleValue
19.304

@<SCITEGIC>MOL_PROPERTY
VdW
SciTegic.value.DoubleValue
0.772

@<SCITEGIC>MOL_PROPERTY
VdW6
SciTegic.value.DoubleValue
-4.635

@<SCITEGIC>MOL_PROPERTY
VdW12
SciTegic.value.DoubleValue
5.407

@<SCITEGIC>MOL_PROPERTY
Bond
SciTegic.value.DoubleValue
0.149

@<SCITEGIC>MOL_PROPERTY
Angle
SciTegic.value.DoubleValue
1.142

@<SCITEGIC>MOL_PROPERTY
Pdih
SciTegic.value.DoubleValue
1.129

@<SCITEGIC>MOL_PROPERTY
Idih
SciTegic.value.DoubleValue
0.000

@<SCITEGIC>MOL_PROPERTY
Tether
SciTegic.value.DoubleValue
0.000

@<TRIPOS>MOLECULE
guest-s10_confgen4.mol2 : confsearch ligand conformer 13
          20          19           1
SMALL
USER_CHARGES
 
@<TRIPOS>ATOM
       1    N1      21.607583   19.592337   21.374183 N.4        1 MOL1        -0.5937
       2    H1      21.323356   19.730239   20.400525 H          1 MOL1         0.3684
       3    H2      22.100661   18.697402   21.425711 H          1 MOL1         0.3684
       4    H3      22.285075   20.326161   21.598060 H          1 MOL1         0.3684
       5    C1      20.428707   19.627741   22.307857 C.3        1 MOL1         0.1270
       6    H4      19.972894   20.615522   22.188184 H          1 MOL1         0.0960
       7    C2      20.900117   19.492375   23.765837 C.3        1 MOL1        -0.2382
       8    H5      21.705944   20.204976   23.980282 H          1 MOL1         0.1009
       9    H6      21.274955   18.482002   23.971013 H          1 MOL1         0.1009
      10    H7      20.084197   19.710814   24.464097 H          1 MOL1         0.1009
      11    C3      19.376168   18.562467   21.914552 C.3        1 MOL1        -0.1392
      12    H8      19.131683   18.716580   20.855228 H          1 MOL1         0.0998
      13    H9      19.812651   17.556804   21.976634 H          1 MOL1         0.0998
      14    C4      18.050388   18.622749   22.718491 C.3        1 MOL1        -0.1302
      15    H10     17.218646   18.383836   22.040816 H          1 MOL1         0.0998
      16    H11     17.864692   19.646304   23.073198 H          1 MOL1         0.0998
      17    C5      18.001942   17.625718   23.900277 C.3        1 MOL1        -0.2317
      18    H12     18.111061   16.592427   23.545991 H          1 MOL1         0.1009
      19    H13     17.039756   17.697230   24.423792 H          1 MOL1         0.1009
      20    H14     18.793360   17.815374   24.633918 H          1 MOL1         0.1009
@<TRIPOS>BOND
    1     1     2    1
    2     1     3    1
    3     1     4    1
    4     1     5    1
    5     5     6    1
    6     5     7    1
    7     7     8    1
    8     7     9    1
    9     7    10    1
   10     5    11    1
   11    11    12    1
   12    11    13    1
   13    11    14    1
   14    14    15    1
   15    14    16    1
   16    14    17    1
   17    17    18    1
   18    17    19    1
   19    17    20    1
@<TRIPOS>SUBSTRUCTURE
       1 MOL1            1 RESIDUE      1      MOL     
@<SCITEGIC>MOL_PROPERTY
VConf Rank
SciTegic.value.IntegerValue
13

@<SCITEGIC>MOL_PROPERTY
Conf_Id
SciTegic.value.IntegerValue
52

@<SCITEGIC>MOL_PROPERTY
Delta U+W
SciTegic.value.DoubleValue
2.995

@<SCITEGIC>MOL_PROPERTY
U+W
SciTegic.value.DoubleValue
-33.282

@<SCITEGIC>MOL_PROPERTY
Grad RMS
SciTegic.value.DoubleValue
0.000000

@<SCITEGIC>MOL_PROPERTY
U
SciTegic.value.DoubleValue
25.224

@<SCITEGIC>MOL_PROPERTY
W
SciTegic.value.DoubleValue
-58.506

@<SCITEGIC>MOL_PROPERTY
W(PB)
SciTegic.value.DoubleValue
-60.411

@<SCITEGIC>MOL_PROPERTY
W(SA)
SciTegic.value.DoubleValue
1.905

@<SCITEGIC>MOL_PROPERTY
Valence
SciTegic.value.DoubleValue
4.945

@<SCITEGIC>MOL_PROPERTY
Coulomb
SciTegic.value.DoubleValue
19.467

@<SCITEGIC>MOL_PROPERTY
VdW
SciTegic.value.DoubleValue
0.813

@<SCITEGIC>MOL_PROPERTY
VdW6
SciTegic.value.DoubleValue
-5.458

@<SCITEGIC>MOL_PROPERTY
VdW12
SciTegic.value.DoubleValue
6.270

@<SCITEGIC>MOL_PROPERTY
Bond
SciTegic.value.DoubleValue
0.200

@<SCITEGIC>MOL_PROPERTY
Angle
SciTegic.value.DoubleValue
1.675

@<SCITEGIC>MOL_PROPERTY
Pdih
SciTegic.value.DoubleValue
3.070

@<SCITEGIC>MOL_PROPERTY
Idih
SciTegic.value.DoubleValue
0.000

@<SCITEGIC>MOL_PROPERTY
Tether
SciTegic.value.DoubleValue
0.000

@<TRIPOS>MOLECULE
guest-s10_confgen4.mol2 : confsearch ligand conformer 14
          20          19           1
SMALL
USER_CHARGES
 
@<TRIPOS>ATOM
       1    N1      19.758391   20.580282   23.168625 N.4        1 MOL1        -0.5937
       2    H1      19.389743   20.592074   24.122741 H          1 MOL1         0.3684
       3    H2      19.633631   21.519214   22.780694 H          1 MOL1         0.3684
       4    H3      20.763161   20.402750   23.231109 H          1 MOL1         0.3684
       5    C1      19.071056   19.539147   22.327877 C.3        1 MOL1         0.1270
       6    H4      19.481323   19.619427   21.316457 H          1 MOL1         0.0960
       7    C2      17.563340   19.835724   22.260082 C.3        1 MOL1        -0.2382
       8    H5      17.097422   19.752905   23.249991 H          1 MOL1         0.1009
       9    H6      17.056912   19.135450   21.584218 H          1 MOL1         0.1009
      10    H7      17.383130   20.849238   21.881072 H          1 MOL1         0.1009
      11    C3      19.315112   18.099020   22.838472 C.3        1 MOL1        -0.1392
      12    H8      19.151547   18.053584   23.923256 H          1 MOL1         0.0998
      13    H9      18.559884   17.437322   22.393645 H          1 MOL1         0.0998
      14    C4      20.705340   17.509748   22.482620 C.3        1 MOL1        -0.1302
      15    H10     20.841702   17.515384   21.392020 H          1 MOL1         0.0998
      16    H11     20.715854   16.452535   22.782983 H          1 MOL1         0.0998
      17    C5      21.902729   18.218489   23.155787 C.3        1 MOL1        -0.2317
      18    H12     22.817962   17.627658   23.019579 H          1 MOL1         0.1009
      19    H13     21.741694   18.336773   24.235321 H          1 MOL1         0.1009
      20    H14     22.090458   19.203546   22.713228 H          1 MOL1         0.1009
@<TRIPOS>BOND
    1     1     2    1
    2     1     3    1
    3     1     4    1
    4     1     5    1
    5     5     6    1
    6     5     7    1
    7     7     8    1
    8     7     9    1
    9     7    10    1
   10     5    11    1
   11    11    12    1
   12    11    13    1
   13    11    14    1
   14    14    15    1
   15    14    16    1
   16    14    17    1
   17    17    18    1
   18    17    19    1
   19    17    20    1
@<TRIPOS>SUBSTRUCTURE
       1 MOL1            1 RESIDUE      1      MOL     
@<SCITEGIC>MOL_PROPERTY
VConf Rank
SciTegic.value.IntegerValue
14

@<SCITEGIC>MOL_PROPERTY
Conf_Id
SciTegic.value.IntegerValue
54

@<SCITEGIC>MOL_PROPERTY
Delta U+W
SciTegic.value.DoubleValue
2.752

@<SCITEGIC>MOL_PROPERTY
U+W
SciTegic.value.DoubleValue
-33.525

@<SCITEGIC>MOL_PROPERTY
Grad RMS
SciTegic.value.DoubleValue
0.000000

@<SCITEGIC>MOL_PROPERTY
U
SciTegic.value.DoubleValue
24.337

@<SCITEGIC>MOL_PROPERTY
W
SciTegic.value.DoubleValue
-57.862

@<SCITEGIC>MOL_PROPERTY
W(PB)
SciTegic.value.DoubleValue
-59.764

@<SCITEGIC>MOL_PROPERTY
W(SA)
SciTegic.value.DoubleValue
1.901

@<SCITEGIC>MOL_PROPERTY
Valence
SciTegic.value.DoubleValue
3.593

@<SCITEGIC>MOL_PROPERTY
Coulomb
SciTegic.value.DoubleValue
20.067

@<SCITEGIC>MOL_PROPERTY
VdW
SciTegic.value.DoubleValue
0.677

@<SCITEGIC>MOL_PROPERTY
VdW6
SciTegic.value.DoubleValue
-5.466

@<SCITEGIC>MOL_PROPERTY
VdW12
SciTegic.value.DoubleValue
6.144

@<SCITEGIC>MOL_PROPERTY
Bond
SciTegic.value.DoubleValue
0.191

@<SCITEGIC>MOL_PROPERTY
Angle
SciTegic.value.DoubleValue
1.557

@<SCITEGIC>MOL_PROPERTY
Pdih
SciTegic.value.DoubleValue
1.845

@<SCITEGIC>MOL_PROPERTY
Idih
SciTegic.value.DoubleValue
0.000

@<SCITEGIC>MOL_PROPERTY
Tether
SciTegic.value.DoubleValue
0.000

@<TRIPOS>MOLECULE
guest-s10_confgen4.mol2 : confsearch ligand conformer 15
          20          19           1
SMALL
USER_CHARGES
 
@<TRIPOS>ATOM
       1    N1      20.090866   20.890406   23.337695 N.4        1 MOL1        -0.5937
       2    H1      20.068136   21.511595   24.150875 H          1 MOL1         0.3684
       3    H2      19.893117   21.462943   22.512584 H          1 MOL1         0.3684
       4    H3      21.047463   20.540867   23.247189 H          1 MOL1         0.3684
       5    C1      19.104299   19.763090   23.478163 C.3        1 MOL1         0.1270
       6    H4      18.121428   20.232674   23.585298 H          1 MOL1         0.0960
       7    C2      19.371708   18.950423   24.757579 C.3        1 MOL1        -0.2382
       8    H5      18.651614   18.128615   24.855401 H          1 MOL1         0.1009
       9    H6      19.270601   19.587544   25.644675 H          1 MOL1         0.1009
      10    H7      20.382171   18.525037   24.764871 H          1 MOL1         0.1009
      11    C3      19.047559   18.864603   22.219372 C.3        1 MOL1        -0.1392
      12    H8      18.249449   18.122106   22.351486 H          1 MOL1         0.0998
      13    H9      18.744310   19.483486   21.364719 H          1 MOL1         0.0998
      14    C4      20.372278   18.136029   21.874924 C.3        1 MOL1        -0.1302
      15    H10     20.665635   17.471171   22.698282 H          1 MOL1         0.0998
      16    H11     21.184199   18.864719   21.748599 H          1 MOL1         0.0998
      17    C5      20.240221   17.301482   20.582864 C.3        1 MOL1        -0.2317
      18    H12     21.184185   16.790347   20.353215 H          1 MOL1         0.1009
      19    H13     19.985261   17.937829   19.725380 H          1 MOL1         0.1009
      20    H14     19.459577   16.536335   20.684701 H          1 MOL1         0.1009
@<TRIPOS>BOND
    1     1     2    1
    2     1     3    1
    3     1     4    1
    4     1     5    1
    5     5     6    1
    6     5     7    1
    7     7     8    1
    8     7     9    1
    9     7    10    1
   10     5    11    1
   11    11    12    1
   12    11    13    1
   13    11    14    1
   14    14    15    1
   15    14    16    1
   16    14    17    1
   17    17    18    1
   18    17    19    1
   19    17    20    1
@<TRIPOS>SUBSTRUCTURE
       1 MOL1            1 RESIDUE      1      MOL     
@<SCITEGIC>MOL_PROPERTY
VConf Rank
SciTegic.value.IntegerValue
15

@<SCITEGIC>MOL_PROPERTY
Conf_Id
SciTegic.value.IntegerValue
63

@<SCITEGIC>MOL_PROPERTY
Delta U+W
SciTegic.value.DoubleValue
0.420

@<SCITEGIC>MOL_PROPERTY
U+W
SciTegic.value.DoubleValue
-35.856

@<SCITEGIC>MOL_PROPERTY
Grad RMS
SciTegic.value.DoubleValue
0.000000

@<SCITEGIC>MOL_PROPERTY
U
SciTegic.value.DoubleValue
22.625

@<SCITEGIC>MOL_PROPERTY
W
SciTegic.value.DoubleValue
-58.481

@<SCITEGIC>MOL_PROPERTY
W(PB)
SciTegic.value.DoubleValue
-60.400

@<SCITEGIC>MOL_PROPERTY
W(SA)
SciTegic.value.DoubleValue
1.919

@<SCITEGIC>MOL_PROPERTY
Valence
SciTegic.value.DoubleValue
2.404

@<SCITEGIC>MOL_PROPERTY
Coulomb
SciTegic.value.DoubleValue
19.464

@<SCITEGIC>MOL_PROPERTY
VdW
SciTegic.value.DoubleValue
0.757

@<SCITEGIC>MOL_PROPERTY
VdW6
SciTegic.value.DoubleValue
-5.074

@<SCITEGIC>MOL_PROPERTY
VdW12
SciTegic.value.DoubleValue
5.830

@<SCITEGIC>MOL_PROPERTY
Bond
SciTegic.value.DoubleValue
0.172

@<SCITEGIC>MOL_PROPERTY
Angle
SciTegic.value.DoubleValue
1.207

@<SCITEGIC>MOL_PROPERTY
Pdih
SciTegic.value.DoubleValue
1.025

@<SCITEGIC>MOL_PROPERTY
Idih
SciTegic.value.DoubleValue
0.000

@<SCITEGIC>MOL_PROPERTY
Tether
SciTegic.value.DoubleValue
0.000

@<TRIPOS>MOLECULE
guest-s10_confgen4.mol2 : confsearch ligand conformer 16
          20          19           1
SMALL
USER_CHARGES
 
@<TRIPOS>ATOM
       1    N1      21.124117   18.202157   22.079167 N.4        1 MOL1        -0.5937
       2    H1      21.316394   19.122347   21.675243 H          1 MOL1         0.3684
       3    H2      20.862747   17.577633   21.312305 H          1 MOL1         0.3684
       4    H3      22.001303   17.852001   22.473473 H          1 MOL1         0.3684
       5    C1      20.041664   18.277964   23.121628 C.3        1 MOL1         0.1270
       6    H4      20.401028   18.958264   23.899559 H          1 MOL1         0.0960
       7    C2      19.807221   16.900241   23.762275 C.3        1 MOL1        -0.2382
       8    H5      20.735332   16.512339   24.199744 H          1 MOL1         0.1009
       9    H6      19.448344   16.173655   23.022657 H          1 MOL1         0.1009
      10    H7      19.063078   16.965620   24.565767 H          1 MOL1         0.1009
      11    C3      18.717311   18.841972   22.558629 C.3        1 MOL1        -0.1392
      12    H8      18.331462   18.163351   21.786342 H          1 MOL1         0.0998
      13    H9      17.965506   18.854448   23.358979 H          1 MOL1         0.0998
      14    C4      18.835753   20.269105   21.966040 C.3        1 MOL1        -0.1302
      15    H10     17.850080   20.577748   21.590420 H          1 MOL1         0.0998
      16    H11     19.502851   20.264134   21.093388 H          1 MOL1         0.0998
      17    C5      19.329145   21.312924   22.993841 C.3        1 MOL1        -0.2317
      18    H12     18.676826   21.336283   23.876516 H          1 MOL1         0.1009
      19    H13     19.329355   22.317656   22.551595 H          1 MOL1         0.1009
      20    H14     20.351840   21.099294   23.329034 H          1 MOL1         0.1009
@<TRIPOS>BOND
    1     1     2    1
    2     1     3    1
    3     1     4    1
    4     1     5    1
    5     5     6    1
    6     5     7    1
    7     7     8    1
    8     7     9    1
    9     7    10    1
   10     5    11    1
   11    11    12    1
   12    11    13    1
   13    11    14    1
   14    14    15    1
   15    14    16    1
   16    14    17    1
   17    17    18    1
   18    17    19    1
   19    17    20    1
@<TRIPOS>SUBSTRUCTURE
       1 MOL1            1 RESIDUE      1      MOL     
@<SCITEGIC>MOL_PROPERTY
VConf Rank
SciTegic.value.IntegerValue
16

@<SCITEGIC>MOL_PROPERTY
Conf_Id
SciTegic.value.IntegerValue
50

@<SCITEGIC>MOL_PROPERTY
Delta U+W
SciTegic.value.DoubleValue
0.466

@<SCITEGIC>MOL_PROPERTY
U+W
SciTegic.value.DoubleValue
-35.811

@<SCITEGIC>MOL_PROPERTY
Grad RMS
SciTegic.value.DoubleValue
0.000000

@<SCITEGIC>MOL_PROPERTY
U
SciTegic.value.DoubleValue
22.369

@<SCITEGIC>MOL_PROPERTY
W
SciTegic.value.DoubleValue
-58.180

@<SCITEGIC>MOL_PROPERTY
W(PB)
SciTegic.value.DoubleValue
-60.103

@<SCITEGIC>MOL_PROPERTY
W(SA)
SciTegic.value.DoubleValue
1.923

@<SCITEGIC>MOL_PROPERTY
Valence
SciTegic.value.DoubleValue
2.168

@<SCITEGIC>MOL_PROPERTY
Coulomb
SciTegic.value.DoubleValue
19.636

@<SCITEGIC>MOL_PROPERTY
VdW
SciTegic.value.DoubleValue
0.566

@<SCITEGIC>MOL_PROPERTY
VdW6
SciTegic.value.DoubleValue
-5.263

@<SCITEGIC>MOL_PROPERTY
VdW12
SciTegic.value.DoubleValue
5.829

@<SCITEGIC>MOL_PROPERTY
Bond
SciTegic.value.DoubleValue
0.162

@<SCITEGIC>MOL_PROPERTY
Angle
SciTegic.value.DoubleValue
1.066

@<SCITEGIC>MOL_PROPERTY
Pdih
SciTegic.value.DoubleValue
0.939

@<SCITEGIC>MOL_PROPERTY
Idih
SciTegic.value.DoubleValue
0.000

@<SCITEGIC>MOL_PROPERTY
Tether
SciTegic.value.DoubleValue
0.000

@<TRIPOS>MOLECULE
guest-s10_confgen4.mol2 : confsearch ligand conformer 17
          20          19           1
SMALL
USER_CHARGES
 
@<TRIPOS>ATOM
       1    N1      18.125730   19.005628   24.452080 N.4        1 MOL1        -0.5937
       2    H1      18.098270   19.994631   24.714977 H          1 MOL1         0.3684
       3    H2      18.510970   18.487374   25.245727 H          1 MOL1         0.3684
       4    H3      17.157010   18.698525   24.329589 H          1 MOL1         0.3684
       5    C1      18.935305   18.785698   23.202760 C.3        1 MOL1         0.1270
       6    H4      18.452249   19.376981   22.418666 H          1 MOL1         0.0960
       7    C2      18.889236   17.299918   22.799896 C.3        1 MOL1        -0.2382
       8    H5      19.322352   16.664622   23.582504 H          1 MOL1         0.1009
       9    H6      19.443370   17.116379   21.873054 H          1 MOL1         0.1009
      10    H7      17.854193   16.976277   22.635365 H          1 MOL1         0.1009
      11    C3      20.390466   19.291600   23.360243 C.3        1 MOL1        -0.1392
      12    H8      20.443861   19.969899   24.222062 H          1 MOL1         0.0998
      13    H9      21.063043   18.456994   23.599172 H          1 MOL1         0.0998
      14    C4      20.921541   20.068219   22.128738 C.3        1 MOL1        -0.1302
      15    H10     21.924537   20.452279   22.362037 H          1 MOL1         0.0998
      16    H11     20.290860   20.950678   21.951008 H          1 MOL1         0.0998
      17    C5      21.000380   19.226125   20.836106 C.3        1 MOL1        -0.2317
      18    H12     21.589730   18.313387   20.992960 H          1 MOL1         0.1009
      19    H13     21.480562   19.800423   20.033205 H          1 MOL1         0.1009
      20    H14     20.002015   18.940409   20.482180 H          1 MOL1         0.1009
@<TRIPOS>BOND
    1     1     2    1
    2     1     3    1
    3     1     4    1
    4     1     5    1
    5     5     6    1
    6     5     7    1
    7     7     8    1
    8     7     9    1
    9     7    10    1
   10     5    11    1
   11    11    12    1
   12    11    13    1
   13    11    14    1
   14    14    15    1
   15    14    16    1
   16    14    17    1
   17    17    18    1
   18    17    19    1
   19    17    20    1
@<TRIPOS>SUBSTRUCTURE
       1 MOL1            1 RESIDUE      1      MOL     
@<SCITEGIC>MOL_PROPERTY
VConf Rank
SciTegic.value.IntegerValue
17

@<SCITEGIC>MOL_PROPERTY
Conf_Id
SciTegic.value.IntegerValue
3

@<SCITEGIC>MOL_PROPERTY
Delta U+W
SciTegic.value.DoubleValue
3.093

@<SCITEGIC>MOL_PROPERTY
U+W
SciTegic.value.DoubleValue
-33.184

@<SCITEGIC>MOL_PROPERTY
Grad RMS
SciTegic.value.DoubleValue
0.000000

@<SCITEGIC>MOL_PROPERTY
U
SciTegic.value.DoubleValue
25.256

@<SCITEGIC>MOL_PROPERTY
W
SciTegic.value.DoubleValue
-58.439

@<SCITEGIC>MOL_PROPERTY
W(PB)
SciTegic.value.DoubleValue
-60.337

@<SCITEGIC>MOL_PROPERTY
W(SA)
SciTegic.value.DoubleValue
1.898

@<SCITEGIC>MOL_PROPERTY
Valence
SciTegic.value.DoubleValue
4.963

@<SCITEGIC>MOL_PROPERTY
Coulomb
SciTegic.value.DoubleValue
19.511

@<SCITEGIC>MOL_PROPERTY
VdW
SciTegic.value.DoubleValue
0.782

@<SCITEGIC>MOL_PROPERTY
VdW6
SciTegic.value.DoubleValue
-5.429

@<SCITEGIC>MOL_PROPERTY
VdW12
SciTegic.value.DoubleValue
6.211

@<SCITEGIC>MOL_PROPERTY
Bond
SciTegic.value.DoubleValue
0.174

@<SCITEGIC>MOL_PROPERTY
Angle
SciTegic.value.DoubleValue
1.377

@<SCITEGIC>MOL_PROPERTY
Pdih
SciTegic.value.DoubleValue
3.412

@<SCITEGIC>MOL_PROPERTY
Idih
SciTegic.value.DoubleValue
0.000

@<SCITEGIC>MOL_PROPERTY
Tether
SciTegic.value.DoubleValue
0.000

@<TRIPOS>MOLECULE
guest-s10_confgen4.mol2 : confsearch ligand conformer 18
          20          19           1
SMALL
USER_CHARGES
 
@<TRIPOS>ATOM
       1    N1      18.919989   20.357109   21.145767 N.4        1 MOL1        -0.5937
       2    H1      19.024923   20.169362   20.145080 H          1 MOL1         0.3684
       3    H2      19.418375   21.229047   21.343673 H          1 MOL1         0.3684
       4    H3      17.926204   20.525825   21.320723 H          1 MOL1         0.3684
       5    C1      19.441942   19.217910   21.977737 C.3        1 MOL1         0.1270
       6    H4      20.500319   19.111146   21.721738 H          1 MOL1         0.0960
       7    C2      18.718266   17.910064   21.609042 C.3        1 MOL1        -0.2382
       8    H5      19.179828   17.047264   22.103079 H          1 MOL1         0.1009
       9    H6      18.770045   17.730894   20.528139 H          1 MOL1         0.1009
      10    H7      17.660516   17.946494   21.897703 H          1 MOL1         0.1009
      11    C3      19.336925   19.534004   23.488857 C.3        1 MOL1        -0.1392
      12    H8      19.798782   20.512357   23.676045 H          1 MOL1         0.0998
      13    H9      18.279473   19.638766   23.765547 H          1 MOL1         0.0998
      14    C4      20.004149   18.493080   24.423946 C.3        1 MOL1        -0.1302
      15    H10     19.478370   17.530879   24.360710 H          1 MOL1         0.0998
      16    H11     19.889307   18.829705   25.463818 H          1 MOL1         0.0998
      17    C5      21.507154   18.287755   24.127351 C.3        1 MOL1        -0.2317
      18    H12     22.053973   19.238098   24.182080 H          1 MOL1         0.1009
      19    H13     21.666368   17.856668   23.130918 H          1 MOL1         0.1009
      20    H14     21.953398   17.602037   24.859250 H          1 MOL1         0.1009
@<TRIPOS>BOND
    1     1     2    1
    2     1     3    1
    3     1     4    1
    4     1     5    1
    5     5     6    1
    6     5     7    1
    7     7     8    1
    8     7     9    1
    9     7    10    1
   10     5    11    1
   11    11    12    1
   12    11    13    1
   13    11    14    1
   14    14    15    1
   15    14    16    1
   16    14    17    1
   17    17    18    1
   18    17    19    1
   19    17    20    1
@<TRIPOS>SUBSTRUCTURE
       1 MOL1            1 RESIDUE      1      MOL     
@<SCITEGIC>MOL_PROPERTY
VConf Rank
SciTegic.value.IntegerValue
18

@<SCITEGIC>MOL_PROPERTY
Conf_Id
SciTegic.value.IntegerValue
64

@<SCITEGIC>MOL_PROPERTY
Delta U+W
SciTegic.value.DoubleValue
0.544

@<SCITEGIC>MOL_PROPERTY
U+W
SciTegic.value.DoubleValue
-35.732

@<SCITEGIC>MOL_PROPERTY
Grad RMS
SciTegic.value.DoubleValue
0.000000

@<SCITEGIC>MOL_PROPERTY
U
SciTegic.value.DoubleValue
22.800

@<SCITEGIC>MOL_PROPERTY
W
SciTegic.value.DoubleValue
-58.532

@<SCITEGIC>MOL_PROPERTY
W(PB)
SciTegic.value.DoubleValue
-60.437

@<SCITEGIC>MOL_PROPERTY
W(SA)
SciTegic.value.DoubleValue
1.905

@<SCITEGIC>MOL_PROPERTY
Valence
SciTegic.value.DoubleValue
2.662

@<SCITEGIC>MOL_PROPERTY
Coulomb
SciTegic.value.DoubleValue
19.485

@<SCITEGIC>MOL_PROPERTY
VdW
SciTegic.value.DoubleValue
0.653

@<SCITEGIC>MOL_PROPERTY
VdW6
SciTegic.value.DoubleValue
-5.460

@<SCITEGIC>MOL_PROPERTY
VdW12
SciTegic.value.DoubleValue
6.113

@<SCITEGIC>MOL_PROPERTY
Bond
SciTegic.value.DoubleValue
0.174

@<SCITEGIC>MOL_PROPERTY
Angle
SciTegic.value.DoubleValue
1.378

@<SCITEGIC>MOL_PROPERTY
Pdih
SciTegic.value.DoubleValue
1.109

@<SCITEGIC>MOL_PROPERTY
Idih
SciTegic.value.DoubleValue
0.000

@<SCITEGIC>MOL_PROPERTY
Tether
SciTegic.value.DoubleValue
0.000

@<TRIPOS>MOLECULE
guest-s10_confgen4.mol2 : confsearch ligand conformer 19
          20          19           1
SMALL
USER_CHARGES
 
@<TRIPOS>ATOM
       1    N1      20.014219   17.163659   21.548221 N.4        1 MOL1        -0.5937
       2    H1      20.983700   17.391384   21.779566 H          1 MOL1         0.3684
       3    H2      19.978634   16.961765   20.545432 H          1 MOL1         0.3684
       4    H3      19.775928   16.298523   22.040580 H          1 MOL1         0.3684
       5    C1      19.081538   18.285639   21.917136 C.3        1 MOL1         0.1270
       6    H4      18.081466   17.952454   21.622508 H          1 MOL1         0.0960
       7    C2      19.400661   19.552588   21.106750 C.3        1 MOL1        -0.2382
       8    H5      20.440385   19.869280   21.249542 H          1 MOL1         0.1009
       9    H6      18.740286   20.379038   21.396963 H          1 MOL1         0.1009
      10    H7      19.252619   19.369169   20.035577 H          1 MOL1         0.1009
      11    C3      19.040733   18.539952   23.445076 C.3        1 MOL1        -0.1392
      12    H8      18.225824   19.238461   23.676390 H          1 MOL1         0.0998
      13    H9      18.755849   17.595524   23.927131 H          1 MOL1         0.0998
      14    C4      20.361968   19.038382   24.094022 C.3        1 MOL1        -0.1302
      15    H10     21.235059   18.644753   23.557230 H          1 MOL1         0.0998
      16    H11     20.425156   18.625758   25.110748 H          1 MOL1         0.0998
      17    C5      20.454214   20.578594   24.203498 C.3        1 MOL1        -0.2317
      18    H12     20.442811   21.064538   23.221813 H          1 MOL1         0.1009
      19    H13     21.384807   20.871928   24.706405 H          1 MOL1         0.1009
      20    H14     19.618757   20.981556   24.790590 H          1 MOL1         0.1009
@<TRIPOS>BOND
    1     1     2    1
    2     1     3    1
    3     1     4    1
    4     1     5    1
    5     5     6    1
    6     5     7    1
    7     7     8    1
    8     7     9    1
    9     7    10    1
   10     5    11    1
   11    11    12    1
   12    11    13    1
   13    11    14    1
   14    14    15    1
   15    14    16    1
   16    14    17    1
   17    17    18    1
   18    17    19    1
   19    17    20    1
@<TRIPOS>SUBSTRUCTURE
       1 MOL1            1 RESIDUE      1      MOL     
@<SCITEGIC>MOL_PROPERTY
VConf Rank
SciTegic.value.IntegerValue
19

@<SCITEGIC>MOL_PROPERTY
Conf_Id
SciTegic.value.IntegerValue
35

@<SCITEGIC>MOL_PROPERTY
Delta U+W
SciTegic.value.DoubleValue
3.004

@<SCITEGIC>MOL_PROPERTY
U+W
SciTegic.value.DoubleValue
-33.272

@<SCITEGIC>MOL_PROPERTY
Grad RMS
SciTegic.value.DoubleValue
0.000000

@<SCITEGIC>MOL_PROPERTY
U
SciTegic.value.DoubleValue
25.367

@<SCITEGIC>MOL_PROPERTY
W
SciTegic.value.DoubleValue
-58.639

@<SCITEGIC>MOL_PROPERTY
W(PB)
SciTegic.value.DoubleValue
-60.512

@<SCITEGIC>MOL_PROPERTY
W(SA)
SciTegic.value.DoubleValue
1.873

@<SCITEGIC>MOL_PROPERTY
Valence
SciTegic.value.DoubleValue
4.943

@<SCITEGIC>MOL_PROPERTY
Coulomb
SciTegic.value.DoubleValue
19.661

@<SCITEGIC>MOL_PROPERTY
VdW
SciTegic.value.DoubleValue
0.764

@<SCITEGIC>MOL_PROPERTY
VdW6
SciTegic.value.DoubleValue
-5.871

@<SCITEGIC>MOL_PROPERTY
VdW12
SciTegic.value.DoubleValue
6.636

@<SCITEGIC>MOL_PROPERTY
Bond
SciTegic.value.DoubleValue
0.230

@<SCITEGIC>MOL_PROPERTY
Angle
SciTegic.value.DoubleValue
1.857

@<SCITEGIC>MOL_PROPERTY
Pdih
SciTegic.value.DoubleValue
2.855

@<SCITEGIC>MOL_PROPERTY
Idih
SciTegic.value.DoubleValue
0.000

@<SCITEGIC>MOL_PROPERTY
Tether
SciTegic.value.DoubleValue
0.000

@<TRIPOS>MOLECULE
guest-s10_confgen4.mol2 : confsearch ligand conformer 20
          20          19           1
SMALL
USER_CHARGES
 
@<TRIPOS>ATOM
       1    N1      19.287649   17.405086   22.017853 N.4        1 MOL1        -0.5937
       2    H1      19.392989   16.408265   22.224863 H          1 MOL1         0.3684
       3    H2      18.988498   17.483614   21.042187 H          1 MOL1         0.3684
       4    H3      18.528846   17.764171   22.600325 H          1 MOL1         0.3684
       5    C1      20.566206   18.158127   22.264191 C.3        1 MOL1         0.1270
       6    H4      21.297986   17.717078   21.580158 H          1 MOL1         0.0960
       7    C2      21.083667   17.932736   23.695954 C.3        1 MOL1        -0.2382
       8    H5      20.357124   18.266450   24.446331 H          1 MOL1         0.1009
       9    H6      22.022536   18.475869   23.860124 H          1 MOL1         0.1009
      10    H7      21.280658   16.867930   23.870165 H          1 MOL1         0.1009
      11    C3      20.464418   19.662181   21.902564 C.3        1 MOL1        -0.1392
      12    H8      21.486835   20.051555   21.809853 H          1 MOL1         0.0998
      13    H9      20.025053   19.758005   20.901069 H          1 MOL1         0.0998
      14    C4      19.693805   20.582473   22.890397 C.3        1 MOL1        -0.1302
      15    H10     19.755002   21.612537   22.512179 H          1 MOL1         0.0998
      16    H11     20.195636   20.597487   23.867419 H          1 MOL1         0.0998
      17    C5      18.202337   20.222750   23.077601 C.3        1 MOL1        -0.2317
      18    H12     17.693814   20.116306   22.110536 H          1 MOL1         0.1009
      19    H13     17.688229   21.014424   23.638061 H          1 MOL1         0.1009
      20    H14     18.079320   19.294501   23.647240 H          1 MOL1         0.1009
@<TRIPOS>BOND
    1     1     2    1
    2     1     3    1
    3     1     4    1
    4     1     5    1
    5     5     6    1
    6     5     7    1
    7     7     8    1
    8     7     9    1
    9     7    10    1
   10     5    11    1
   11    11    12    1
   12    11    13    1
   13    11    14    1
   14    14    15    1
   15    14    16    1
   16    14    17    1
   17    17    18    1
   18    17    19    1
   19    17    20    1
@<TRIPOS>SUBSTRUCTURE
       1 MOL1            1 RESIDUE      1      MOL     
@<SCITEGIC>MOL_PROPERTY
VConf Rank
SciTegic.value.IntegerValue
20

@<SCITEGIC>MOL_PROPERTY
Conf_Id
SciTegic.value.IntegerValue
55

@<SCITEGIC>MOL_PROPERTY
Delta U+W
SciTegic.value.DoubleValue
2.767

@<SCITEGIC>MOL_PROPERTY
U+W
SciTegic.value.DoubleValue
-33.509

@<SCITEGIC>MOL_PROPERTY
Grad RMS
SciTegic.value.DoubleValue
0.000000

@<SCITEGIC>MOL_PROPERTY
U
SciTegic.value.DoubleValue
24.552

@<SCITEGIC>MOL_PROPERTY
W
SciTegic.value.DoubleValue
-58.061

@<SCITEGIC>MOL_PROPERTY
W(PB)
SciTegic.value.DoubleValue
-59.930

@<SCITEGIC>MOL_PROPERTY
W(SA)
SciTegic.value.DoubleValue
1.869

@<SCITEGIC>MOL_PROPERTY
Valence
SciTegic.value.DoubleValue
3.726

@<SCITEGIC>MOL_PROPERTY
Coulomb
SciTegic.value.DoubleValue
20.219

@<SCITEGIC>MOL_PROPERTY
VdW
SciTegic.value.DoubleValue
0.606

@<SCITEGIC>MOL_PROPERTY
VdW6
SciTegic.value.DoubleValue
-6.395

@<SCITEGIC>MOL_PROPERTY
VdW12
SciTegic.value.DoubleValue
7.001

@<SCITEGIC>MOL_PROPERTY
Bond
SciTegic.value.DoubleValue
0.241

@<SCITEGIC>MOL_PROPERTY
Angle
SciTegic.value.DoubleValue
2.098

@<SCITEGIC>MOL_PROPERTY
Pdih
SciTegic.value.DoubleValue
1.387

@<SCITEGIC>MOL_PROPERTY
Idih
SciTegic.value.DoubleValue
0.000

@<SCITEGIC>MOL_PROPERTY
Tether
SciTegic.value.DoubleValue
0.000

@<TRIPOS>MOLECULE
guest-s10_confgen4.mol2 : confsearch ligand conformer 21
          20          19           1
SMALL
USER_CHARGES
 
@<TRIPOS>ATOM
       1    N1      20.660151   19.558600   21.078887 N.4        1 MOL1        -0.5937
       2    H1      20.882522   18.633906   20.702009 H          1 MOL1         0.3684
       3    H2      21.335289   20.219231   20.684663 H          1 MOL1         0.3684
       4    H3      19.736693   19.820942   20.725358 H          1 MOL1         0.3684
       5    C1      20.697828   19.564539   22.583416 C.3        1 MOL1         0.1270
       6    H4      20.446419   20.581422   22.900638 H          1 MOL1         0.0960
       7    C2      22.112639   19.238701   23.089486 C.3        1 MOL1        -0.2382
       8    H5      22.844118   19.946533   22.680614 H          1 MOL1         0.1009
       9    H6      22.416220   18.225968   22.796220 H          1 MOL1         0.1009
      10    H7      22.160883   19.306288   24.183443 H          1 MOL1         0.1009
      11    C3      19.668395   18.596090   23.206733 C.3        1 MOL1        -0.1392
      12    H8      19.884540   17.568875   22.884202 H          1 MOL1         0.0998
      13    H9      19.783494   18.611747   24.298784 H          1 MOL1         0.0998
      14    C4      18.205461   18.958167   22.854250 C.3        1 MOL1        -0.1302
      15    H10     18.049399   18.894684   21.768874 H          1 MOL1         0.0998
      16    H11     18.001076   19.998331   23.144985 H          1 MOL1         0.0998
      17    C5      17.200767   18.023241   23.561221 C.3        1 MOL1        -0.2317
      18    H12     17.359978   16.977581   23.267108 H          1 MOL1         0.1009
      19    H13     16.169465   18.293134   23.299195 H          1 MOL1         0.1009
      20    H14     17.298670   18.089947   24.652641 H          1 MOL1         0.1009
@<TRIPOS>BOND
    1     1     2    1
    2     1     3    1
    3     1     4    1
    4     1     5    1
    5     5     6    1
    6     5     7    1
    7     7     8    1
    8     7     9    1
    9     7    10    1
   10     5    11    1
   11    11    12    1
   12    11    13    1
   13    11    14    1
   14    14    15    1
   15    14    16    1
   16    14    17    1
   17    17    18    1
   18    17    19    1
   19    17    20    1
@<TRIPOS>SUBSTRUCTURE
       1 MOL1            1 RESIDUE      1      MOL     
@<SCITEGIC>MOL_PROPERTY
VConf Rank
SciTegic.value.IntegerValue
21

@<SCITEGIC>MOL_PROPERTY
Conf_Id
SciTegic.value.IntegerValue
74

@<SCITEGIC>MOL_PROPERTY
Delta U+W
SciTegic.value.DoubleValue
0.000

@<SCITEGIC>MOL_PROPERTY
U+W
SciTegic.value.DoubleValue
-36.276

@<SCITEGIC>MOL_PROPERTY
Grad RMS
SciTegic.value.DoubleValue
0.000000

@<SCITEGIC>MOL_PROPERTY
U
SciTegic.value.DoubleValue
22.080

@<SCITEGIC>MOL_PROPERTY
W
SciTegic.value.DoubleValue
-58.356

@<SCITEGIC>MOL_PROPERTY
W(PB)
SciTegic.value.DoubleValue
-60.289

@<SCITEGIC>MOL_PROPERTY
W(SA)
SciTegic.value.DoubleValue
1.932

@<SCITEGIC>MOL_PROPERTY
Valence
SciTegic.value.DoubleValue
1.885

@<SCITEGIC>MOL_PROPERTY
Coulomb
SciTegic.value.DoubleValue
19.559

@<SCITEGIC>MOL_PROPERTY
VdW
SciTegic.value.DoubleValue
0.637

@<SCITEGIC>MOL_PROPERTY
VdW6
SciTegic.value.DoubleValue
-4.482

@<SCITEGIC>MOL_PROPERTY
VdW12
SciTegic.value.DoubleValue
5.119

@<SCITEGIC>MOL_PROPERTY
Bond
SciTegic.value.DoubleValue
0.136

@<SCITEGIC>MOL_PROPERTY
Angle
SciTegic.value.DoubleValue
0.867

@<SCITEGIC>MOL_PROPERTY
Pdih
SciTegic.value.DoubleValue
0.882

@<SCITEGIC>MOL_PROPERTY
Idih
SciTegic.value.DoubleValue
0.000

@<SCITEGIC>MOL_PROPERTY
Tether
SciTegic.value.DoubleValue
0.000

@<TRIPOS>MOLECULE
guest-s10_confgen4.mol2 : confsearch ligand conformer 22
          20          19           1
SMALL
USER_CHARGES
 
@<TRIPOS>ATOM
       1    N1      18.131057   19.592031   24.362708 N.4        1 MOL1        -0.5937
       2    H1      18.521272   19.179398   25.214367 H          1 MOL1         0.3684
       3    H2      17.360278   18.992600   24.057244 H          1 MOL1         0.3684
       4    H3      17.728393   20.496524   24.622387 H          1 MOL1         0.3684
       5    C1      19.174065   19.741280   23.289243 C.3        1 MOL1         0.1270
       6    H4      19.949257   20.394666   23.701590 H          1 MOL1         0.0960
       7    C2      18.570037   20.426093   22.049493 C.3        1 MOL1        -0.2382
       8    H5      18.073145   21.363106   22.329364 H          1 MOL1         0.1009
       9    H6      17.828976   19.781265   21.561021 H          1 MOL1         0.1009
      10    H7      19.344037   20.677747   21.315451 H          1 MOL1         0.1009
      11    C3      19.821877   18.379752   22.945631 C.3        1 MOL1        -0.1392
      12    H8      20.133690   17.897396   23.881456 H          1 MOL1         0.0998
      13    H9      19.072962   17.718404   22.490006 H          1 MOL1         0.0998
      14    C4      21.054720   18.490639   22.015597 C.3        1 MOL1        -0.1302
      15    H10     21.777182   19.201425   22.440923 H          1 MOL1         0.0998
      16    H11     20.758161   18.886045   21.034981 H          1 MOL1         0.0998
      17    C5      21.741235   17.122507   21.814123 C.3        1 MOL1        -0.2317
      18    H12     22.092609   16.711344   22.769486 H          1 MOL1         0.1009
      19    H13     22.610007   17.218742   21.149997 H          1 MOL1         0.1009
      20    H14     21.051496   16.397274   21.362950 H          1 MOL1         0.1009
@<TRIPOS>BOND
    1     1     2    1
    2     1     3    1
    3     1     4    1
    4     1     5    1
    5     5     6    1
    6     5     7    1
    7     7     8    1
    8     7     9    1
    9     7    10    1
   10     5    11    1
   11    11    12    1
   12    11    13    1
   13    11    14    1
   14    14    15    1
   15    14    16    1
   16    14    17    1
   17    17    18    1
   18    17    19    1
   19    17    20    1
@<TRIPOS>SUBSTRUCTURE
       1 MOL1            1 RESIDUE      1      MOL     
@<SCITEGIC>MOL_PROPERTY
VConf Rank
SciTegic.value.IntegerValue
22

@<SCITEGIC>MOL_PROPERTY
Conf_Id
SciTegic.value.IntegerValue
80

@<SCITEGIC>MOL_PROPERTY
Delta U+W
SciTegic.value.DoubleValue
0.460

@<SCITEGIC>MOL_PROPERTY
U+W
SciTegic.value.DoubleValue
-35.817

@<SCITEGIC>MOL_PROPERTY
Grad RMS
SciTegic.value.DoubleValue
0.000000

@<SCITEGIC>MOL_PROPERTY
U
SciTegic.value.DoubleValue
22.495

@<SCITEGIC>MOL_PROPERTY
W
SciTegic.value.DoubleValue
-58.311

@<SCITEGIC>MOL_PROPERTY
W(PB)
SciTegic.value.DoubleValue
-60.259

@<SCITEGIC>MOL_PROPERTY
W(SA)
SciTegic.value.DoubleValue
1.948

@<SCITEGIC>MOL_PROPERTY
Valence
SciTegic.value.DoubleValue
2.419

@<SCITEGIC>MOL_PROPERTY
Coulomb
SciTegic.value.DoubleValue
19.304

@<SCITEGIC>MOL_PROPERTY
VdW
SciTegic.value.DoubleValue
0.772

@<SCITEGIC>MOL_PROPERTY
VdW6
SciTegic.value.DoubleValue
-4.635

@<SCITEGIC>MOL_PROPERTY
VdW12
SciTegic.value.DoubleValue
5.407

@<SCITEGIC>MOL_PROPERTY
Bond
SciTegic.value.DoubleValue
0.149

@<SCITEGIC>MOL_PROPERTY
Angle
SciTegic.value.DoubleValue
1.142

@<SCITEGIC>MOL_PROPERTY
Pdih
SciTegic.value.DoubleValue
1.129

@<SCITEGIC>MOL_PROPERTY
Idih
SciTegic.value.DoubleValue
0.000

@<SCITEGIC>MOL_PROPERTY
Tether
SciTegic.value.DoubleValue
0.000

@<TRIPOS>MOLECULE
guest-s10_confgen4.mol2 : confsearch ligand conformer 23
          20          19           1
SMALL
USER_CHARGES
 
@<TRIPOS>ATOM
       1    N1      19.860838   19.976404   20.591242 N.4        1 MOL1        -0.5937
       2    H1      20.636801   19.615483   20.029611 H          1 MOL1         0.3684
       3    H2      20.151231   20.881607   20.969352 H          1 MOL1         0.3684
       4    H3      19.080389   20.149996   19.952195 H          1 MOL1         0.3684
       5    C1      19.474228   19.019356   21.685472 C.3        1 MOL1         0.1270
       6    H4      19.175607   18.090923   21.188847 H          1 MOL1         0.0960
       7    C2      18.259759   19.558983   22.460150 C.3        1 MOL1        -0.2382
       8    H5      17.458543   19.850846   21.770212 H          1 MOL1         0.1009
       9    H6      18.528589   20.436468   23.061153 H          1 MOL1         0.1009
      10    H7      17.846758   18.792715   23.125935 H          1 MOL1         0.1009
      11    C3      20.681999   18.706375   22.602352 C.3        1 MOL1        -0.1392
      12    H8      21.504051   18.365490   21.959141 H          1 MOL1         0.0998
      13    H9      21.041345   19.625651   23.083529 H          1 MOL1         0.0998
      14    C4      20.428924   17.606686   23.667377 C.3        1 MOL1        -0.1302
      15    H10     21.345366   17.010334   23.779696 H          1 MOL1         0.0998
      16    H11     19.656054   16.907428   23.318556 H          1 MOL1         0.0998
      17    C5      20.056219   18.171846   25.058319 C.3        1 MOL1        -0.2317
      18    H12     20.857646   18.812571   25.448580 H          1 MOL1         0.1009
      19    H13     19.904522   17.355549   25.776393 H          1 MOL1         0.1009
      20    H14     19.134964   18.764350   25.030537 H          1 MOL1         0.1009
@<TRIPOS>BOND
    1     1     2    1
    2     1     3    1
    3     1     4    1
    4     1     5    1
    5     5     6    1
    6     5     7    1
    7     7     8    1
    8     7     9    1
    9     7    10    1
   10     5    11    1
   11    11    12    1
   12    11    13    1
   13    11    14    1
   14    14    15    1
   15    14    16    1
   16    14    17    1
   17    17    18    1
   18    17    19    1
   19    17    20    1
@<TRIPOS>SUBSTRUCTURE
       1 MOL1            1 RESIDUE      1      MOL     
@<SCITEGIC>MOL_PROPERTY
VConf Rank
SciTegic.value.IntegerValue
23

@<SCITEGIC>MOL_PROPERTY
Conf_Id
SciTegic.value.IntegerValue
52

@<SCITEGIC>MOL_PROPERTY
Delta U+W
SciTegic.value.DoubleValue
2.995

@<SCITEGIC>MOL_PROPERTY
U+W
SciTegic.value.DoubleValue
-33.282

@<SCITEGIC>MOL_PROPERTY
Grad RMS
SciTegic.value.DoubleValue
0.000000

@<SCITEGIC>MOL_PROPERTY
U
SciTegic.value.DoubleValue
25.224

@<SCITEGIC>MOL_PROPERTY
W
SciTegic.value.DoubleValue
-58.506

@<SCITEGIC>MOL_PROPERTY
W(PB)
SciTegic.value.DoubleValue
-60.411

@<SCITEGIC>MOL_PROPERTY
W(SA)
SciTegic.value.DoubleValue
1.905

@<SCITEGIC>MOL_PROPERTY
Valence
SciTegic.value.DoubleValue
4.945

@<SCITEGIC>MOL_PROPERTY
Coulomb
SciTegic.value.DoubleValue
19.467

@<SCITEGIC>MOL_PROPERTY
VdW
SciTegic.value.DoubleValue
0.813

@<SCITEGIC>MOL_PROPERTY
VdW6
SciTegic.value.DoubleValue
-5.458

@<SCITEGIC>MOL_PROPERTY
VdW12
SciTegic.value.DoubleValue
6.270

@<SCITEGIC>MOL_PROPERTY
Bond
SciTegic.value.DoubleValue
0.200

@<SCITEGIC>MOL_PROPERTY
Angle
SciTegic.value.DoubleValue
1.675

@<SCITEGIC>MOL_PROPERTY
Pdih
SciTegic.value.DoubleValue
3.070

@<SCITEGIC>MOL_PROPERTY
Idih
SciTegic.value.DoubleValue
0.000

@<SCITEGIC>MOL_PROPERTY
Tether
SciTegic.value.DoubleValue
0.000

@<TRIPOS>MOLECULE
guest-s10_confgen4.mol2 : confsearch ligand conformer 24
          20          19           1
SMALL
USER_CHARGES
 
@<TRIPOS>ATOM
       1    N1      18.484307   20.010740   22.926966 N.4        1 MOL1        -0.5937
       2    H1      18.894211   20.902466   23.215375 H          1 MOL1         0.3684
       3    H2      17.502418   20.017554   23.215920 H          1 MOL1         0.3684
       4    H3      18.505583   19.980491   21.905389 H          1 MOL1         0.3684
       5    C1      19.227844   18.846854   23.523432 C.3        1 MOL1         0.1270
       6    H4      18.705581   17.936987   23.211792 H          1 MOL1         0.0960
       7    C2      19.178223   18.927835   25.058600 C.3        1 MOL1        -0.2382
       8    H5      19.703763   19.817954   25.426504 H          1 MOL1         0.1009
       9    H6      19.643843   18.044044   25.512205 H          1 MOL1         0.1009
      10    H7      18.140788   18.972721   25.412224 H          1 MOL1         0.1009
      11    C3      20.693363   18.757524   23.035057 C.3        1 MOL1        -0.1392
      12    H8      21.171285   19.743741   23.102439 H          1 MOL1         0.0998
      13    H9      21.251745   18.106523   23.720981 H          1 MOL1         0.0998
      14    C4      20.868892   18.175126   21.607959 C.3        1 MOL1        -0.1302
      15    H10     20.429488   17.168715   21.562174 H          1 MOL1         0.0998
      16    H11     21.944162   18.044113   21.421795 H          1 MOL1         0.0998
      17    C5      20.281669   19.046360   20.474237 C.3        1 MOL1        -0.2317
      18    H12     20.619183   18.675124   19.497735 H          1 MOL1         0.1009
      19    H13     20.607984   20.090847   20.563019 H          1 MOL1         0.1009
      20    H14     19.186060   19.014550   20.465974 H          1 MOL1         0.1009
@<TRIPOS>BOND
    1     1     2    1
    2     1     3    1
    3     1     4    1
    4     1     5    1
    5     5     6    1
    6     5     7    1
    7     7     8    1
    8     7     9    1
    9     7    10    1
   10     5    11    1
   11    11    12    1
   12    11    13    1
   13    11    14    1
   14    14    15    1
   15    14    16    1
   16    14    17    1
   17    17    18    1
   18    17    19    1
   19    17    20    1
@<TRIPOS>SUBSTRUCTURE
       1 MOL1            1 RESIDUE      1      MOL     
@<SCITEGIC>MOL_PROPERTY
VConf Rank
SciTegic.value.IntegerValue
24

@<SCITEGIC>MOL_PROPERTY
Conf_Id
SciTegic.value.IntegerValue
54

@<SCITEGIC>MOL_PROPERTY
Delta U+W
SciTegic.value.DoubleValue
2.752

@<SCITEGIC>MOL_PROPERTY
U+W
SciTegic.value.DoubleValue
-33.525

@<SCITEGIC>MOL_PROPERTY
Grad RMS
SciTegic.value.DoubleValue
0.000000

@<SCITEGIC>MOL_PROPERTY
U
SciTegic.value.DoubleValue
24.337

@<SCITEGIC>MOL_PROPERTY
W
SciTegic.value.DoubleValue
-57.862

@<SCITEGIC>MOL_PROPERTY
W(PB)
SciTegic.value.DoubleValue
-59.764

@<SCITEGIC>MOL_PROPERTY
W(SA)
SciTegic.value.DoubleValue
1.901

@<SCITEGIC>MOL_PROPERTY
Valence
SciTegic.value.DoubleValue
3.593

@<SCITEGIC>MOL_PROPERTY
Coulomb
SciTegic.value.DoubleValue
20.067

@<SCITEGIC>MOL_PROPERTY
VdW
SciTegic.value.DoubleValue
0.677

@<SCITEGIC>MOL_PROPERTY
VdW6
SciTegic.value.DoubleValue
-5.466

@<SCITEGIC>MOL_PROPERTY
VdW12
SciTegic.value.DoubleValue
6.144

@<SCITEGIC>MOL_PROPERTY
Bond
SciTegic.value.DoubleValue
0.191

@<SCITEGIC>MOL_PROPERTY
Angle
SciTegic.value.DoubleValue
1.557

@<SCITEGIC>MOL_PROPERTY
Pdih
SciTegic.value.DoubleValue
1.845

@<SCITEGIC>MOL_PROPERTY
Idih
SciTegic.value.DoubleValue
0.000

@<SCITEGIC>MOL_PROPERTY
Tether
SciTegic.value.DoubleValue
0.000

@<TRIPOS>MOLECULE
guest-s10_confgen4.mol2 : confsearch ligand conformer 25
          20          19           1
SMALL
USER_CHARGES
 
@<TRIPOS>ATOM
       1    N1      18.940131   20.681131   23.485399 N.4        1 MOL1        -0.5937
       2    H1      18.168042   21.054710   24.043943 H          1 MOL1         0.3684
       3    H2      19.218458   21.411879   22.824905 H          1 MOL1         0.3684
       4    H3      19.726994   20.523604   24.119024 H          1 MOL1         0.3684
       5    C1      18.543850   19.415255   22.775184 C.3        1 MOL1         0.1270
       6    H4      17.692180   19.678495   22.140057 H          1 MOL1         0.0960
       7    C2      18.064306   18.347433   23.774502 C.3        1 MOL1        -0.2382
       8    H5      17.778053   17.425680   23.253059 H          1 MOL1         0.1009
       9    H6      17.184941   18.704325   24.324441 H          1 MOL1         0.1009
      10    H7      18.840245   18.100507   24.508660 H          1 MOL1         0.1009
      11    C3      19.660625   18.882476   21.845662 C.3        1 MOL1        -0.1392
      12    H8      19.276021   18.014837   21.293377 H          1 MOL1         0.0998
      13    H9      19.877538   19.648418   21.089561 H          1 MOL1         0.0998
      14    C4      20.977619   18.489282   22.563485 C.3        1 MOL1        -0.1302
      15    H10     20.790113   17.686257   23.288747 H          1 MOL1         0.0998
      16    H11     21.371247   19.344441   23.129101 H          1 MOL1         0.0998
      17    C5      22.049794   18.014196   21.559462 C.3        1 MOL1        -0.2317
      18    H12     22.974757   17.737500   22.081909 H          1 MOL1         0.1009
      19    H13     22.294630   18.805143   20.838574 H          1 MOL1         0.1009
      20    H14     21.704532   17.135733   20.998820 H          1 MOL1         0.1009
@<TRIPOS>BOND
    1     1     2    1
    2     1     3    1
    3     1     4    1
    4     1     5    1
    5     5     6    1
    6     5     7    1
    7     7     8    1
    8     7     9    1
    9     7    10    1
   10     5    11    1
   11    11    12    1
   12    11    13    1
   13    11    14    1
   14    14    15    1
   15    14    16    1
   16    14    17    1
   17    17    18    1
   18    17    19    1
   19    17    20    1
@<TRIPOS>SUBSTRUCTURE
       1 MOL1            1 RESIDUE      1      MOL     
@<SCITEGIC>MOL_PROPERTY
VConf Rank
SciTegic.value.IntegerValue
25

@<SCITEGIC>MOL_PROPERTY
Conf_Id
SciTegic.value.IntegerValue
63

@<SCITEGIC>MOL_PROPERTY
Delta U+W
SciTegic.value.DoubleValue
0.420

@<SCITEGIC>MOL_PROPERTY
U+W
SciTegic.value.DoubleValue
-35.856

@<SCITEGIC>MOL_PROPERTY
Grad RMS
SciTegic.value.DoubleValue
0.000000

@<SCITEGIC>MOL_PROPERTY
U
SciTegic.value.DoubleValue
22.625

@<SCITEGIC>MOL_PROPERTY
W
SciTegic.value.DoubleValue
-58.481

@<SCITEGIC>MOL_PROPERTY
W(PB)
SciTegic.value.DoubleValue
-60.400

@<SCITEGIC>MOL_PROPERTY
W(SA)
SciTegic.value.DoubleValue
1.919

@<SCITEGIC>MOL_PROPERTY
Valence
SciTegic.value.DoubleValue
2.404

@<SCITEGIC>MOL_PROPERTY
Coulomb
SciTegic.value.DoubleValue
19.464

@<SCITEGIC>MOL_PROPERTY
VdW
SciTegic.value.DoubleValue
0.757

@<SCITEGIC>MOL_PROPERTY
VdW6
SciTegic.value.DoubleValue
-5.074

@<SCITEGIC>MOL_PROPERTY
VdW12
SciTegic.value.DoubleValue
5.830

@<SCITEGIC>MOL_PROPERTY
Bond
SciTegic.value.DoubleValue
0.172

@<SCITEGIC>MOL_PROPERTY
Angle
SciTegic.value.DoubleValue
1.207

@<SCITEGIC>MOL_PROPERTY
Pdih
SciTegic.value.DoubleValue
1.025

@<SCITEGIC>MOL_PROPERTY
Idih
SciTegic.value.DoubleValue
0.000

@<SCITEGIC>MOL_PROPERTY
Tether
SciTegic.value.DoubleValue
0.000

@<TRIPOS>MOLECULE
guest-s10_confgen4.mol2 : confsearch ligand conformer 26
          20          19           1
SMALL
USER_CHARGES
 
@<TRIPOS>ATOM
       1    N1      20.043510   17.266230   22.481342 N.4        1 MOL1        -0.5937
       2    H1      20.865865   17.614978   21.982361 H          1 MOL1         0.3684
       3    H2      19.403019   16.876813   21.785249 H          1 MOL1         0.3684
       4    H3      20.352626   16.494447   23.078285 H          1 MOL1         0.3684
       5    C1      19.387955   18.356882   23.284401 C.3        1 MOL1         0.1270
       6    H4      20.134760   18.712649   24.000529 H          1 MOL1         0.0960
       7    C2      18.191615   17.804138   24.076082 C.3        1 MOL1        -0.2382
       8    H5      18.505455   16.981296   24.730050 H          1 MOL1         0.1009
       9    H6      17.410045   17.427681   23.404382 H          1 MOL1         0.1009
      10    H7      17.750682   18.583108   24.710436 H          1 MOL1         0.1009
      11    C3      18.947856   19.552336   22.409082 C.3        1 MOL1        -0.1392
      12    H8      18.184943   19.218398   21.693343 H          1 MOL1         0.0998
      13    H9      18.461953   20.302474   23.047141 H          1 MOL1         0.0998
      14    C4      20.105335   20.233054   21.635284 C.3        1 MOL1        -0.1302
      15    H10     19.693704   21.062370   21.043087 H          1 MOL1         0.0998
      16    H11     20.541627   19.532512   20.910400 H          1 MOL1         0.0998
      17    C5      21.213727   20.781829   22.562473 C.3        1 MOL1        -0.2317
      18    H12     20.800976   21.485647   23.296951 H          1 MOL1         0.1009
      19    H13     21.974188   21.316047   21.978198 H          1 MOL1         0.1009
      20    H14     21.721516   19.976244   23.107523 H          1 MOL1         0.1009
@<TRIPOS>BOND
    1     1     2    1
    2     1     3    1
    3     1     4    1
    4     1     5    1
    5     5     6    1
    6     5     7    1
    7     7     8    1
    8     7     9    1
    9     7    10    1
   10     5    11    1
   11    11    12    1
   12    11    13    1
   13    11    14    1
   14    14    15    1
   15    14    16    1
   16    14    17    1
   17    17    18    1
   18    17    19    1
   19    17    20    1
@<TRIPOS>SUBSTRUCTURE
       1 MOL1            1 RESIDUE      1      MOL     
@<SCITEGIC>MOL_PROPERTY
VConf Rank
SciTegic.value.IntegerValue
26

@<SCITEGIC>MOL_PROPERTY
Conf_Id
SciTegic.value.IntegerValue
50

@<SCITEGIC>MOL_PROPERTY
Delta U+W
SciTegic.value.DoubleValue
0.466

@<SCITEGIC>MOL_PROPERTY
U+W
SciTegic.value.DoubleValue
-35.811

@<SCITEGIC>MOL_PROPERTY
Grad RMS
SciTegic.value.DoubleValue
0.000000

@<SCITEGIC>MOL_PROPERTY
U
SciTegic.value.DoubleValue
22.369

@<SCITEGIC>MOL_PROPERTY
W
SciTegic.value.DoubleValue
-58.180

@<SCITEGIC>MOL_PROPERTY
W(PB)
SciTegic.value.DoubleValue
-60.103

@<SCITEGIC>MOL_PROPERTY
W(SA)
SciTegic.value.DoubleValue
1.923

@<SCITEGIC>MOL_PROPERTY
Valence
SciTegic.value.DoubleValue
2.168

@<SCITEGIC>MOL_PROPERTY
Coulomb
SciTegic.value.DoubleValue
19.636

@<SCITEGIC>MOL_PROPERTY
VdW
SciTegic.value.DoubleValue
0.566

@<SCITEGIC>MOL_PROPERTY
VdW6
SciTegic.value.DoubleValue
-5.263

@<SCITEGIC>MOL_PROPERTY
VdW12
SciTegic.value.DoubleValue
5.829

@<SCITEGIC>MOL_PROPERTY
Bond
SciTegic.value.DoubleValue
0.162

@<SCITEGIC>MOL_PROPERTY
Angle
SciTegic.value.DoubleValue
1.066

@<SCITEGIC>MOL_PROPERTY
Pdih
SciTegic.value.DoubleValue
0.939

@<SCITEGIC>MOL_PROPERTY
Idih
SciTegic.value.DoubleValue
0.000

@<SCITEGIC>MOL_PROPERTY
Tether
SciTegic.value.DoubleValue
0.000

@<TRIPOS>MOLECULE
guest-s10_confgen4.mol2 : confsearch ligand conformer 27
          20          19           1
SMALL
USER_CHARGES
 
@<TRIPOS>ATOM
       1    N1      17.820450   17.702123   22.128215 N.4        1 MOL1        -0.5937
       2    H1      18.188166   16.836577   21.723725 H          1 MOL1         0.3684
       3    H2      17.377223   18.230400   21.372341 H          1 MOL1         0.3684
       4    H3      17.083449   17.438206   22.787695 H          1 MOL1         0.3684
       5    C1      18.901651   18.502915   22.802245 C.3        1 MOL1         0.1270
       6    H4      19.314095   17.859327   23.585473 H          1 MOL1         0.0960
       7    C2      18.295845   19.756219   23.461177 C.3        1 MOL1        -0.2382
       8    H5      17.827864   20.408720   22.713579 H          1 MOL1         0.1009
       9    H6      19.056485   20.341477   23.989086 H          1 MOL1         0.1009
      10    H7      17.528661   19.475223   24.193022 H          1 MOL1         0.1009
      11    C3      20.046526   18.866357   21.824797 C.3        1 MOL1        -0.1392
      12    H8      19.984071   18.217702   20.941044 H          1 MOL1         0.0998
      13    H9      19.919576   19.890428   21.449067 H          1 MOL1         0.0998
      14    C4      21.464165   18.691193   22.425962 C.3        1 MOL1        -0.1302
      15    H10     22.205765   18.895249   21.640899 H          1 MOL1         0.0998
      16    H11     21.611645   17.642309   22.719514 H          1 MOL1         0.0998
      17    C5      21.755806   19.607419   23.634974 C.3        1 MOL1        -0.2317
      18    H12     21.576073   20.661355   23.386088 H          1 MOL1         0.1009
      19    H13     22.804518   19.511075   23.944752 H          1 MOL1         0.1009
      20    H14     21.133648   19.341770   24.498676 H          1 MOL1         0.1009
@<TRIPOS>BOND
    1     1     2    1
    2     1     3    1
    3     1     4    1
    4     1     5    1
    5     5     6    1
    6     5     7    1
    7     7     8    1
    8     7     9    1
    9     7    10    1
   10     5    11    1
   11    11    12    1
   12    11    13    1
   13    11    14    1
   14    14    15    1
   15    14    16    1
   16    14    17    1
   17    17    18    1
   18    17    19    1
   19    17    20    1
@<TRIPOS>SUBSTRUCTURE
       1 MOL1            1 RESIDUE      1      MOL     
@<SCITEGIC>MOL_PROPERTY
VConf Rank
SciTegic.value.IntegerValue
27

@<SCITEGIC>MOL_PROPERTY
Conf_Id
SciTegic.value.IntegerValue
3

@<SCITEGIC>MOL_PROPERTY
Delta U+W
SciTegic.value.DoubleValue
3.093

@<SCITEGIC>MOL_PROPERTY
U+W
SciTegic.value.DoubleValue
-33.184

@<SCITEGIC>MOL_PROPERTY
Grad RMS
SciTegic.value.DoubleValue
0.000000

@<SCITEGIC>MOL_PROPERTY
U
SciTegic.value.DoubleValue
25.256

@<SCITEGIC>MOL_PROPERTY
W
SciTegic.value.DoubleValue
-58.439

@<SCITEGIC>MOL_PROPERTY
W(PB)
SciTegic.value.DoubleValue
-60.337

@<SCITEGIC>MOL_PROPERTY
W(SA)
SciTegic.value.DoubleValue
1.898

@<SCITEGIC>MOL_PROPERTY
Valence
SciTegic.value.DoubleValue
4.963

@<SCITEGIC>MOL_PROPERTY
Coulomb
SciTegic.value.DoubleValue
19.511

@<SCITEGIC>MOL_PROPERTY
VdW
SciTegic.value.DoubleValue
0.782

@<SCITEGIC>MOL_PROPERTY
VdW6
SciTegic.value.DoubleValue
-5.429

@<SCITEGIC>MOL_PROPERTY
VdW12
SciTegic.value.DoubleValue
6.211

@<SCITEGIC>MOL_PROPERTY
Bond
SciTegic.value.DoubleValue
0.174

@<SCITEGIC>MOL_PROPERTY
Angle
SciTegic.value.DoubleValue
1.377

@<SCITEGIC>MOL_PROPERTY
Pdih
SciTegic.value.DoubleValue
3.412

@<SCITEGIC>MOL_PROPERTY
Idih
SciTegic.value.DoubleValue
0.000

@<SCITEGIC>MOL_PROPERTY
Tether
SciTegic.value.DoubleValue
0.000

@<TRIPOS>MOLECULE
guest-s10_confgen4.mol2 : confsearch ligand conformer 28
          20          19           1
SMALL
USER_CHARGES
 
@<TRIPOS>ATOM
       1    N1      21.151090   20.418450   21.848706 N.4        1 MOL1        -0.5937
       2    H1      21.607500   21.158094   22.389309 H          1 MOL1         0.3684
       3    H2      20.603388   20.874897   21.114194 H          1 MOL1         0.3684
       4    H3      21.888764   19.878163   21.389782 H          1 MOL1         0.3684
       5    C1      20.290946   19.547783   22.723048 C.3        1 MOL1         0.1270
       6    H4      19.541131   20.207576   23.169755 H          1 MOL1         0.0960
       7    C2      21.131155   18.929802   23.855413 C.3        1 MOL1        -0.2382
       8    H5      20.497398   18.406732   24.580868 H          1 MOL1         0.1009
       9    H6      21.675376   19.709168   24.402721 H          1 MOL1         0.1009
      10    H7      21.864549   18.215447   23.461311 H          1 MOL1         0.1009
      11    C3      19.555955   18.470320   21.890408 C.3        1 MOL1        -0.1392
      12    H8      19.042151   18.962504   21.054175 H          1 MOL1         0.0998
      13    H9      20.293874   17.794230   21.438618 H          1 MOL1         0.0998
      14    C4      18.515488   17.631813   22.676179 C.3        1 MOL1        -0.1302
      15    H10     19.015785   17.020546   23.439283 H          1 MOL1         0.0998
      16    H11     18.042595   16.920331   21.984799 H          1 MOL1         0.0998
      17    C5      17.415863   18.494619   23.336134 C.3        1 MOL1        -0.2317
      18    H12     16.902745   19.117507   22.591904 H          1 MOL1         0.1009
      19    H13     17.830302   19.154055   24.109082 H          1 MOL1         0.1009
      20    H14     16.662253   17.856430   23.815514 H          1 MOL1         0.1009
@<TRIPOS>BOND
    1     1     2    1
    2     1     3    1
    3     1     4    1
    4     1     5    1
    5     5     6    1
    6     5     7    1
    7     7     8    1
    8     7     9    1
    9     7    10    1
   10     5    11    1
   11    11    12    1
   12    11    13    1
   13    11    14    1
   14    14    15    1
   15    14    16    1
   16    14    17    1
   17    17    18    1
   18    17    19    1
   19    17    20    1
@<TRIPOS>SUBSTRUCTURE
       1 MOL1            1 RESIDUE      1      MOL     
@<SCITEGIC>MOL_PROPERTY
VConf Rank
SciTegic.value.IntegerValue
28

@<SCITEGIC>MOL_PROPERTY
Conf_Id
SciTegic.value.IntegerValue
64

@<SCITEGIC>MOL_PROPERTY
Delta U+W
SciTegic.value.DoubleValue
0.544

@<SCITEGIC>MOL_PROPERTY
U+W
SciTegic.value.DoubleValue
-35.732

@<SCITEGIC>MOL_PROPERTY
Grad RMS
SciTegic.value.DoubleValue
0.000000

@<SCITEGIC>MOL_PROPERTY
U
SciTegic.value.DoubleValue
22.800

@<SCITEGIC>MOL_PROPERTY
W
SciTegic.value.DoubleValue
-58.532

@<SCITEGIC>MOL_PROPERTY
W(PB)
SciTegic.value.DoubleValue
-60.437

@<SCITEGIC>MOL_PROPERTY
W(SA)
SciTegic.value.DoubleValue
1.905

@<SCITEGIC>MOL_PROPERTY
Valence
SciTegic.value.DoubleValue
2.662

@<SCITEGIC>MOL_PROPERTY
Coulomb
SciTegic.value.DoubleValue
19.485

@<SCITEGIC>MOL_PROPERTY
VdW
SciTegic.value.DoubleValue
0.653

@<SCITEGIC>MOL_PROPERTY
VdW6
SciTegic.value.DoubleValue
-5.460

@<SCITEGIC>MOL_PROPERTY
VdW12
SciTegic.value.DoubleValue
6.113

@<SCITEGIC>MOL_PROPERTY
Bond
SciTegic.value.DoubleValue
0.174

@<SCITEGIC>MOL_PROPERTY
Angle
SciTegic.value.DoubleValue
1.378

@<SCITEGIC>MOL_PROPERTY
Pdih
SciTegic.value.DoubleValue
1.109

@<SCITEGIC>MOL_PROPERTY
Idih
SciTegic.value.DoubleValue
0.000

@<SCITEGIC>MOL_PROPERTY
Tether
SciTegic.value.DoubleValue
0.000

@<TRIPOS>MOLECULE
guest-s10_confgen4.mol2 : confsearch ligand conformer 29
          20          19           1
SMALL
USER_CHARGES
 
@<TRIPOS>ATOM
       1    N1      21.179362   20.191827   23.647172 N.4        1 MOL1        -0.5937
       2    H1      20.317293   20.737172   23.715794 H          1 MOL1         0.3684
       3    H2      21.912485   20.820434   23.308060 H          1 MOL1         0.3684
       4    H3      21.438818   19.906645   24.595336 H          1 MOL1         0.3684
       5    C1      21.009216   19.004126   22.738741 C.3        1 MOL1         0.1270
       6    H4      21.979479   18.497851   22.723316 H          1 MOL1         0.0960
       7    C2      20.702874   19.453410   21.300679 C.3        1 MOL1        -0.2382
       8    H5      19.808494   20.085947   21.259554 H          1 MOL1         0.1009
       9    H6      20.549403   18.587580   20.644842 H          1 MOL1         0.1009
      10    H7      21.540148   20.033883   20.894485 H          1 MOL1         0.1009
      11    C3      19.977477   17.986083   23.286503 C.3        1 MOL1        -0.1392
      12    H8      20.018441   17.067444   22.686568 H          1 MOL1         0.0998
      13    H9      20.310323   17.689652   24.289909 H          1 MOL1         0.0998
      14    C4      18.508748   18.483787   23.388251 C.3        1 MOL1        -0.1302
      15    H10     18.473538   19.563582   23.583650 H          1 MOL1         0.0998
      16    H11     18.041491   18.006658   24.261178 H          1 MOL1         0.0998
      17    C5      17.651937   18.139094   22.147360 C.3        1 MOL1        -0.2317
      18    H12     18.030197   18.617727   21.237521 H          1 MOL1         0.1009
      19    H13     16.616777   18.474818   22.291224 H          1 MOL1         0.1009
      20    H14     17.628116   17.055222   21.975033 H          1 MOL1         0.1009
@<TRIPOS>BOND
    1     1     2    1
    2     1     3    1
    3     1     4    1
    4     1     5    1
    5     5     6    1
    6     5     7    1
    7     7     8    1
    8     7     9    1
    9     7    10    1
   10     5    11    1
   11    11    12    1
   12    11    13    1
   13    11    14    1
   14    14    15    1
   15    14    16    1
   16    14    17    1
   17    17    18    1
   18    17    19    1
   19    17    20    1
@<TRIPOS>SUBSTRUCTURE
       1 MOL1            1 RESIDUE      1      MOL     
@<SCITEGIC>MOL_PROPERTY
VConf Rank
SciTegic.value.IntegerValue
29

@<SCITEGIC>MOL_PROPERTY
Conf_Id
SciTegic.value.IntegerValue
35

@<SCITEGIC>MOL_PROPERTY
Delta U+W
SciTegic.value.DoubleValue
3.004

@<SCITEGIC>MOL_PROPERTY
U+W
SciTegic.value.DoubleValue
-33.272

@<SCITEGIC>MOL_PROPERTY
Grad RMS
SciTegic.value.DoubleValue
0.000000

@<SCITEGIC>MOL_PROPERTY
U
SciTegic.value.DoubleValue
25.367

@<SCITEGIC>MOL_PROPERTY
W
SciTegic.value.DoubleValue
-58.639

@<SCITEGIC>MOL_PROPERTY
W(PB)
SciTegic.value.DoubleValue
-60.512

@<SCITEGIC>MOL_PROPERTY
W(SA)
SciTegic.value.DoubleValue
1.873

@<SCITEGIC>MOL_PROPERTY
Valence
SciTegic.value.DoubleValue
4.943

@<SCITEGIC>MOL_PROPERTY
Coulomb
SciTegic.value.DoubleValue
19.661

@<SCITEGIC>MOL_PROPERTY
VdW
SciTegic.value.DoubleValue
0.764

@<SCITEGIC>MOL_PROPERTY
VdW6
SciTegic.value.DoubleValue
-5.871

@<SCITEGIC>MOL_PROPERTY
VdW12
SciTegic.value.DoubleValue
6.636

@<SCITEGIC>MOL_PROPERTY
Bond
SciTegic.value.DoubleValue
0.230

@<SCITEGIC>MOL_PROPERTY
Angle
SciTegic.value.DoubleValue
1.857

@<SCITEGIC>MOL_PROPERTY
Pdih
SciTegic.value.DoubleValue
2.855

@<SCITEGIC>MOL_PROPERTY
Idih
SciTegic.value.DoubleValue
0.000

@<SCITEGIC>MOL_PROPERTY
Tether
SciTegic.value.DoubleValue
0.000

@<TRIPOS>MOLECULE
guest-s10_confgen4.mol2 : confsearch ligand conformer 30
          20          19           1
SMALL
USER_CHARGES
 
@<TRIPOS>ATOM
       1    N1      20.080857   19.498051   21.018163 N.4        1 MOL1        -0.5937
       2    H1      19.678120   19.341148   20.090377 H          1 MOL1         0.3684
       3    H2      21.015869   19.891418   20.881796 H          1 MOL1         0.3684
       4    H3      19.515057   20.208990   21.485531 H          1 MOL1         0.3684
       5    C1      20.129831   18.226905   21.820816 C.3        1 MOL1         0.1270
       6    H4      20.774194   17.549894   21.251273 H          1 MOL1         0.0960
       7    C2      18.742155   17.568014   21.914238 C.3        1 MOL1        -0.2382
       8    H5      18.010996   18.229996   22.393280 H          1 MOL1         0.1009
       9    H6      18.792275   16.635865   22.490439 H          1 MOL1         0.1009
      10    H7      18.366021   17.320856   20.914036 H          1 MOL1         0.1009
      11    C3      20.791125   18.411491   23.210755 C.3        1 MOL1        -0.1392
      12    H8      21.066581   17.415772   23.582523 H          1 MOL1         0.0998
      13    H9      21.740866   18.947385   23.084158 H          1 MOL1         0.0998
      14    C4      19.949561   19.113660   24.313173 C.3        1 MOL1        -0.1302
      15    H10     20.542470   19.122306   25.238489 H          1 MOL1         0.0998
      16    H11     19.053453   18.521550   24.543450 H          1 MOL1         0.0998
      17    C5      19.541550   20.567973   23.985420 C.3        1 MOL1        -0.2317
      18    H12     20.407856   21.162824   23.667921 H          1 MOL1         0.1009
      19    H13     19.113717   21.051596   24.873248 H          1 MOL1         0.1009
      20    H14     18.778055   20.605849   23.199984 H          1 MOL1         0.1009
@<TRIPOS>BOND
    1     1     2    1
    2     1     3    1
    3     1     4    1
    4     1     5    1
    5     5     6    1
    6     5     7    1
    7     7     8    1
    8     7     9    1
    9     7    10    1
   10     5    11    1
   11    11    12    1
   12    11    13    1
   13    11    14    1
   14    14    15    1
   15    14    16    1
   16    14    17    1
   17    17    18    1
   18    17    19    1
   19    17    20    1
@<TRIPOS>SUBSTRUCTURE
       1 MOL1            1 RESIDUE      1      MOL     
@<SCITEGIC>MOL_PROPERTY
VConf Rank
SciTegic.value.IntegerValue
30

@<SCITEGIC>MOL_PROPERTY
Conf_Id
SciTegic.value.IntegerValue
55

@<SCITEGIC>MOL_PROPERTY
Delta U+W
SciTegic.value.DoubleValue
2.767

@<SCITEGIC>MOL_PROPERTY
U+W
SciTegic.value.DoubleValue
-33.509

@<SCITEGIC>MOL_PROPERTY
Grad RMS
SciTegic.value.DoubleValue
0.000000

@<SCITEGIC>MOL_PROPERTY
U
SciTegic.value.DoubleValue
24.552

@<SCITEGIC>MOL_PROPERTY
W
SciTegic.value.DoubleValue
-58.061

@<SCITEGIC>MOL_PROPERTY
W(PB)
SciTegic.value.DoubleValue
-59.930

@<SCITEGIC>MOL_PROPERTY
W(SA)
SciTegic.value.DoubleValue
1.869

@<SCITEGIC>MOL_PROPERTY
Valence
SciTegic.value.DoubleValue
3.726

@<SCITEGIC>MOL_PROPERTY
Coulomb
SciTegic.value.DoubleValue
20.219

@<SCITEGIC>MOL_PROPERTY
VdW
SciTegic.value.DoubleValue
0.606

@<SCITEGIC>MOL_PROPERTY
VdW6
SciTegic.value.DoubleValue
-6.395

@<SCITEGIC>MOL_PROPERTY
VdW12
SciTegic.value.DoubleValue
7.001

@<SCITEGIC>MOL_PROPERTY
Bond
SciTegic.value.DoubleValue
0.241

@<SCITEGIC>MOL_PROPERTY
Angle
SciTegic.value.DoubleValue
2.098

@<SCITEGIC>MOL_PROPERTY
Pdih
SciTegic.value.DoubleValue
1.387

@<SCITEGIC>MOL_PROPERTY
Idih
SciTegic.value.DoubleValue
0.000

@<SCITEGIC>MOL_PROPERTY
Tether
SciTegic.value.DoubleValue
0.000

@<TRIPOS>MOLECULE
guest-s10_confgen4.mol2 : confsearch ligand conformer 31
          20          19           1
SMALL
USER_CHARGES
 
@<TRIPOS>ATOM
       1    N1      18.433970   20.391567   22.395661 N.4        1 MOL1        -0.5937
       2    H1      19.097549   21.118280   22.116204 H          1 MOL1         0.3684
       3    H2      17.595951   20.862438   22.747316 H          1 MOL1         0.3684
       4    H3      18.163597   19.880790   21.551513 H          1 MOL1         0.3684
       5    C1      19.025385   19.473472   23.431224 C.3        1 MOL1         0.1270
       6    H4      18.257606   18.730444   23.668527 H          1 MOL1         0.0960
       7    C2      19.356239   20.250512   24.716025 C.3        1 MOL1        -0.2382
       8    H5      18.462787   20.752146   25.107650 H          1 MOL1         0.1009
       9    H6      20.123640   21.012977   24.532898 H          1 MOL1         0.1009
      10    H7      19.726283   19.574226   25.496630 H          1 MOL1         0.1009
      11    C3      20.276726   18.727405   22.917726 C.3        1 MOL1        -0.1392
      12    H8      21.055951   19.453229   22.649577 H          1 MOL1         0.0998
      13    H9      20.685292   18.117338   23.734402 H          1 MOL1         0.0998
      14    C4      19.980010   17.807826   21.708655 C.3        1 MOL1        -0.1302
      15    H10     19.622436   18.402945   20.857538 H          1 MOL1         0.0998
      16    H11     19.174914   17.105285   21.966527 H          1 MOL1         0.0998
      17    C5      21.231381   17.014200   21.275604 C.3        1 MOL1        -0.2317
      18    H12     22.045474   17.689733   20.982068 H          1 MOL1         0.1009
      19    H13     21.003486   16.369069   20.417143 H          1 MOL1         0.1009
      20    H14     21.595329   16.374044   22.089836 H          1 MOL1         0.1009
@<TRIPOS>BOND
    1     1     2    1
    2     1     3    1
    3     1     4    1
    4     1     5    1
    5     5     6    1
    6     5     7    1
    7     7     8    1
    8     7     9    1
    9     7    10    1
   10     5    11    1
   11    11    12    1
   12    11    13    1
   13    11    14    1
   14    14    15    1
   15    14    16    1
   16    14    17    1
   17    17    18    1
   18    17    19    1
   19    17    20    1
@<TRIPOS>SUBSTRUCTURE
       1 MOL1            1 RESIDUE      1      MOL     
@<SCITEGIC>MOL_PROPERTY
VConf Rank
SciTegic.value.IntegerValue
31

@<SCITEGIC>MOL_PROPERTY
Conf_Id
SciTegic.value.IntegerValue
74

@<SCITEGIC>MOL_PROPERTY
Delta U+W
SciTegic.value.DoubleValue
0.000

@<SCITEGIC>MOL_PROPERTY
U+W
SciTegic.value.DoubleValue
-36.276

@<SCITEGIC>MOL_PROPERTY
Grad RMS
SciTegic.value.DoubleValue
0.000000

@<SCITEGIC>MOL_PROPERTY
U
SciTegic.value.DoubleValue
22.080

@<SCITEGIC>MOL_PROPERTY
W
SciTegic.value.DoubleValue
-58.356

@<SCITEGIC>MOL_PROPERTY
W(PB)
SciTegic.value.DoubleValue
-60.289

@<SCITEGIC>MOL_PROPERTY
W(SA)
SciTegic.value.DoubleValue
1.932

@<SCITEGIC>MOL_PROPERTY
Valence
SciTegic.value.DoubleValue
1.885

@<SCITEGIC>MOL_PROPERTY
Coulomb
SciTegic.value.DoubleValue
19.559

@<SCITEGIC>MOL_PROPERTY
VdW
SciTegic.value.DoubleValue
0.637

@<SCITEGIC>MOL_PROPERTY
VdW6
SciTegic.value.DoubleValue
-4.482

@<SCITEGIC>MOL_PROPERTY
VdW12
SciTegic.value.DoubleValue
5.119

@<SCITEGIC>MOL_PROPERTY
Bond
SciTegic.value.DoubleValue
0.136

@<SCITEGIC>MOL_PROPERTY
Angle
SciTegic.value.DoubleValue
0.867

@<SCITEGIC>MOL_PROPERTY
Pdih
SciTegic.value.DoubleValue
0.882

@<SCITEGIC>MOL_PROPERTY
Idih
SciTegic.value.DoubleValue
0.000

@<SCITEGIC>MOL_PROPERTY
Tether
SciTegic.value.DoubleValue
0.000

@<TRIPOS>MOLECULE
guest-s10_confgen4.mol2 : confsearch ligand conformer 32
          20          19           1
SMALL
USER_CHARGES
 
@<TRIPOS>ATOM
       1    N1      19.353284   17.096898   21.238295 N.4        1 MOL1        -0.5937
       2    H1      18.801537   16.466476   21.826513 H          1 MOL1         0.3684
       3    H2      20.308582   16.731758   21.209930 H          1 MOL1         0.3684
       4    H3      18.974992   17.033016   20.289352 H          1 MOL1         0.3684
       5    C1      19.316791   18.510218   21.751775 C.3        1 MOL1         0.1270
       6    H4      18.265309   18.813844   21.743821 H          1 MOL1         0.0960
       7    C2      20.098846   19.441659   20.807525 C.3        1 MOL1        -0.2382
       8    H5      19.748041   19.327595   19.774496 H          1 MOL1         0.1009
       9    H6      21.172647   19.217838   20.828365 H          1 MOL1         0.1009
      10    H7      19.961548   20.494118   21.080843 H          1 MOL1         0.1009
      11    C3      19.831976   18.589840   23.207705 C.3        1 MOL1        -0.1392
      12    H8      19.310506   17.828546   23.802821 H          1 MOL1         0.0998
      13    H9      20.898535   18.330174   23.237271 H          1 MOL1         0.0998
      14    C4      19.612360   19.969910   23.874292 C.3        1 MOL1        -0.1302
      15    H10     18.555330   20.258815   23.788903 H          1 MOL1         0.0998
      16    H11     20.196530   20.741332   23.355106 H          1 MOL1         0.0998
      17    C5      20.019709   19.954592   25.363424 C.3        1 MOL1        -0.2317
      18    H12     19.426305   19.224147   25.928720 H          1 MOL1         0.1009
      19    H13     19.861177   20.940749   25.818891 H          1 MOL1         0.1009
      20    H14     21.080452   19.696717   25.479971 H          1 MOL1         0.1009
@<TRIPOS>BOND
    1     1     2    1
    2     1     3    1
    3     1     4    1
    4     1     5    1
    5     5     6    1
    6     5     7    1
    7     7     8    1
    8     7     9    1
    9     7    10    1
   10     5    11    1
   11    11    12    1
   12    11    13    1
   13    11    14    1
   14    14    15    1
   15    14    16    1
   16    14    17    1
   17    17    18    1
   18    17    19    1
   19    17    20    1
@<TRIPOS>SUBSTRUCTURE
       1 MOL1            1 RESIDUE      1      MOL     
@<SCITEGIC>MOL_PROPERTY
VConf Rank
SciTegic.value.IntegerValue
32

@<SCITEGIC>MOL_PROPERTY
Conf_Id
SciTegic.value.IntegerValue
80

@<SCITEGIC>MOL_PROPERTY
Delta U+W
SciTegic.value.DoubleValue
0.460

@<SCITEGIC>MOL_PROPERTY
U+W
SciTegic.value.DoubleValue
-35.817

@<SCITEGIC>MOL_PROPERTY
Grad RMS
SciTegic.value.DoubleValue
0.000000

@<SCITEGIC>MOL_PROPERTY
U
SciTegic.value.DoubleValue
22.495

@<SCITEGIC>MOL_PROPERTY
W
SciTegic.value.DoubleValue
-58.311

@<SCITEGIC>MOL_PROPERTY
W(PB)
SciTegic.value.DoubleValue
-60.259

@<SCITEGIC>MOL_PROPERTY
W(SA)
SciTegic.value.DoubleValue
1.948

@<SCITEGIC>MOL_PROPERTY
Valence
SciTegic.value.DoubleValue
2.419

@<SCITEGIC>MOL_PROPERTY
Coulomb
SciTegic.value.DoubleValue
19.304

@<SCITEGIC>MOL_PROPERTY
VdW
SciTegic.value.DoubleValue
0.772

@<SCITEGIC>MOL_PROPERTY
VdW6
SciTegic.value.DoubleValue
-4.635

@<SCITEGIC>MOL_PROPERTY
VdW12
SciTegic.value.DoubleValue
5.407

@<SCITEGIC>MOL_PROPERTY
Bond
SciTegic.value.DoubleValue
0.149

@<SCITEGIC>MOL_PROPERTY
Angle
SciTegic.value.DoubleValue
1.142

@<SCITEGIC>MOL_PROPERTY
Pdih
SciTegic.value.DoubleValue
1.129

@<SCITEGIC>MOL_PROPERTY
Idih
SciTegic.value.DoubleValue
0.000

@<SCITEGIC>MOL_PROPERTY
Tether
SciTegic.value.DoubleValue
0.000

@<TRIPOS>MOLECULE
guest-s10_confgen4.mol2 : confsearch ligand conformer 33
          20          19           1
SMALL
USER_CHARGES
 
@<TRIPOS>ATOM
       1    N1      21.338799   20.677196   22.939996 N.4        1 MOL1        -0.5937
       2    H1      21.038888   21.354741   23.646251 H          1 MOL1         0.3684
       3    H2      21.137300   21.081711   22.022142 H          1 MOL1         0.3684
       4    H3      22.355680   20.590109   23.017353 H          1 MOL1         0.3684
       5    C1      20.657033   19.348383   23.119439 C.3        1 MOL1         0.1270
       6    H4      20.933605   18.994654   24.117529 H          1 MOL1         0.0960
       7    C2      21.185985   18.335343   22.089770 C.3        1 MOL1        -0.2382
       8    H5      22.282727   18.318084   22.091265 H          1 MOL1         0.1009
       9    H6      20.850354   18.585922   21.075859 H          1 MOL1         0.1009
      10    H7      20.848652   17.320371   22.328613 H          1 MOL1         0.1009
      11    C3      19.117127   19.503362   23.074640 C.3        1 MOL1        -0.1392
      12    H8      18.841522   20.267807   23.813123 H          1 MOL1         0.0998
      13    H9      18.804160   19.902843   22.100886 H          1 MOL1         0.0998
      14    C4      18.318654   18.215400   23.408166 C.3        1 MOL1        -0.1302
      15    H10     17.423444   18.496630   23.980553 H          1 MOL1         0.0998
      16    H11     18.905441   17.562389   24.069394 H          1 MOL1         0.0998
      17    C5      17.855773   17.436765   22.154172 C.3        1 MOL1        -0.2317
      18    H12     17.205941   18.058422   21.524587 H          1 MOL1         0.1009
      19    H13     17.283230   16.546384   22.444687 H          1 MOL1         0.1009
      20    H14     18.699517   17.102544   21.540222 H          1 MOL1         0.1009
@<TRIPOS>BOND
    1     1     2    1
    2     1     3    1
    3     1     4    1
    4     1     5    1
    5     5     6    1
    6     5     7    1
    7     7     8    1
    8     7     9    1
    9     7    10    1
   10     5    11    1
   11    11    12    1
   12    11    13    1
   13    11    14    1
   14    14    15    1
   15    14    16    1
   16    14    17    1
   17    17    18    1
   18    17    19    1
   19    17    20    1
@<TRIPOS>SUBSTRUCTURE
       1 MOL1            1 RESIDUE      1      MOL     
@<SCITEGIC>MOL_PROPERTY
VConf Rank
SciTegic.value.IntegerValue
33

@<SCITEGIC>MOL_PROPERTY
Conf_Id
SciTegic.value.IntegerValue
52

@<SCITEGIC>MOL_PROPERTY
Delta U+W
SciTegic.value.DoubleValue
2.995

@<SCITEGIC>MOL_PROPERTY
U+W
SciTegic.value.DoubleValue
-33.282

@<SCITEGIC>MOL_PROPERTY
Grad RMS
SciTegic.value.DoubleValue
0.000000

@<SCITEGIC>MOL_PROPERTY
U
SciTegic.value.DoubleValue
25.224

@<SCITEGIC>MOL_PROPERTY
W
SciTegic.value.DoubleValue
-58.506

@<SCITEGIC>MOL_PROPERTY
W(PB)
SciTegic.value.DoubleValue
-60.411

@<SCITEGIC>MOL_PROPERTY
W(SA)
SciTegic.value.DoubleValue
1.905

@<SCITEGIC>MOL_PROPERTY
Valence
SciTegic.value.DoubleValue
4.945

@<SCITEGIC>MOL_PROPERTY
Coulomb
SciTegic.value.DoubleValue
19.467

@<SCITEGIC>MOL_PROPERTY
VdW
SciTegic.value.DoubleValue
0.813

@<SCITEGIC>MOL_PROPERTY
VdW6
SciTegic.value.DoubleValue
-5.458

@<SCITEGIC>MOL_PROPERTY
VdW12
SciTegic.value.DoubleValue
6.270

@<SCITEGIC>MOL_PROPERTY
Bond
SciTegic.value.DoubleValue
0.200

@<SCITEGIC>MOL_PROPERTY
Angle
SciTegic.value.DoubleValue
1.675

@<SCITEGIC>MOL_PROPERTY
Pdih
SciTegic.value.DoubleValue
3.070

@<SCITEGIC>MOL_PROPERTY
Idih
SciTegic.value.DoubleValue
0.000

@<SCITEGIC>MOL_PROPERTY
Tether
SciTegic.value.DoubleValue
0.000

@<TRIPOS>MOLECULE
guest-s10_confgen4.mol2 : confsearch ligand conformer 34
          20          19           1
SMALL
USER_CHARGES
 
@<TRIPOS>ATOM
       1    N1      19.128471   18.095210   23.926793 N.4        1 MOL1        -0.5937
       2    H1      18.496887   17.448102   23.448537 H          1 MOL1         0.3684
       3    H2      18.840141   18.135184   24.908076 H          1 MOL1         0.3684
       4    H3      20.065177   17.686995   23.896337 H          1 MOL1         0.3684
       5    C1      19.105165   19.457078   23.288027 C.3        1 MOL1         0.1270
       6    H4      19.762719   20.101707   23.879476 H          1 MOL1         0.0960
       7    C2      17.681918   20.037141   23.348474 C.3        1 MOL1        -0.2382
       8    H5      16.982035   19.434626   22.756022 H          1 MOL1         0.1009
       9    H6      17.661157   21.063744   22.962079 H          1 MOL1         0.1009
      10    H7      17.317499   20.066122   24.382734 H          1 MOL1         0.1009
      11    C3      19.620941   19.444256   21.829245 C.3        1 MOL1        -0.1392
      12    H8      19.150413   18.622865   21.272923 H          1 MOL1         0.0998
      13    H9      19.293035   20.367995   21.333999 H          1 MOL1         0.0998
      14    C4      21.163907   19.371840   21.685651 C.3        1 MOL1        -0.1302
      15    H10     21.624499   20.223695   22.205490 H          1 MOL1         0.0998
      16    H11     21.414724   19.495048   20.622666 H          1 MOL1         0.0998
      17    C5      21.801686   18.055920   22.186450 C.3        1 MOL1        -0.2317
      18    H12     22.851191   17.998979   21.869298 H          1 MOL1         0.1009
      19    H13     21.283168   17.179250   21.776686 H          1 MOL1         0.1009
      20    H14     21.795660   17.994512   23.280813 H          1 MOL1         0.1009
@<TRIPOS>BOND
    1     1     2    1
    2     1     3    1
    3     1     4    1
    4     1     5    1
    5     5     6    1
    6     5     7    1
    7     7     8    1
    8     7     9    1
    9     7    10    1
   10     5    11    1
   11    11    12    1
   12    11    13    1
   13    11    14    1
   14    14    15    1
   15    14    16    1
   16    14    17    1
   17    17    18    1
   18    17    19    1
   19    17    20    1
@<TRIPOS>SUBSTRUCTURE
       1 MOL1            1 RESIDUE      1      MOL     
@<SCITEGIC>MOL_PROPERTY
VConf Rank
SciTegic.value.IntegerValue
34

@<SCITEGIC>MOL_PROPERTY
Conf_Id
SciTegic.value.IntegerValue
54

@<SCITEGIC>MOL_PROPERTY
Delta U+W
SciTegic.value.DoubleValue
2.752

@<SCITEGIC>MOL_PROPERTY
U+W
SciTegic.value.DoubleValue
-33.525

@<SCITEGIC>MOL_PROPERTY
Grad RMS
SciTegic.value.DoubleValue
0.000000

@<SCITEGIC>MOL_PROPERTY
U
SciTegic.value.DoubleValue
24.337

@<SCITEGIC>MOL_PROPERTY
W
SciTegic.value.DoubleValue
-57.862

@<SCITEGIC>MOL_PROPERTY
W(PB)
SciTegic.value.DoubleValue
-59.764

@<SCITEGIC>MOL_PROPERTY
W(SA)
SciTegic.value.DoubleValue
1.901

@<SCITEGIC>MOL_PROPERTY
Valence
SciTegic.value.DoubleValue
3.593

@<SCITEGIC>MOL_PROPERTY
Coulomb
SciTegic.value.DoubleValue
20.067

@<SCITEGIC>MOL_PROPERTY
VdW
SciTegic.value.DoubleValue
0.677

@<SCITEGIC>MOL_PROPERTY
VdW6
SciTegic.value.DoubleValue
-5.466

@<SCITEGIC>MOL_PROPERTY
VdW12
SciTegic.value.DoubleValue
6.144

@<SCITEGIC>MOL_PROPERTY
Bond
SciTegic.value.DoubleValue
0.191

@<SCITEGIC>MOL_PROPERTY
Angle
SciTegic.value.DoubleValue
1.557

@<SCITEGIC>MOL_PROPERTY
Pdih
SciTegic.value.DoubleValue
1.845

@<SCITEGIC>MOL_PROPERTY
Idih
SciTegic.value.DoubleValue
0.000

@<SCITEGIC>MOL_PROPERTY
Tether
SciTegic.value.DoubleValue
0.000

@<TRIPOS>MOLECULE
guest-s10_confgen4.mol2 : confsearch ligand conformer 35
          20          19           1
SMALL
USER_CHARGES
 
@<TRIPOS>ATOM
       1    N1      20.365063   19.345957   24.632078 N.4        1 MOL1        -0.5937
       2    H1      20.120002   19.835773   25.496762 H          1 MOL1         0.3684
       3    H2      21.386789   19.307804   24.583803 H          1 MOL1         0.3684
       4    H3      20.025359   18.385449   24.718530 H          1 MOL1         0.3684
       5    C1      19.779461   20.030122   23.426725 C.3        1 MOL1         0.1270
       6    H4      20.184405   21.046997   23.429402 H          1 MOL1         0.0960
       7    C2      18.248707   20.140446   23.542757 C.3        1 MOL1        -0.2382
       8    H5      17.825512   20.638110   22.661446 H          1 MOL1         0.1009
       9    H6      17.972650   20.733465   24.423216 H          1 MOL1         0.1009
      10    H7      17.776776   19.155776   23.641491 H          1 MOL1         0.1009
      11    C3      20.215993   19.367087   22.098238 C.3        1 MOL1        -0.1392
      12    H8      19.830528   19.965252   21.261966 H          1 MOL1         0.0998
      13    H9      21.310295   19.420355   22.027031 H          1 MOL1         0.0998
      14    C4      19.766212   17.893502   21.923345 C.3        1 MOL1        -0.1302
      15    H10     18.670222   17.826082   21.939891 H          1 MOL1         0.0998
      16    H11     20.136017   17.282463   22.757633 H          1 MOL1         0.0998
      17    C5      20.282581   17.297491   20.596143 C.3        1 MOL1        -0.2317
      18    H12     19.954784   16.255688   20.485409 H          1 MOL1         0.1009
      19    H13     21.379630   17.310674   20.557037 H          1 MOL1         0.1009
      20    H14     19.903091   17.862810   19.734967 H          1 MOL1         0.1009
@<TRIPOS>BOND
    1     1     2    1
    2     1     3    1
    3     1     4    1
    4     1     5    1
    5     5     6    1
    6     5     7    1
    7     7     8    1
    8     7     9    1
    9     7    10    1
   10     5    11    1
   11    11    12    1
   12    11    13    1
   13    11    14    1
   14    14    15    1
   15    14    16    1
   16    14    17    1
   17    17    18    1
   18    17    19    1
   19    17    20    1
@<TRIPOS>SUBSTRUCTURE
       1 MOL1            1 RESIDUE      1      MOL     
@<SCITEGIC>MOL_PROPERTY
VConf Rank
SciTegic.value.IntegerValue
35

@<SCITEGIC>MOL_PROPERTY
Conf_Id
SciTegic.value.IntegerValue
63

@<SCITEGIC>MOL_PROPERTY
Delta U+W
SciTegic.value.DoubleValue
0.420

@<SCITEGIC>MOL_PROPERTY
U+W
SciTegic.value.DoubleValue
-35.856

@<SCITEGIC>MOL_PROPERTY
Grad RMS
SciTegic.value.DoubleValue
0.000000

@<SCITEGIC>MOL_PROPERTY
U
SciTegic.value.DoubleValue
22.625

@<SCITEGIC>MOL_PROPERTY
W
SciTegic.value.DoubleValue
-58.481

@<SCITEGIC>MOL_PROPERTY
W(PB)
SciTegic.value.DoubleValue
-60.400

@<SCITEGIC>MOL_PROPERTY
W(SA)
SciTegic.value.DoubleValue
1.919

@<SCITEGIC>MOL_PROPERTY
Valence
SciTegic.value.DoubleValue
2.404

@<SCITEGIC>MOL_PROPERTY
Coulomb
SciTegic.value.DoubleValue
19.464

@<SCITEGIC>MOL_PROPERTY
VdW
SciTegic.value.DoubleValue
0.757

@<SCITEGIC>MOL_PROPERTY
VdW6
SciTegic.value.DoubleValue
-5.074

@<SCITEGIC>MOL_PROPERTY
VdW12
SciTegic.value.DoubleValue
5.830

@<SCITEGIC>MOL_PROPERTY
Bond
SciTegic.value.DoubleValue
0.172

@<SCITEGIC>MOL_PROPERTY
Angle
SciTegic.value.DoubleValue
1.207

@<SCITEGIC>MOL_PROPERTY
Pdih
SciTegic.value.DoubleValue
1.025

@<SCITEGIC>MOL_PROPERTY
Idih
SciTegic.value.DoubleValue
0.000

@<SCITEGIC>MOL_PROPERTY
Tether
SciTegic.value.DoubleValue
0.000

@<TRIPOS>MOLECULE
guest-s10_confgen4.mol2 : confsearch ligand conformer 36
          20          19           1
SMALL
USER_CHARGES
 
@<TRIPOS>ATOM
       1    N1      18.134214   18.865287   23.611633 N.4        1 MOL1        -0.5937
       2    H1      17.902249   18.163629   22.904001 H          1 MOL1         0.3684
       3    H2      17.563013   19.692837   23.423716 H          1 MOL1         0.3684
       4    H3      17.843011   18.492171   24.519117 H          1 MOL1         0.3684
       5    C1      19.602560   19.193719   23.595237 C.3        1 MOL1         0.1270
       6    H4      20.135836   18.261908   23.806127 H          1 MOL1         0.0960
       7    C2      19.945846   20.202420   24.703474 C.3        1 MOL1        -0.2382
       8    H5      19.649744   19.815417   25.686219 H          1 MOL1         0.1009
       9    H6      19.432133   21.158654   24.543880 H          1 MOL1         0.1009
      10    H7      21.025377   20.395575   24.733897 H          1 MOL1         0.1009
      11    C3      20.074757   19.722079   22.221612 C.3        1 MOL1        -0.1392
      12    H8      19.561981   20.667244   21.998994 H          1 MOL1         0.0998
      13    H9      21.145178   19.960398   22.279321 H          1 MOL1         0.0998
      14    C4      19.848276   18.734224   21.049116 C.3        1 MOL1        -0.1302
      15    H10     20.209736   19.199503   20.121342 H          1 MOL1         0.0998
      16    H11     18.773869   18.560610   20.900540 H          1 MOL1         0.0998
      17    C5      20.572568   17.383032   21.246729 C.3        1 MOL1        -0.2317
      18    H12     21.649847   17.531256   21.397331 H          1 MOL1         0.1009
      19    H13     20.443238   16.744627   20.363111 H          1 MOL1         0.1009
      20    H14     20.177925   16.834542   22.111200 H          1 MOL1         0.1009
@<TRIPOS>BOND
    1     1     2    1
    2     1     3    1
    3     1     4    1
    4     1     5    1
    5     5     6    1
    6     5     7    1
    7     7     8    1
    8     7     9    1
    9     7    10    1
   10     5    11    1
   11    11    12    1
   12    11    13    1
   13    11    14    1
   14    14    15    1
   15    14    16    1
   16    14    17    1
   17    17    18    1
   18    17    19    1
   19    17    20    1
@<TRIPOS>SUBSTRUCTURE
       1 MOL1            1 RESIDUE      1      MOL     
@<SCITEGIC>MOL_PROPERTY
VConf Rank
SciTegic.value.IntegerValue
36

@<SCITEGIC>MOL_PROPERTY
Conf_Id
SciTegic.value.IntegerValue
50

@<SCITEGIC>MOL_PROPERTY
Delta U+W
SciTegic.value.DoubleValue
0.466

@<SCITEGIC>MOL_PROPERTY
U+W
SciTegic.value.DoubleValue
-35.811

@<SCITEGIC>MOL_PROPERTY
Grad RMS
SciTegic.value.DoubleValue
0.000000

@<SCITEGIC>MOL_PROPERTY
U
SciTegic.value.DoubleValue
22.369

@<SCITEGIC>MOL_PROPERTY
W
SciTegic.value.DoubleValue
-58.180

@<SCITEGIC>MOL_PROPERTY
W(PB)
SciTegic.value.DoubleValue
-60.103

@<SCITEGIC>MOL_PROPERTY
W(SA)
SciTegic.value.DoubleValue
1.923

@<SCITEGIC>MOL_PROPERTY
Valence
SciTegic.value.DoubleValue
2.168

@<SCITEGIC>MOL_PROPERTY
Coulomb
SciTegic.value.DoubleValue
19.636

@<SCITEGIC>MOL_PROPERTY
VdW
SciTegic.value.DoubleValue
0.566

@<SCITEGIC>MOL_PROPERTY
VdW6
SciTegic.value.DoubleValue
-5.263

@<SCITEGIC>MOL_PROPERTY
VdW12
SciTegic.value.DoubleValue
5.829

@<SCITEGIC>MOL_PROPERTY
Bond
SciTegic.value.DoubleValue
0.162

@<SCITEGIC>MOL_PROPERTY
Angle
SciTegic.value.DoubleValue
1.066

@<SCITEGIC>MOL_PROPERTY
Pdih
SciTegic.value.DoubleValue
0.939

@<SCITEGIC>MOL_PROPERTY
Idih
SciTegic.value.DoubleValue
0.000

@<SCITEGIC>MOL_PROPERTY
Tether
SciTegic.value.DoubleValue
0.000

@<TRIPOS>MOLECULE
guest-s10_confgen4.mol2 : confsearch ligand conformer 37
          20          19           1
SMALL
USER_CHARGES
 
@<TRIPOS>ATOM
       1    N1      21.837721   18.366082   22.080583 N.4        1 MOL1        -0.5937
       2    H1      21.748686   18.158555   21.082083 H          1 MOL1         0.3684
       3    H2      22.090707   17.495034   22.554022 H          1 MOL1         0.3684
       4    H3      22.626433   19.009904   22.186235 H          1 MOL1         0.3684
       5    C1      20.569848   18.951812   22.640939 C.3        1 MOL1         0.1270
       6    H4      20.381720   19.869185   22.074550 H          1 MOL1         0.0960
       7    C2      20.769306   19.318889   24.123314 C.3        1 MOL1        -0.2382
       8    H5      21.007918   18.430834   24.721720 H          1 MOL1         0.1009
       9    H6      19.871157   19.779464   24.548739 H          1 MOL1         0.1009
      10    H7      21.592676   20.034689   24.236541 H          1 MOL1         0.1009
      11    C3      19.359336   18.006485   22.442820 C.3        1 MOL1        -0.1392
      12    H8      19.608819   17.258383   21.678770 H          1 MOL1         0.0998
      13    H9      19.163151   17.436815   23.360971 H          1 MOL1         0.0998
      14    C4      18.069183   18.728123   21.977495 C.3        1 MOL1        -0.1302
      15    H10     17.293206   17.972864   21.789412 H          1 MOL1         0.0998
      16    H11     18.252629   19.223402   21.013583 H          1 MOL1         0.0998
      17    C5      17.522758   19.760646   22.988213 C.3        1 MOL1        -0.2317
      18    H12     17.368900   19.305902   23.975413 H          1 MOL1         0.1009
      19    H13     16.556887   20.156043   22.647927 H          1 MOL1         0.1009
      20    H14     18.204638   20.612935   23.098999 H          1 MOL1         0.1009
@<TRIPOS>BOND
    1     1     2    1
    2     1     3    1
    3     1     4    1
    4     1     5    1
    5     5     6    1
    6     5     7    1
    7     7     8    1
    8     7     9    1
    9     7    10    1
   10     5    11    1
   11    11    12    1
   12    11    13    1
   13    11    14    1
   14    14    15    1
   15    14    16    1
   16    14    17    1
   17    17    18    1
   18    17    19    1
   19    17    20    1
@<TRIPOS>SUBSTRUCTURE
       1 MOL1            1 RESIDUE      1      MOL     
@<SCITEGIC>MOL_PROPERTY
VConf Rank
SciTegic.value.IntegerValue
37

@<SCITEGIC>MOL_PROPERTY
Conf_Id
SciTegic.value.IntegerValue
3

@<SCITEGIC>MOL_PROPERTY
Delta U+W
SciTegic.value.DoubleValue
3.093

@<SCITEGIC>MOL_PROPERTY
U+W
SciTegic.value.DoubleValue
-33.184

@<SCITEGIC>MOL_PROPERTY
Grad RMS
SciTegic.value.DoubleValue
0.000000

@<SCITEGIC>MOL_PROPERTY
U
SciTegic.value.DoubleValue
25.256

@<SCITEGIC>MOL_PROPERTY
W
SciTegic.value.DoubleValue
-58.439

@<SCITEGIC>MOL_PROPERTY
W(PB)
SciTegic.value.DoubleValue
-60.337

@<SCITEGIC>MOL_PROPERTY
W(SA)
SciTegic.value.DoubleValue
1.898

@<SCITEGIC>MOL_PROPERTY
Valence
SciTegic.value.DoubleValue
4.963

@<SCITEGIC>MOL_PROPERTY
Coulomb
SciTegic.value.DoubleValue
19.511

@<SCITEGIC>MOL_PROPERTY
VdW
SciTegic.value.DoubleValue
0.782

@<SCITEGIC>MOL_PROPERTY
VdW6
SciTegic.value.DoubleValue
-5.429

@<SCITEGIC>MOL_PROPERTY
VdW12
SciTegic.value.DoubleValue
6.211

@<SCITEGIC>MOL_PROPERTY
Bond
SciTegic.value.DoubleValue
0.174

@<SCITEGIC>MOL_PROPERTY
Angle
SciTegic.value.DoubleValue
1.377

@<SCITEGIC>MOL_PROPERTY
Pdih
SciTegic.value.DoubleValue
3.412

@<SCITEGIC>MOL_PROPERTY
Idih
SciTegic.value.DoubleValue
0.000

@<SCITEGIC>MOL_PROPERTY
Tether
SciTegic.value.DoubleValue
0.000

@<TRIPOS>MOLECULE
guest-s10_confgen4.mol2 : confsearch ligand conformer 38
          20          19           1
SMALL
USER_CHARGES
 
@<TRIPOS>ATOM
       1    N1      21.846024   19.326002   23.350658 N.4        1 MOL1        -0.5937
       2    H1      22.128169   20.087135   23.974121 H          1 MOL1         0.3684
       3    H2      22.309882   19.483701   22.451883 H          1 MOL1         0.3684
       4    H3      22.221719   18.458219   23.741159 H          1 MOL1         0.3684
       5    C1      20.350776   19.262519   23.200377 C.3        1 MOL1         0.1270
       6    H4      20.043356   20.226439   22.783905 H          1 MOL1         0.0960
       7    C2      19.681117   19.091495   24.576025 C.3        1 MOL1        -0.2382
       8    H5      18.591318   19.183076   24.501957 H          1 MOL1         0.1009
       9    H6      20.025079   19.865895   25.272538 H          1 MOL1         0.1009
      10    H7      19.915158   18.112712   25.012712 H          1 MOL1         0.1009
      11    C3      19.934339   18.149746   22.209042 C.3        1 MOL1        -0.1392
      12    H8      20.502461   18.277821   21.278258 H          1 MOL1         0.0998
      13    H9      20.230092   17.172918   22.614100 H          1 MOL1         0.0998
      14    C4      18.424780   18.116207   21.858027 C.3        1 MOL1        -0.1302
      15    H10     17.832224   17.856793   22.745638 H          1 MOL1         0.0998
      16    H11     18.249815   17.308059   21.134064 H          1 MOL1         0.0998
      17    C5      17.912592   19.445396   21.257969 C.3        1 MOL1        -0.2317
      18    H12     18.492639   19.727137   20.369529 H          1 MOL1         0.1009
      19    H13     17.975225   20.266099   21.983632 H          1 MOL1         0.1009
      20    H14     16.861543   19.351095   20.955609 H          1 MOL1         0.1009
@<TRIPOS>BOND
    1     1     2    1
    2     1     3    1
    3     1     4    1
    4     1     5    1
    5     5     6    1
    6     5     7    1
    7     7     8    1
    8     7     9    1
    9     7    10    1
   10     5    11    1
   11    11    12    1
   12    11    13    1
   13    11    14    1
   14    14    15    1
   15    14    16    1
   16    14    17    1
   17    17    18    1
   18    17    19    1
   19    17    20    1
@<TRIPOS>SUBSTRUCTURE
       1 MOL1            1 RESIDUE      1      MOL     
@<SCITEGIC>MOL_PROPERTY
VConf Rank
SciTegic.value.IntegerValue
38

@<SCITEGIC>MOL_PROPERTY
Conf_Id
SciTegic.value.IntegerValue
64

@<SCITEGIC>MOL_PROPERTY
Delta U+W
SciTegic.value.DoubleValue
0.544

@<SCITEGIC>MOL_PROPERTY
U+W
SciTegic.value.DoubleValue
-35.732

@<SCITEGIC>MOL_PROPERTY
Grad RMS
SciTegic.value.DoubleValue
0.000000

@<SCITEGIC>MOL_PROPERTY
U
SciTegic.value.DoubleValue
22.800

@<SCITEGIC>MOL_PROPERTY
W
SciTegic.value.DoubleValue
-58.532

@<SCITEGIC>MOL_PROPERTY
W(PB)
SciTegic.value.DoubleValue
-60.437

@<SCITEGIC>MOL_PROPERTY
W(SA)
SciTegic.value.DoubleValue
1.905

@<SCITEGIC>MOL_PROPERTY
Valence
SciTegic.value.DoubleValue
2.662

@<SCITEGIC>MOL_PROPERTY
Coulomb
SciTegic.value.DoubleValue
19.485

@<SCITEGIC>MOL_PROPERTY
VdW
SciTegic.value.DoubleValue
0.653

@<SCITEGIC>MOL_PROPERTY
VdW6
SciTegic.value.DoubleValue
-5.460

@<SCITEGIC>MOL_PROPERTY
VdW12
SciTegic.value.DoubleValue
6.113

@<SCITEGIC>MOL_PROPERTY
Bond
SciTegic.value.DoubleValue
0.174

@<SCITEGIC>MOL_PROPERTY
Angle
SciTegic.value.DoubleValue
1.378

@<SCITEGIC>MOL_PROPERTY
Pdih
SciTegic.value.DoubleValue
1.109

@<SCITEGIC>MOL_PROPERTY
Idih
SciTegic.value.DoubleValue
0.000

@<SCITEGIC>MOL_PROPERTY
Tether
SciTegic.value.DoubleValue
0.000

@<TRIPOS>MOLECULE
guest-s10_confgen4.mol2 : confsearch ligand conformer 39
          20          19           1
SMALL
USER_CHARGES
 
@<TRIPOS>ATOM
       1    N1      18.745753   18.286729   20.972213 N.4        1 MOL1        -0.5937
       2    H1      17.989528   18.364055   21.655893 H          1 MOL1         0.3684
       3    H2      18.638452   17.385849   20.498384 H          1 MOL1         0.3684
       4    H3      18.601472   19.017762   20.270476 H          1 MOL1         0.3684
       5    C1      20.095284   18.406661   21.627357 C.3        1 MOL1         0.1270
       6    H4      20.829160   18.300558   20.822290 H          1 MOL1         0.0960
       7    C2      20.328855   17.253071   22.616497 C.3        1 MOL1        -0.2382
       8    H5      19.544611   17.215103   23.381499 H          1 MOL1         0.1009
       9    H6      21.299980   17.356866   23.115977 H          1 MOL1         0.1009
      10    H7      20.327039   16.291006   22.089810 H          1 MOL1         0.1009
      11    C3      20.320337   19.802041   22.262342 C.3        1 MOL1        -0.1392
      12    H8      21.370415   19.897840   22.568376 H          1 MOL1         0.0998
      13    H9      20.182241   20.549086   21.469667 H          1 MOL1         0.0998
      14    C4      19.389462   20.174645   23.449719 C.3        1 MOL1        -0.1302
      15    H10     18.406757   19.697065   23.342074 H          1 MOL1         0.0998
      16    H11     19.201212   21.256938   23.415289 H          1 MOL1         0.0998
      17    C5      19.992824   19.844693   24.835299 C.3        1 MOL1        -0.2317
      18    H12     20.168832   18.771286   24.964895 H          1 MOL1         0.1009
      19    H13     19.313952   20.167005   25.635432 H          1 MOL1         0.1009
      20    H14     20.948449   20.364686   24.981690 H          1 MOL1         0.1009
@<TRIPOS>BOND
    1     1     2    1
    2     1     3    1
    3     1     4    1
    4     1     5    1
    5     5     6    1
    6     5     7    1
    7     7     8    1
    8     7     9    1
    9     7    10    1
   10     5    11    1
   11    11    12    1
   12    11    13    1
   13    11    14    1
   14    14    15    1
   15    14    16    1
   16    14    17    1
   17    17    18    1
   18    17    19    1
   19    17    20    1
@<TRIPOS>SUBSTRUCTURE
       1 MOL1            1 RESIDUE      1      MOL     
@<SCITEGIC>MOL_PROPERTY
VConf Rank
SciTegic.value.IntegerValue
39

@<SCITEGIC>MOL_PROPERTY
Conf_Id
SciTegic.value.IntegerValue
35

@<SCITEGIC>MOL_PROPERTY
Delta U+W
SciTegic.value.DoubleValue
3.004

@<SCITEGIC>MOL_PROPERTY
U+W
SciTegic.value.DoubleValue
-33.272

@<SCITEGIC>MOL_PROPERTY
Grad RMS
SciTegic.value.DoubleValue
0.000000

@<SCITEGIC>MOL_PROPERTY
U
SciTegic.value.DoubleValue
25.367

@<SCITEGIC>MOL_PROPERTY
W
SciTegic.value.DoubleValue
-58.639

@<SCITEGIC>MOL_PROPERTY
W(PB)
SciTegic.value.DoubleValue
-60.512

@<SCITEGIC>MOL_PROPERTY
W(SA)
SciTegic.value.DoubleValue
1.873

@<SCITEGIC>MOL_PROPERTY
Valence
SciTegic.value.DoubleValue
4.943

@<SCITEGIC>MOL_PROPERTY
Coulomb
SciTegic.value.DoubleValue
19.661

@<SCITEGIC>MOL_PROPERTY
VdW
SciTegic.value.DoubleValue
0.764

@<SCITEGIC>MOL_PROPERTY
VdW6
SciTegic.value.DoubleValue
-5.871

@<SCITEGIC>MOL_PROPERTY
VdW12
SciTegic.value.DoubleValue
6.636

@<SCITEGIC>MOL_PROPERTY
Bond
SciTegic.value.DoubleValue
0.230

@<SCITEGIC>MOL_PROPERTY
Angle
SciTegic.value.DoubleValue
1.857

@<SCITEGIC>MOL_PROPERTY
Pdih
SciTegic.value.DoubleValue
2.855

@<SCITEGIC>MOL_PROPERTY
Idih
SciTegic.value.DoubleValue
0.000

@<SCITEGIC>MOL_PROPERTY
Tether
SciTegic.value.DoubleValue
0.000

@<TRIPOS>MOLECULE
guest-s10_confgen4.mol2 : confsearch ligand conformer 40
          20          19           1
SMALL
USER_CHARGES
 
@<TRIPOS>ATOM
       1    N1      20.447487   19.421843   21.098141 N.4        1 MOL1        -0.5937
       2    H1      21.138071   20.067129   20.705330 H          1 MOL1         0.3684
       3    H2      19.830086   19.134348   20.334110 H          1 MOL1         0.3684
       4    H3      20.947139   18.589692   21.417313 H          1 MOL1         0.3684
       5    C1      19.674678   20.057125   22.221371 C.3        1 MOL1         0.1270
       6    H4      19.162115   20.913302   21.771743 H          1 MOL1         0.0960
       7    C2      20.614498   20.605751   23.309608 C.3        1 MOL1        -0.2382
       8    H5      21.234950   19.813810   23.745686 H          1 MOL1         0.1009
       9    H6      20.040982   21.077841   24.116845 H          1 MOL1         0.1009
      10    H7      21.285727   21.365187   22.890472 H          1 MOL1         0.1009
      11    C3      18.575339   19.131021   22.801972 C.3        1 MOL1        -0.1392
      12    H8      17.877785   19.759619   23.371029 H          1 MOL1         0.0998
      13    H9      17.984821   18.717844   21.973847 H          1 MOL1         0.0998
      14    C4      19.036143   17.972639   23.730631 C.3        1 MOL1        -0.1302
      15    H10     18.139401   17.447343   24.088043 H          1 MOL1         0.0998
      16    H11     19.519592   18.375490   24.630975 H          1 MOL1         0.0998
      17    C5      19.967997   16.938641   23.058753 C.3        1 MOL1        -0.2317
      18    H12     19.547960   16.581476   22.109468 H          1 MOL1         0.1009
      19    H13     20.101342   16.066615   23.712174 H          1 MOL1         0.1009
      20    H14     20.964497   17.354830   22.871559 H          1 MOL1         0.1009
@<TRIPOS>BOND
    1     1     2    1
    2     1     3    1
    3     1     4    1
    4     1     5    1
    5     5     6    1
    6     5     7    1
    7     7     8    1
    8     7     9    1
    9     7    10    1
   10     5    11    1
   11    11    12    1
   12    11    13    1
   13    11    14    1
   14    14    15    1
   15    14    16    1
   16    14    17    1
   17    17    18    1
   18    17    19    1
   19    17    20    1
@<TRIPOS>SUBSTRUCTURE
       1 MOL1            1 RESIDUE      1      MOL     
@<SCITEGIC>MOL_PROPERTY
VConf Rank
SciTegic.value.IntegerValue
40

@<SCITEGIC>MOL_PROPERTY
Conf_Id
SciTegic.value.IntegerValue
55

@<SCITEGIC>MOL_PROPERTY
Delta U+W
SciTegic.value.DoubleValue
2.767

@<SCITEGIC>MOL_PROPERTY
U+W
SciTegic.value.DoubleValue
-33.509

@<SCITEGIC>MOL_PROPERTY
Grad RMS
SciTegic.value.DoubleValue
0.000000

@<SCITEGIC>MOL_PROPERTY
U
SciTegic.value.DoubleValue
24.552

@<SCITEGIC>MOL_PROPERTY
W
SciTegic.value.DoubleValue
-58.061

@<SCITEGIC>MOL_PROPERTY
W(PB)
SciTegic.value.DoubleValue
-59.930

@<SCITEGIC>MOL_PROPERTY
W(SA)
SciTegic.value.DoubleValue
1.869

@<SCITEGIC>MOL_PROPERTY
Valence
SciTegic.value.DoubleValue
3.726

@<SCITEGIC>MOL_PROPERTY
Coulomb
SciTegic.value.DoubleValue
20.219

@<SCITEGIC>MOL_PROPERTY
VdW
SciTegic.value.DoubleValue
0.606

@<SCITEGIC>MOL_PROPERTY
VdW6
SciTegic.value.DoubleValue
-6.395

@<SCITEGIC>MOL_PROPERTY
VdW12
SciTegic.value.DoubleValue
7.001

@<SCITEGIC>MOL_PROPERTY
Bond
SciTegic.value.DoubleValue
0.241

@<SCITEGIC>MOL_PROPERTY
Angle
SciTegic.value.DoubleValue
2.098

@<SCITEGIC>MOL_PROPERTY
Pdih
SciTegic.value.DoubleValue
1.387

@<SCITEGIC>MOL_PROPERTY
Idih
SciTegic.value.DoubleValue
0.000

@<SCITEGIC>MOL_PROPERTY
Tether
SciTegic.value.DoubleValue
0.000

@<TRIPOS>MOLECULE
guest-s10_confgen4.mol2 : confsearch ligand conformer 41
          20          19           1
SMALL
USER_CHARGES
 
@<TRIPOS>ATOM
       1    N1      20.973302   20.167627   23.672445 N.4        1 MOL1        -0.5937
       2    H1      20.335315   20.438674   24.424809 H          1 MOL1         0.3684
       3    H2      21.664666   20.915969   23.574179 H          1 MOL1         0.3684
       4    H3      21.473915   19.330269   23.980341 H          1 MOL1         0.3684
       5    C1      20.234997   19.927080   22.383219 C.3        1 MOL1         0.1270
       6    H4      20.985114   19.640206   21.639637 H          1 MOL1         0.0960
       7    C2      19.551248   21.217944   21.903501 C.3        1 MOL1        -0.2382
       8    H5      20.284487   22.025222   21.785489 H          1 MOL1         0.1009
       9    H6      18.787285   21.551740   22.616757 H          1 MOL1         0.1009
      10    H7      19.066831   21.064691   20.931137 H          1 MOL1         0.1009
      11    C3      19.203491   18.782642   22.494598 C.3        1 MOL1        -0.1392
      12    H8      18.450880   19.035654   23.253201 H          1 MOL1         0.0998
      13    H9      18.667883   18.694481   21.539916 H          1 MOL1         0.0998
      14    C4      19.848301   17.416812   22.832606 C.3        1 MOL1        -0.1302
      15    H10     20.343744   17.462608   23.811822 H          1 MOL1         0.0998
      16    H11     20.626451   17.181462   22.092785 H          1 MOL1         0.0998
      17    C5      18.801971   16.281861   22.852204 C.3        1 MOL1        -0.2317
      18    H12     18.025632   16.473343   23.604460 H          1 MOL1         0.1009
      19    H13     19.275842   15.321781   23.094644 H          1 MOL1         0.1009
      20    H14     18.312652   16.177858   21.874972 H          1 MOL1         0.1009
@<TRIPOS>BOND
    1     1     2    1
    2     1     3    1
    3     1     4    1
    4     1     5    1
    5     5     6    1
    6     5     7    1
    7     7     8    1
    8     7     9    1
    9     7    10    1
   10     5    11    1
   11    11    12    1
   12    11    13    1
   13    11    14    1
   14    14    15    1
   15    14    16    1
   16    14    17    1
   17    17    18    1
   18    17    19    1
   19    17    20    1
@<TRIPOS>SUBSTRUCTURE
       1 MOL1            1 RESIDUE      1      MOL     
@<SCITEGIC>MOL_PROPERTY
VConf Rank
SciTegic.value.IntegerValue
41

@<SCITEGIC>MOL_PROPERTY
Conf_Id
SciTegic.value.IntegerValue
74

@<SCITEGIC>MOL_PROPERTY
Delta U+W
SciTegic.value.DoubleValue
0.000

@<SCITEGIC>MOL_PROPERTY
U+W
SciTegic.value.DoubleValue
-36.276

@<SCITEGIC>MOL_PROPERTY
Grad RMS
SciTegic.value.DoubleValue
0.000000

@<SCITEGIC>MOL_PROPERTY
U
SciTegic.value.DoubleValue
22.080

@<SCITEGIC>MOL_PROPERTY
W
SciTegic.value.DoubleValue
-58.356

@<SCITEGIC>MOL_PROPERTY
W(PB)
SciTegic.value.DoubleValue
-60.289

@<SCITEGIC>MOL_PROPERTY
W(SA)
SciTegic.value.DoubleValue
1.932

@<SCITEGIC>MOL_PROPERTY
Valence
SciTegic.value.DoubleValue
1.885

@<SCITEGIC>MOL_PROPERTY
Coulomb
SciTegic.value.DoubleValue
19.559

@<SCITEGIC>MOL_PROPERTY
VdW
SciTegic.value.DoubleValue
0.637

@<SCITEGIC>MOL_PROPERTY
VdW6
SciTegic.value.DoubleValue
-4.482

@<SCITEGIC>MOL_PROPERTY
VdW12
SciTegic.value.DoubleValue
5.119

@<SCITEGIC>MOL_PROPERTY
Bond
SciTegic.value.DoubleValue
0.136

@<SCITEGIC>MOL_PROPERTY
Angle
SciTegic.value.DoubleValue
0.867

@<SCITEGIC>MOL_PROPERTY
Pdih
SciTegic.value.DoubleValue
0.882

@<SCITEGIC>MOL_PROPERTY
Idih
SciTegic.value.DoubleValue
0.000

@<SCITEGIC>MOL_PROPERTY
Tether
SciTegic.value.DoubleValue
0.000

@<TRIPOS>MOLECULE
guest-s10_confgen4.mol2 : confsearch ligand conformer 42
          20          19           1
SMALL
USER_CHARGES
 
@<TRIPOS>ATOM
       1    N1      19.573981   20.966612   21.472449 N.4        1 MOL1        -0.5937
       2    H1      18.873117   21.484590   22.009427 H          1 MOL1         0.3684
       3    H2      19.107485   20.588960   20.643903 H          1 MOL1         0.3684
       4    H3      20.268033   21.645295   21.147857 H          1 MOL1         0.3684
       5    C1      20.209861   19.878158   22.293053 C.3        1 MOL1         0.1270
       6    H4      20.682089   20.372605   23.147681 H          1 MOL1         0.0960
       7    C2      21.304628   19.165457   21.477981 C.3        1 MOL1        -0.2382
       8    H5      22.014507   19.892918   21.065557 H          1 MOL1         0.1009
       9    H6      20.873305   18.600324   20.642418 H          1 MOL1         0.1009
      10    H7      21.879277   18.471627   22.102161 H          1 MOL1         0.1009
      11    C3      19.148242   18.891050   22.831635 C.3        1 MOL1        -0.1392
      12    H8      18.344873   19.469833   23.306264 H          1 MOL1         0.0998
      13    H9      18.687990   18.349864   21.994297 H          1 MOL1         0.0998
      14    C4      19.701742   17.879800   23.865159 C.3        1 MOL1        -0.1302
      15    H10     20.217847   18.419199   24.671852 H          1 MOL1         0.0998
      16    H11     20.445112   17.222402   23.394915 H          1 MOL1         0.0998
      17    C5      18.578308   17.009669   24.468856 C.3        1 MOL1        -0.2317
      18    H12     17.834127   17.627942   24.987673 H          1 MOL1         0.1009
      19    H13     18.988405   16.296710   25.195903 H          1 MOL1         0.1009
      20    H14     18.061529   16.435224   23.688977 H          1 MOL1         0.1009
@<TRIPOS>BOND
    1     1     2    1
    2     1     3    1
    3     1     4    1
    4     1     5    1
    5     5     6    1
    6     5     7    1
    7     7     8    1
    8     7     9    1
    9     7    10    1
   10     5    11    1
   11    11    12    1
   12    11    13    1
   13    11    14    1
   14    14    15    1
   15    14    16    1
   16    14    17    1
   17    17    18    1
   18    17    19    1
   19    17    20    1
@<TRIPOS>SUBSTRUCTURE
       1 MOL1            1 RESIDUE      1      MOL     
@<SCITEGIC>MOL_PROPERTY
VConf Rank
SciTegic.value.IntegerValue
42

@<SCITEGIC>MOL_PROPERTY
Conf_Id
SciTegic.value.IntegerValue
80

@<SCITEGIC>MOL_PROPERTY
Delta U+W
SciTegic.value.DoubleValue
0.460

@<SCITEGIC>MOL_PROPERTY
U+W
SciTegic.value.DoubleValue
-35.817

@<SCITEGIC>MOL_PROPERTY
Grad RMS
SciTegic.value.DoubleValue
0.000000

@<SCITEGIC>MOL_PROPERTY
U
SciTegic.value.DoubleValue
22.495

@<SCITEGIC>MOL_PROPERTY
W
SciTegic.value.DoubleValue
-58.311

@<SCITEGIC>MOL_PROPERTY
W(PB)
SciTegic.value.DoubleValue
-60.259

@<SCITEGIC>MOL_PROPERTY
W(SA)
SciTegic.value.DoubleValue
1.948

@<SCITEGIC>MOL_PROPERTY
Valence
SciTegic.value.DoubleValue
2.419

@<SCITEGIC>MOL_PROPERTY
Coulomb
SciTegic.value.DoubleValue
19.304

@<SCITEGIC>MOL_PROPERTY
VdW
SciTegic.value.DoubleValue
0.772

@<SCITEGIC>MOL_PROPERTY
VdW6
SciTegic.value.DoubleValue
-4.635

@<SCITEGIC>MOL_PROPERTY
VdW12
SciTegic.value.DoubleValue
5.407

@<SCITEGIC>MOL_PROPERTY
Bond
SciTegic.value.DoubleValue
0.149

@<SCITEGIC>MOL_PROPERTY
Angle
SciTegic.value.DoubleValue
1.142

@<SCITEGIC>MOL_PROPERTY
Pdih
SciTegic.value.DoubleValue
1.129

@<SCITEGIC>MOL_PROPERTY
Idih
SciTegic.value.DoubleValue
0.000

@<SCITEGIC>MOL_PROPERTY
Tether
SciTegic.value.DoubleValue
0.000

@<TRIPOS>MOLECULE
guest-s10_confgen4.mol2 : confsearch ligand conformer 43
          20          19           1
SMALL
USER_CHARGES
 
@<TRIPOS>ATOM
       1    N1      18.972651   20.720109   24.065648 N.4        1 MOL1        -0.5937
       2    H1      19.710162   21.415837   24.206545 H          1 MOL1         0.3684
       3    H2      18.897224   20.174523   24.927817 H          1 MOL1         0.3684
       4    H3      18.093158   21.230981   23.951118 H          1 MOL1         0.3684
       5    C1      19.257273   19.840698   22.878898 C.3        1 MOL1         0.1270
       6    H4      19.313944   20.505761   22.011557 H          1 MOL1         0.0960
       7    C2      18.094957   18.858723   22.653060 C.3        1 MOL1        -0.2382
       8    H5      17.135616   19.390347   22.639538 H          1 MOL1         0.1009
       9    H6      18.053834   18.101280   23.445552 H          1 MOL1         0.1009
      10    H7      18.193322   18.349377   21.687711 H          1 MOL1         0.1009
      11    C3      20.624656   19.130040   23.029114 C.3        1 MOL1        -0.1392
      12    H8      21.378780   19.904484   23.222058 H          1 MOL1         0.0998
      13    H9      20.622510   18.487458   23.919514 H          1 MOL1         0.0998
      14    C4      21.084180   18.323153   21.785967 C.3        1 MOL1        -0.1302
      15    H10     22.173001   18.430976   21.681268 H          1 MOL1         0.0998
      16    H11     20.650364   18.750643   20.871078 H          1 MOL1         0.0998
      17    C5      20.763026   16.812836   21.879976 C.3        1 MOL1        -0.2317
      18    H12     21.255400   16.360944   22.750883 H          1 MOL1         0.1009
      19    H13     21.122549   16.287432   20.985730 H          1 MOL1         0.1009
      20    H14     19.687228   16.623456   21.965618 H          1 MOL1         0.1009
@<TRIPOS>BOND
    1     1     2    1
    2     1     3    1
    3     1     4    1
    4     1     5    1
    5     5     6    1
    6     5     7    1
    7     7     8    1
    8     7     9    1
    9     7    10    1
   10     5    11    1
   11    11    12    1
   12    11    13    1
   13    11    14    1
   14    14    15    1
   15    14    16    1
   16    14    17    1
   17    17    18    1
   18    17    19    1
   19    17    20    1
@<TRIPOS>SUBSTRUCTURE
       1 MOL1            1 RESIDUE      1      MOL     
@<SCITEGIC>MOL_PROPERTY
VConf Rank
SciTegic.value.IntegerValue
43

@<SCITEGIC>MOL_PROPERTY
Conf_Id
SciTegic.value.IntegerValue
52

@<SCITEGIC>MOL_PROPERTY
Delta U+W
SciTegic.value.DoubleValue
2.995

@<SCITEGIC>MOL_PROPERTY
U+W
SciTegic.value.DoubleValue
-33.282

@<SCITEGIC>MOL_PROPERTY
Grad RMS
SciTegic.value.DoubleValue
0.000000

@<SCITEGIC>MOL_PROPERTY
U
SciTegic.value.DoubleValue
25.224

@<SCITEGIC>MOL_PROPERTY
W
SciTegic.value.DoubleValue
-58.506

@<SCITEGIC>MOL_PROPERTY
W(PB)
SciTegic.value.DoubleValue
-60.411

@<SCITEGIC>MOL_PROPERTY
W(SA)
SciTegic.value.DoubleValue
1.905

@<SCITEGIC>MOL_PROPERTY
Valence
SciTegic.value.DoubleValue
4.945

@<SCITEGIC>MOL_PROPERTY
Coulomb
SciTegic.value.DoubleValue
19.467

@<SCITEGIC>MOL_PROPERTY
VdW
SciTegic.value.DoubleValue
0.813

@<SCITEGIC>MOL_PROPERTY
VdW6
SciTegic.value.DoubleValue
-5.458

@<SCITEGIC>MOL_PROPERTY
VdW12
SciTegic.value.DoubleValue
6.270

@<SCITEGIC>MOL_PROPERTY
Bond
SciTegic.value.DoubleValue
0.200

@<SCITEGIC>MOL_PROPERTY
Angle
SciTegic.value.DoubleValue
1.675

@<SCITEGIC>MOL_PROPERTY
Pdih
SciTegic.value.DoubleValue
3.070

@<SCITEGIC>MOL_PROPERTY
Idih
SciTegic.value.DoubleValue
0.000

@<SCITEGIC>MOL_PROPERTY
Tether
SciTegic.value.DoubleValue
0.000

@<TRIPOS>MOLECULE
guest-s10_confgen4.mol2 : confsearch ligand conformer 44
          20          19           1
SMALL
USER_CHARGES
 
@<TRIPOS>ATOM
       1    N1      19.537664   20.050155   21.512189 N.4        1 MOL1        -0.5937
       2    H1      20.347988   20.673155   21.552482 H          1 MOL1         0.3684
       3    H2      18.804322   20.535365   20.988331 H          1 MOL1         0.3684
       4    H3      19.811143   19.227233   20.970900 H          1 MOL1         0.3684
       5    C1      19.071204   19.667164   22.890225 C.3        1 MOL1         0.1270
       6    H4      18.179361   19.044900   22.767184 H          1 MOL1         0.0960
       7    C2      18.672867   20.928448   23.675241 C.3        1 MOL1        -0.2382
       8    H5      19.537881   21.582788   23.840916 H          1 MOL1         0.1009
       9    H6      18.252062   20.663864   24.653282 H          1 MOL1         0.1009
      10    H7      17.910756   21.500243   23.131575 H          1 MOL1         0.1009
      11    C3      20.126871   18.853538   23.676237 C.3        1 MOL1        -0.1392
      12    H8      21.108521   19.339071   23.597542 H          1 MOL1         0.0998
      13    H9      19.865000   18.878309   24.742490 H          1 MOL1         0.0998
      14    C4      20.234617   17.361098   23.266821 C.3        1 MOL1        -0.1302
      15    H10     19.258978   16.871078   23.393490 H          1 MOL1         0.0998
      16    H11     20.916873   16.862037   23.969310 H          1 MOL1         0.0998
      17    C5      20.751617   17.117358   21.830677 C.3        1 MOL1        -0.2317
      18    H12     20.990009   16.055086   21.689127 H          1 MOL1         0.1009
      19    H13     21.665821   17.691930   21.632145 H          1 MOL1         0.1009
      20    H14     19.996836   17.377448   21.079612 H          1 MOL1         0.1009
@<TRIPOS>BOND
    1     1     2    1
    2     1     3    1
    3     1     4    1
    4     1     5    1
    5     5     6    1
    6     5     7    1
    7     7     8    1
    8     7     9    1
    9     7    10    1
   10     5    11    1
   11    11    12    1
   12    11    13    1
   13    11    14    1
   14    14    15    1
   15    14    16    1
   16    14    17    1
   17    17    18    1
   18    17    19    1
   19    17    20    1
@<TRIPOS>SUBSTRUCTURE
       1 MOL1            1 RESIDUE      1      MOL     
@<SCITEGIC>MOL_PROPERTY
VConf Rank
SciTegic.value.IntegerValue
44

@<SCITEGIC>MOL_PROPERTY
Conf_Id
SciTegic.value.IntegerValue
54

@<SCITEGIC>MOL_PROPERTY
Delta U+W
SciTegic.value.DoubleValue
2.752

@<SCITEGIC>MOL_PROPERTY
U+W
SciTegic.value.DoubleValue
-33.525

@<SCITEGIC>MOL_PROPERTY
Grad RMS
SciTegic.value.DoubleValue
0.000000

@<SCITEGIC>MOL_PROPERTY
U
SciTegic.value.DoubleValue
24.337

@<SCITEGIC>MOL_PROPERTY
W
SciTegic.value.DoubleValue
-57.862

@<SCITEGIC>MOL_PROPERTY
W(PB)
SciTegic.value.DoubleValue
-59.764

@<SCITEGIC>MOL_PROPERTY
W(SA)
SciTegic.value.DoubleValue
1.901

@<SCITEGIC>MOL_PROPERTY
Valence
SciTegic.value.DoubleValue
3.593

@<SCITEGIC>MOL_PROPERTY
Coulomb
SciTegic.value.DoubleValue
20.067

@<SCITEGIC>MOL_PROPERTY
VdW
SciTegic.value.DoubleValue
0.677

@<SCITEGIC>MOL_PROPERTY
VdW6
SciTegic.value.DoubleValue
-5.466

@<SCITEGIC>MOL_PROPERTY
VdW12
SciTegic.value.DoubleValue
6.144

@<SCITEGIC>MOL_PROPERTY
Bond
SciTegic.value.DoubleValue
0.191

@<SCITEGIC>MOL_PROPERTY
Angle
SciTegic.value.DoubleValue
1.557

@<SCITEGIC>MOL_PROPERTY
Pdih
SciTegic.value.DoubleValue
1.845

@<SCITEGIC>MOL_PROPERTY
Idih
SciTegic.value.DoubleValue
0.000

@<SCITEGIC>MOL_PROPERTY
Tether
SciTegic.value.DoubleValue
0.000

@<TRIPOS>MOLECULE
guest-s10_confgen4.mol2 : confsearch ligand conformer 45
          20          19           1
SMALL
USER_CHARGES
 
@<TRIPOS>ATOM
       1    N1      20.663039   17.099356   22.644587 N.4        1 MOL1        -0.5937
       2    H1      20.500882   16.099809   22.495372 H          1 MOL1         0.3684
       3    H2      21.443941   17.185684   23.300675 H          1 MOL1         0.3684
       4    H3      20.966032   17.496027   21.752233 H          1 MOL1         0.3684
       5    C1      19.428106   17.786493   23.160986 C.3        1 MOL1         0.1270
       6    H4      19.173904   17.286111   24.100679 H          1 MOL1         0.0960
       7    C2      18.243651   17.592747   22.197466 C.3        1 MOL1        -0.2382
       8    H5      17.345916   18.096567   22.576558 H          1 MOL1         0.1009
       9    H6      18.006211   16.527197   22.091108 H          1 MOL1         0.1009
      10    H7      18.463746   17.987562   21.198607 H          1 MOL1         0.1009
      11    C3      19.673307   19.278946   23.488880 C.3        1 MOL1        -0.1392
      12    H8      18.763988   19.694488   23.942973 H          1 MOL1         0.0998
      13    H9      20.450927   19.341253   24.261429 H          1 MOL1         0.0998
      14    C4      20.087427   20.155550   22.278750 C.3        1 MOL1        -0.1302
      15    H10     19.297703   20.147600   21.515674 H          1 MOL1         0.0998
      16    H11     20.991296   19.747768   21.806630 H          1 MOL1         0.0998
      17    C5      20.356630   21.615385   22.702706 C.3        1 MOL1        -0.2317
      18    H12     20.646362   22.223707   21.836065 H          1 MOL1         0.1009
      19    H13     21.169478   21.669998   23.438585 H          1 MOL1         0.1009
      20    H14     19.461530   22.069053   23.147907 H          1 MOL1         0.1009
@<TRIPOS>BOND
    1     1     2    1
    2     1     3    1
    3     1     4    1
    4     1     5    1
    5     5     6    1
    6     5     7    1
    7     7     8    1
    8     7     9    1
    9     7    10    1
   10     5    11    1
   11    11    12    1
   12    11    13    1
   13    11    14    1
   14    14    15    1
   15    14    16    1
   16    14    17    1
   17    17    18    1
   18    17    19    1
   19    17    20    1
@<TRIPOS>SUBSTRUCTURE
       1 MOL1            1 RESIDUE      1      MOL     
@<SCITEGIC>MOL_PROPERTY
VConf Rank
SciTegic.value.IntegerValue
45

@<SCITEGIC>MOL_PROPERTY
Conf_Id
SciTegic.value.IntegerValue
63

@<SCITEGIC>MOL_PROPERTY
Delta U+W
SciTegic.value.DoubleValue
0.420

@<SCITEGIC>MOL_PROPERTY
U+W
SciTegic.value.DoubleValue
-35.856

@<SCITEGIC>MOL_PROPERTY
Grad RMS
SciTegic.value.DoubleValue
0.000000

@<SCITEGIC>MOL_PROPERTY
U
SciTegic.value.DoubleValue
22.625

@<SCITEGIC>MOL_PROPERTY
W
SciTegic.value.DoubleValue
-58.481

@<SCITEGIC>MOL_PROPERTY
W(PB)
SciTegic.value.DoubleValue
-60.400

@<SCITEGIC>MOL_PROPERTY
W(SA)
SciTegic.value.DoubleValue
1.919

@<SCITEGIC>MOL_PROPERTY
Valence
SciTegic.value.DoubleValue
2.404

@<SCITEGIC>MOL_PROPERTY
Coulomb
SciTegic.value.DoubleValue
19.464

@<SCITEGIC>MOL_PROPERTY
VdW
SciTegic.value.DoubleValue
0.757

@<SCITEGIC>MOL_PROPERTY
VdW6
SciTegic.value.DoubleValue
-5.074

@<SCITEGIC>MOL_PROPERTY
VdW12
SciTegic.value.DoubleValue
5.830

@<SCITEGIC>MOL_PROPERTY
Bond
SciTegic.value.DoubleValue
0.172

@<SCITEGIC>MOL_PROPERTY
Angle
SciTegic.value.DoubleValue
1.207

@<SCITEGIC>MOL_PROPERTY
Pdih
SciTegic.value.DoubleValue
1.025

@<SCITEGIC>MOL_PROPERTY
Idih
SciTegic.value.DoubleValue
0.000

@<SCITEGIC>MOL_PROPERTY
Tether
SciTegic.value.DoubleValue
0.000

@<TRIPOS>MOLECULE
guest-s10_confgen4.mol2 : confsearch ligand conformer 46
          20          19           1
SMALL
USER_CHARGES
 
@<TRIPOS>ATOM
       1    N1      20.471352   18.808957   21.182079 N.4        1 MOL1        -0.5937
       2    H1      19.663344   19.326373   20.826724 H          1 MOL1         0.3684
       3    H2      20.392376   17.845905   20.846349 H          1 MOL1         0.3684
       4    H3      21.307183   19.214962   20.753023 H          1 MOL1         0.3684
       5    C1      20.539130   18.865215   22.684217 C.3        1 MOL1         0.1270
       6    H4      20.624667   19.921589   22.956037 H          1 MOL1         0.0960
       7    C2      21.790904   18.136163   23.199053 C.3        1 MOL1        -0.2382
       8    H5      22.699018   18.564396   22.757256 H          1 MOL1         0.1009
       9    H6      21.760146   17.068302   22.949093 H          1 MOL1         0.1009
      10    H7      21.875688   18.229531   24.288877 H          1 MOL1         0.1009
      11    C3      19.269416   18.293511   23.355009 C.3        1 MOL1        -0.1392
      12    H8      19.174735   17.227971   23.107031 H          1 MOL1         0.0998
      13    H9      19.387558   18.344999   24.445568 H          1 MOL1         0.0998
      14    C4      17.960002   19.023588   22.962172 C.3        1 MOL1        -0.1302
      15    H10     17.119291   18.544423   23.483237 H          1 MOL1         0.0998
      16    H11     17.761349   18.896838   21.889308 H          1 MOL1         0.0998
      17    C5      17.975834   20.528336   23.315515 C.3        1 MOL1        -0.2317
      18    H12     18.172853   20.680405   24.384738 H          1 MOL1         0.1009
      19    H13     17.005539   20.987464   23.085741 H          1 MOL1         0.1009
      20    H14     18.740972   21.070208   22.745572 H          1 MOL1         0.1009
@<TRIPOS>BOND
    1     1     2    1
    2     1     3    1
    3     1     4    1
    4     1     5    1
    5     5     6    1
    6     5     7    1
    7     7     8    1
    8     7     9    1
    9     7    10    1
   10     5    11    1
   11    11    12    1
   12    11    13    1
   13    11    14    1
   14    14    15    1
   15    14    16    1
   16    14    17    1
   17    17    18    1
   18    17    19    1
   19    17    20    1
@<TRIPOS>SUBSTRUCTURE
       1 MOL1            1 RESIDUE      1      MOL     
@<SCITEGIC>MOL_PROPERTY
VConf Rank
SciTegic.value.IntegerValue
46

@<SCITEGIC>MOL_PROPERTY
Conf_Id
SciTegic.value.IntegerValue
50

@<SCITEGIC>MOL_PROPERTY
Delta U+W
SciTegic.value.DoubleValue
0.466

@<SCITEGIC>MOL_PROPERTY
U+W
SciTegic.value.DoubleValue
-35.811

@<SCITEGIC>MOL_PROPERTY
Grad RMS
SciTegic.value.DoubleValue
0.000000

@<SCITEGIC>MOL_PROPERTY
U
SciTegic.value.DoubleValue
22.369

@<SCITEGIC>MOL_PROPERTY
W
SciTegic.value.DoubleValue
-58.180

@<SCITEGIC>MOL_PROPERTY
W(PB)
SciTegic.value.DoubleValue
-60.103

@<SCITEGIC>MOL_PROPERTY
W(SA)
SciTegic.value.DoubleValue
1.923

@<SCITEGIC>MOL_PROPERTY
Valence
SciTegic.value.DoubleValue
2.168

@<SCITEGIC>MOL_PROPERTY
Coulomb
SciTegic.value.DoubleValue
19.636

@<SCITEGIC>MOL_PROPERTY
VdW
SciTegic.value.DoubleValue
0.566

@<SCITEGIC>MOL_PROPERTY
VdW6
SciTegic.value.DoubleValue
-5.263

@<SCITEGIC>MOL_PROPERTY
VdW12
SciTegic.value.DoubleValue
5.829

@<SCITEGIC>MOL_PROPERTY
Bond
SciTegic.value.DoubleValue
0.162

@<SCITEGIC>MOL_PROPERTY
Angle
SciTegic.value.DoubleValue
1.066

@<SCITEGIC>MOL_PROPERTY
Pdih
SciTegic.value.DoubleValue
0.939

@<SCITEGIC>MOL_PROPERTY
Idih
SciTegic.value.DoubleValue
0.000

@<SCITEGIC>MOL_PROPERTY
Tether
SciTegic.value.DoubleValue
0.000

@<TRIPOS>MOLECULE
guest-s10_confgen4.mol2 : confsearch ligand conformer 47
          20          19           1
SMALL
USER_CHARGES
 
@<TRIPOS>ATOM
       1    N1      19.559325   16.596630   22.565042 N.4        1 MOL1        -0.5937
       2    H1      18.946069   16.441066   21.760236 H          1 MOL1         0.3684
       3    H2      19.067215   16.258869   23.396075 H          1 MOL1         0.3684
       4    H3      20.382875   16.002467   22.436702 H          1 MOL1         0.3684
       5    C1      19.941468   18.045911   22.699704 C.3        1 MOL1         0.1270
       6    H4      20.454017   18.313450   21.770469 H          1 MOL1         0.0960
       7    C2      20.922004   18.225294   23.873728 C.3        1 MOL1        -0.2382
       8    H5      20.462161   17.922099   24.822561 H          1 MOL1         0.1009
       9    H6      21.243995   19.267419   23.974151 H          1 MOL1         0.1009
      10    H7      21.820885   17.615058   23.722886 H          1 MOL1         0.1009
      11    C3      18.699970   18.960049   22.845537 C.3        1 MOL1        -0.1392
      12    H8      17.807953   18.409632   22.518399 H          1 MOL1         0.0998
      13    H9      18.525380   19.204327   23.901879 H          1 MOL1         0.0998
      14    C4      18.774755   20.258968   22.003515 C.3        1 MOL1        -0.1302
      15    H10     17.824304   20.800656   22.109099 H          1 MOL1         0.0998
      16    H11     18.862461   20.001792   20.938503 H          1 MOL1         0.0998
      17    C5      19.931326   21.203332   22.399441 C.3        1 MOL1        -0.2317
      18    H12     19.896641   21.445555   23.469559 H          1 MOL1         0.1009
      19    H13     19.864802   22.145979   21.840842 H          1 MOL1         0.1009
      20    H14     20.908073   20.757493   22.174001 H          1 MOL1         0.1009
@<TRIPOS>BOND
    1     1     2    1
    2     1     3    1
    3     1     4    1
    4     1     5    1
    5     5     6    1
    6     5     7    1
    7     7     8    1
    8     7     9    1
    9     7    10    1
   10     5    11    1
   11    11    12    1
   12    11    13    1
   13    11    14    1
   14    14    15    1
   15    14    16    1
   16    14    17    1
   17    17    18    1
   18    17    19    1
   19    17    20    1
@<TRIPOS>SUBSTRUCTURE
       1 MOL1            1 RESIDUE      1      MOL     
@<SCITEGIC>MOL_PROPERTY
VConf Rank
SciTegic.value.IntegerValue
47

@<SCITEGIC>MOL_PROPERTY
Conf_Id
SciTegic.value.IntegerValue
3

@<SCITEGIC>MOL_PROPERTY
Delta U+W
SciTegic.value.DoubleValue
3.093

@<SCITEGIC>MOL_PROPERTY
U+W
SciTegic.value.DoubleValue
-33.184

@<SCITEGIC>MOL_PROPERTY
Grad RMS
SciTegic.value.DoubleValue
0.000000

@<SCITEGIC>MOL_PROPERTY
U
SciTegic.value.DoubleValue
25.256

@<SCITEGIC>MOL_PROPERTY
W
SciTegic.value.DoubleValue
-58.439

@<SCITEGIC>MOL_PROPERTY
W(PB)
SciTegic.value.DoubleValue
-60.337

@<SCITEGIC>MOL_PROPERTY
W(SA)
SciTegic.value.DoubleValue
1.898

@<SCITEGIC>MOL_PROPERTY
Valence
SciTegic.value.DoubleValue
4.963

@<SCITEGIC>MOL_PROPERTY
Coulomb
SciTegic.value.DoubleValue
19.511

@<SCITEGIC>MOL_PROPERTY
VdW
SciTegic.value.DoubleValue
0.782

@<SCITEGIC>MOL_PROPERTY
VdW6
SciTegic.value.DoubleValue
-5.429

@<SCITEGIC>MOL_PROPERTY
VdW12
SciTegic.value.DoubleValue
6.211

@<SCITEGIC>MOL_PROPERTY
Bond
SciTegic.value.DoubleValue
0.174

@<SCITEGIC>MOL_PROPERTY
Angle
SciTegic.value.DoubleValue
1.377

@<SCITEGIC>MOL_PROPERTY
Pdih
SciTegic.value.DoubleValue
3.412

@<SCITEGIC>MOL_PROPERTY
Idih
SciTegic.value.DoubleValue
0.000

@<SCITEGIC>MOL_PROPERTY
Tether
SciTegic.value.DoubleValue
0.000

@<TRIPOS>MOLECULE
guest-s10_confgen4.mol2 : confsearch ligand conformer 48
          20          19           1
SMALL
USER_CHARGES
 
@<TRIPOS>ATOM
       1    N1      17.487934   18.862359   23.401422 N.4        1 MOL1        -0.5937
       2    H1      16.739076   19.330389   22.883934 H          1 MOL1         0.3684
       3    H2      17.501684   19.264082   24.342835 H          1 MOL1         0.3684
       4    H3      17.225120   17.877803   23.492328 H          1 MOL1         0.3684
       5    C1      18.815325   19.018547   22.711479 C.3        1 MOL1         0.1270
       6    H4      19.007919   20.094215   22.657256 H          1 MOL1         0.0960
       7    C2      18.741553   18.464950   21.276839 C.3        1 MOL1        -0.2382
       8    H5      19.653610   18.695491   20.714223 H          1 MOL1         0.1009
       9    H6      17.902108   18.913750   20.731821 H          1 MOL1         0.1009
      10    H7      18.603810   17.376596   21.277729 H          1 MOL1         0.1009
      11    C3      19.952560   18.361852   23.529938 C.3        1 MOL1        -0.1392
      12    H8      19.903974   18.735318   24.561291 H          1 MOL1         0.0998
      13    H9      19.778767   17.279287   23.589814 H          1 MOL1         0.0998
      14    C4      21.381958   18.615797   22.986397 C.3        1 MOL1        -0.1302
      15    H10     21.508130   18.137013   22.006031 H          1 MOL1         0.0998
      16    H11     22.104452   18.126221   23.654348 H          1 MOL1         0.0998
      17    C5      21.733151   20.117546   22.883605 C.3        1 MOL1        -0.2317
      18    H12     21.611571   20.618841   23.852666 H          1 MOL1         0.1009
      19    H13     21.099232   20.630623   22.149464 H          1 MOL1         0.1009
      20    H14     22.776372   20.247786   22.567782 H          1 MOL1         0.1009
@<TRIPOS>BOND
    1     1     2    1
    2     1     3    1
    3     1     4    1
    4     1     5    1
    5     5     6    1
    6     5     7    1
    7     7     8    1
    8     7     9    1
    9     7    10    1
   10     5    11    1
   11    11    12    1
   12    11    13    1
   13    11    14    1
   14    14    15    1
   15    14    16    1
   16    14    17    1
   17    17    18    1
   18    17    19    1
   19    17    20    1
@<TRIPOS>SUBSTRUCTURE
       1 MOL1            1 RESIDUE      1      MOL     
@<SCITEGIC>MOL_PROPERTY
VConf Rank
SciTegic.value.IntegerValue
48

@<SCITEGIC>MOL_PROPERTY
Conf_Id
SciTegic.value.IntegerValue
64

@<SCITEGIC>MOL_PROPERTY
Delta U+W
SciTegic.value.DoubleValue
0.544

@<SCITEGIC>MOL_PROPERTY
U+W
SciTegic.value.DoubleValue
-35.732

@<SCITEGIC>MOL_PROPERTY
Grad RMS
SciTegic.value.DoubleValue
0.000000

@<SCITEGIC>MOL_PROPERTY
U
SciTegic.value.DoubleValue
22.800

@<SCITEGIC>MOL_PROPERTY
W
SciTegic.value.DoubleValue
-58.532

@<SCITEGIC>MOL_PROPERTY
W(PB)
SciTegic.value.DoubleValue
-60.437

@<SCITEGIC>MOL_PROPERTY
W(SA)
SciTegic.value.DoubleValue
1.905

@<SCITEGIC>MOL_PROPERTY
Valence
SciTegic.value.DoubleValue
2.662

@<SCITEGIC>MOL_PROPERTY
Coulomb
SciTegic.value.DoubleValue
19.485

@<SCITEGIC>MOL_PROPERTY
VdW
SciTegic.value.DoubleValue
0.653

@<SCITEGIC>MOL_PROPERTY
VdW6
SciTegic.value.DoubleValue
-5.460

@<SCITEGIC>MOL_PROPERTY
VdW12
SciTegic.value.DoubleValue
6.113

@<SCITEGIC>MOL_PROPERTY
Bond
SciTegic.value.DoubleValue
0.174

@<SCITEGIC>MOL_PROPERTY
Angle
SciTegic.value.DoubleValue
1.378

@<SCITEGIC>MOL_PROPERTY
Pdih
SciTegic.value.DoubleValue
1.109

@<SCITEGIC>MOL_PROPERTY
Idih
SciTegic.value.DoubleValue
0.000

@<SCITEGIC>MOL_PROPERTY
Tether
SciTegic.value.DoubleValue
0.000

@<TRIPOS>MOLECULE
guest-s10_confgen4.mol2 : confsearch ligand conformer 49
          20          19           1
SMALL
USER_CHARGES
 
@<TRIPOS>ATOM
       1    N1      21.660385   18.983837   23.668046 N.4        1 MOL1        -0.5937
       2    H1      21.401063   19.972568   23.647148 H          1 MOL1         0.3684
       3    H2      22.629291   18.915113   23.345385 H          1 MOL1         0.3684
       4    H3      21.644174   18.682552   24.646118 H          1 MOL1         0.3684
       5    C1      20.736950   18.153877   22.817596 C.3        1 MOL1         0.1270
       6    H4      21.101394   17.124856   22.896705 H          1 MOL1         0.0960
       7    C2      20.836710   18.563892   21.339198 C.3        1 MOL1        -0.2382
       8    H5      20.614549   19.628556   21.201920 H          1 MOL1         0.1009
       9    H6      20.141926   17.979389   20.723592 H          1 MOL1         0.1009
      10    H7      21.849763   18.383528   20.959511 H          1 MOL1         0.1009
      11    C3      19.281566   18.159474   23.349353 C.3        1 MOL1        -0.1392
      12    H8      18.692279   17.409386   22.805657 H          1 MOL1         0.0998
      13    H9      19.310684   17.805000   24.388094 H          1 MOL1         0.0998
      14    C4      18.545721   19.528066   23.322643 C.3        1 MOL1        -0.1302
      15    H10     19.254011   20.356461   23.454804 H          1 MOL1         0.0998
      16    H11     17.868090   19.573422   24.186785 H          1 MOL1         0.0998
      17    C5      17.699080   19.749860   22.047200 C.3        1 MOL1        -0.2317
      18    H12     18.313101   19.762777   21.140123 H          1 MOL1         0.1009
      19    H13     17.169315   20.709761   22.101084 H          1 MOL1         0.1009
      20    H14     16.944564   18.960568   21.934214 H          1 MOL1         0.1009
@<TRIPOS>BOND
    1     1     2    1
    2     1     3    1
    3     1     4    1
    4     1     5    1
    5     5     6    1
    6     5     7    1
    7     7     8    1
    8     7     9    1
    9     7    10    1
   10     5    11    1
   11    11    12    1
   12    11    13    1
   13    11    14    1
   14    14    15    1
   15    14    16    1
   16    14    17    1
   17    17    18    1
   18    17    19    1
   19    17    20    1
@<TRIPOS>SUBSTRUCTURE
       1 MOL1            1 RESIDUE      1      MOL     
@<SCITEGIC>MOL_PROPERTY
VConf Rank
SciTegic.value.IntegerValue
49

@<SCITEGIC>MOL_PROPERTY
Conf_Id
SciTegic.value.IntegerValue
35

@<SCITEGIC>MOL_PROPERTY
Delta U+W
SciTegic.value.DoubleValue
3.004

@<SCITEGIC>MOL_PROPERTY
U+W
SciTegic.value.DoubleValue
-33.272

@<SCITEGIC>MOL_PROPERTY
Grad RMS
SciTegic.value.DoubleValue
0.000000

@<SCITEGIC>MOL_PROPERTY
U
SciTegic.value.DoubleValue
25.367

@<SCITEGIC>MOL_PROPERTY
W
SciTegic.value.DoubleValue
-58.639

@<SCITEGIC>MOL_PROPERTY
W(PB)
SciTegic.value.DoubleValue
-60.512

@<SCITEGIC>MOL_PROPERTY
W(SA)
SciTegic.value.DoubleValue
1.873

@<SCITEGIC>MOL_PROPERTY
Valence
SciTegic.value.DoubleValue
4.943

@<SCITEGIC>MOL_PROPERTY
Coulomb
SciTegic.value.DoubleValue
19.661

@<SCITEGIC>MOL_PROPERTY
VdW
SciTegic.value.DoubleValue
0.764

@<SCITEGIC>MOL_PROPERTY
VdW6
SciTegic.value.DoubleValue
-5.871

@<SCITEGIC>MOL_PROPERTY
VdW12
SciTegic.value.DoubleValue
6.636

@<SCITEGIC>MOL_PROPERTY
Bond
SciTegic.value.DoubleValue
0.230

@<SCITEGIC>MOL_PROPERTY
Angle
SciTegic.value.DoubleValue
1.857

@<SCITEGIC>MOL_PROPERTY
Pdih
SciTegic.value.DoubleValue
2.855

@<SCITEGIC>MOL_PROPERTY
Idih
SciTegic.value.DoubleValue
0.000

@<SCITEGIC>MOL_PROPERTY
Tether
SciTegic.value.DoubleValue
0.000

@<TRIPOS>MOLECULE
guest-s10_confgen4.mol2 : confsearch ligand conformer 50
          20          19           1
SMALL
USER_CHARGES
 
@<TRIPOS>ATOM
       1    N1      20.074559   17.801128   21.379186 N.4        1 MOL1        -0.5937
       2    H1      19.518829   17.237201   20.730532 H          1 MOL1         0.3684
       3    H2      21.017826   17.404237   21.396729 H          1 MOL1         0.3684
       4    H3      20.146020   18.742595   20.988635 H          1 MOL1         0.3684
       5    C1      19.462118   17.826555   22.752770 C.3        1 MOL1         0.1270
       6    H4      19.456003   16.784043   23.086025 H          1 MOL1         0.0960
       7    C2      17.998871   18.301181   22.706432 C.3        1 MOL1        -0.2382
       8    H5      17.914150   19.312460   22.291182 H          1 MOL1         0.1009
       9    H6      17.558788   18.303451   23.711291 H          1 MOL1         0.1009
      10    H7      17.396957   17.630435   22.081319 H          1 MOL1         0.1009
      11    C3      20.308649   18.620596   23.780484 C.3        1 MOL1        -0.1392
      12    H8      19.971613   18.329625   24.784120 H          1 MOL1         0.0998
      13    H9      21.352135   18.285656   23.715900 H          1 MOL1         0.0998
      14    C4      20.262299   20.172119   23.695485 C.3        1 MOL1        -0.1302
      15    H10     20.874161   20.575061   24.514684 H          1 MOL1         0.0998
      16    H11     19.242448   20.533724   23.884633 H          1 MOL1         0.0998
      17    C5      20.784434   20.761457   22.365456 C.3        1 MOL1        -0.2317
      18    H12     21.768991   20.350426   22.106918 H          1 MOL1         0.1009
      19    H13     20.890547   21.850952   22.448593 H          1 MOL1         0.1009
      20    H14     20.091212   20.568641   21.538696 H          1 MOL1         0.1009
@<TRIPOS>BOND
    1     1     2    1
    2     1     3    1
    3     1     4    1
    4     1     5    1
    5     5     6    1
    6     5     7    1
    7     7     8    1
    8     7     9    1
    9     7    10    1
   10     5    11    1
   11    11    12    1
   12    11    13    1
   13    11    14    1
   14    14    15    1
   15    14    16    1
   16    14    17    1
   17    17    18    1
   18    17    19    1
   19    17    20    1
@<TRIPOS>SUBSTRUCTURE
       1 MOL1            1 RESIDUE      1      MOL     
@<SCITEGIC>MOL_PROPERTY
VConf Rank
SciTegic.value.IntegerValue
50

@<SCITEGIC>MOL_PROPERTY
Conf_Id
SciTegic.value.IntegerValue
55

@<SCITEGIC>MOL_PROPERTY
Delta U+W
SciTegic.value.DoubleValue
2.767

@<SCITEGIC>MOL_PROPERTY
U+W
SciTegic.value.DoubleValue
-33.509

@<SCITEGIC>MOL_PROPERTY
Grad RMS
SciTegic.value.DoubleValue
0.000000

@<SCITEGIC>MOL_PROPERTY
U
SciTegic.value.DoubleValue
24.552

@<SCITEGIC>MOL_PROPERTY
W
SciTegic.value.DoubleValue
-58.061

@<SCITEGIC>MOL_PROPERTY
W(PB)
SciTegic.value.DoubleValue
-59.930

@<SCITEGIC>MOL_PROPERTY
W(SA)
SciTegic.value.DoubleValue
1.869

@<SCITEGIC>MOL_PROPERTY
Valence
SciTegic.value.DoubleValue
3.726

@<SCITEGIC>MOL_PROPERTY
Coulomb
SciTegic.value.DoubleValue
20.219

@<SCITEGIC>MOL_PROPERTY
VdW
SciTegic.value.DoubleValue
0.606

@<SCITEGIC>MOL_PROPERTY
VdW6
SciTegic.value.DoubleValue
-6.395

@<SCITEGIC>MOL_PROPERTY
VdW12
SciTegic.value.DoubleValue
7.001

@<SCITEGIC>MOL_PROPERTY
Bond
SciTegic.value.DoubleValue
0.241

@<SCITEGIC>MOL_PROPERTY
Angle
SciTegic.value.DoubleValue
2.098

@<SCITEGIC>MOL_PROPERTY
Pdih
SciTegic.value.DoubleValue
1.387

@<SCITEGIC>MOL_PROPERTY
Idih
SciTegic.value.DoubleValue
0.000

@<SCITEGIC>MOL_PROPERTY
Tether
SciTegic.value.DoubleValue
0.000

@<TRIPOS>MOLECULE
guest-s10_confgen4.mol2 : confsearch ligand conformer 51
          20          19           1
SMALL
USER_CHARGES
 
@<TRIPOS>ATOM
       1    N1      20.983788   19.011178   21.184761 N.4        1 MOL1        -0.5937
       2    H1      20.781213   19.967838   20.884242 H          1 MOL1         0.3684
       3    H2      21.339977   18.504330   20.369966 H          1 MOL1         0.3684
       4    H3      21.742904   19.057900   21.868969 H          1 MOL1         0.3684
       5    C1      19.763248   18.343284   21.758573 C.3        1 MOL1         0.1270
       6    H4      20.066779   17.334672   22.055993 H          1 MOL1         0.0960
       7    C2      18.663322   18.219591   20.691412 C.3        1 MOL1        -0.2382
       8    H5      19.030976   17.669519   19.816474 H          1 MOL1         0.1009
       9    H6      18.322313   19.206954   20.355823 H          1 MOL1         0.1009
      10    H7      17.796528   17.674871   21.085857 H          1 MOL1         0.1009
      11    C3      19.219929   19.071850   23.007631 C.3        1 MOL1        -0.1392
      12    H8      18.929571   20.096760   22.740859 H          1 MOL1         0.0998
      13    H9      18.305325   18.565052   23.343372 H          1 MOL1         0.0998
      14    C4      20.231465   19.102742   24.178682 C.3        1 MOL1        -0.1302
      15    H10     21.134798   19.654713   23.885863 H          1 MOL1         0.0998
      16    H11     20.548710   18.078616   24.421092 H          1 MOL1         0.0998
      17    C5      19.626615   19.761583   25.437009 C.3        1 MOL1        -0.2317
      18    H12     19.327007   20.798211   25.234786 H          1 MOL1         0.1009
      19    H13     20.357227   19.776257   26.256202 H          1 MOL1         0.1009
      20    H14     18.742313   19.212008   25.785160 H          1 MOL1         0.1009
@<TRIPOS>BOND
    1     1     2    1
    2     1     3    1
    3     1     4    1
    4     1     5    1
    5     5     6    1
    6     5     7    1
    7     7     8    1
    8     7     9    1
    9     7    10    1
   10     5    11    1
   11    11    12    1
   12    11    13    1
   13    11    14    1
   14    14    15    1
   15    14    16    1
   16    14    17    1
   17    17    18    1
   18    17    19    1
   19    17    20    1
@<TRIPOS>SUBSTRUCTURE
       1 MOL1            1 RESIDUE      1      MOL     
@<SCITEGIC>MOL_PROPERTY
VConf Rank
SciTegic.value.IntegerValue
51

@<SCITEGIC>MOL_PROPERTY
Conf_Id
SciTegic.value.IntegerValue
74

@<SCITEGIC>MOL_PROPERTY
Delta U+W
SciTegic.value.DoubleValue
0.000

@<SCITEGIC>MOL_PROPERTY
U+W
SciTegic.value.DoubleValue
-36.276

@<SCITEGIC>MOL_PROPERTY
Grad RMS
SciTegic.value.DoubleValue
0.000000

@<SCITEGIC>MOL_PROPERTY
U
SciTegic.value.DoubleValue
22.080

@<SCITEGIC>MOL_PROPERTY
W
SciTegic.value.DoubleValue
-58.356

@<SCITEGIC>MOL_PROPERTY
W(PB)
SciTegic.value.DoubleValue
-60.289

@<SCITEGIC>MOL_PROPERTY
W(SA)
SciTegic.value.DoubleValue
1.932

@<SCITEGIC>MOL_PROPERTY
Valence
SciTegic.value.DoubleValue
1.885

@<SCITEGIC>MOL_PROPERTY
Coulomb
SciTegic.value.DoubleValue
19.559

@<SCITEGIC>MOL_PROPERTY
VdW
SciTegic.value.DoubleValue
0.637

@<SCITEGIC>MOL_PROPERTY
VdW6
SciTegic.value.DoubleValue
-4.482

@<SCITEGIC>MOL_PROPERTY
VdW12
SciTegic.value.DoubleValue
5.119

@<SCITEGIC>MOL_PROPERTY
Bond
SciTegic.value.DoubleValue
0.136

@<SCITEGIC>MOL_PROPERTY
Angle
SciTegic.value.DoubleValue
0.867

@<SCITEGIC>MOL_PROPERTY
Pdih
SciTegic.value.DoubleValue
0.882

@<SCITEGIC>MOL_PROPERTY
Idih
SciTegic.value.DoubleValue
0.000

@<SCITEGIC>MOL_PROPERTY
Tether
SciTegic.value.DoubleValue
0.000

@<TRIPOS>MOLECULE
guest-s10_confgen4.mol2 : confsearch ligand conformer 52
          20          19           1
SMALL
USER_CHARGES
 
@<TRIPOS>ATOM
       1    N1      17.808554   17.991544   23.770271 N.4        1 MOL1        -0.5937
       2    H1      18.182850   17.117945   24.150514 H          1 MOL1         0.3684
       3    H2      17.284511   17.757338   22.923363 H          1 MOL1         0.3684
       4    H3      17.137476   18.354861   24.452425 H          1 MOL1         0.3684
       5    C1      18.899984   18.987125   23.487313 C.3        1 MOL1         0.1270
       6    H4      19.398949   19.177127   24.442718 H          1 MOL1         0.0960
       7    C2      18.297278   20.310835   22.982005 C.3        1 MOL1        -0.2382
       8    H5      17.524824   20.671916   23.672047 H          1 MOL1         0.1009
       9    H6      17.838413   20.186524   21.993284 H          1 MOL1         0.1009
      10    H7      19.059380   21.095323   22.911279 H          1 MOL1         0.1009
      11    C3      19.943533   18.408569   22.503562 C.3        1 MOL1        -0.1392
      12    H8      20.251757   17.419114   22.866382 H          1 MOL1         0.0998
      13    H9      19.477501   18.248108   21.522280 H          1 MOL1         0.0998
      14    C4      21.207247   19.288628   22.343298 C.3        1 MOL1        -0.1302
      15    H10     21.638253   19.501863   23.331648 H          1 MOL1         0.0998
      16    H11     20.943859   20.255896   21.895057 H          1 MOL1         0.0998
      17    C5      22.270664   18.602784   21.458740 C.3        1 MOL1        -0.2317
      18    H12     22.593923   17.649005   21.895832 H          1 MOL1         0.1009
      19    H13     23.157264   19.241378   21.352791 H          1 MOL1         0.1009
      20    H14     21.878237   18.402357   20.453210 H          1 MOL1         0.1009
@<TRIPOS>BOND
    1     1     2    1
    2     1     3    1
    3     1     4    1
    4     1     5    1
    5     5     6    1
    6     5     7    1
    7     7     8    1
    8     7     9    1
    9     7    10    1
   10     5    11    1
   11    11    12    1
   12    11    13    1
   13    11    14    1
   14    14    15    1
   15    14    16    1
   16    14    17    1
   17    17    18    1
   18    17    19    1
   19    17    20    1
@<TRIPOS>SUBSTRUCTURE
       1 MOL1            1 RESIDUE      1      MOL     
@<SCITEGIC>MOL_PROPERTY
VConf Rank
SciTegic.value.IntegerValue
52

@<SCITEGIC>MOL_PROPERTY
Conf_Id
SciTegic.value.IntegerValue
80

@<SCITEGIC>MOL_PROPERTY
Delta U+W
SciTegic.value.DoubleValue
0.460

@<SCITEGIC>MOL_PROPERTY
U+W
SciTegic.value.DoubleValue
-35.817

@<SCITEGIC>MOL_PROPERTY
Grad RMS
SciTegic.value.DoubleValue
0.000000

@<SCITEGIC>MOL_PROPERTY
U
SciTegic.value.DoubleValue
22.495

@<SCITEGIC>MOL_PROPERTY
W
SciTegic.value.DoubleValue
-58.311

@<SCITEGIC>MOL_PROPERTY
W(PB)
SciTegic.value.DoubleValue
-60.259

@<SCITEGIC>MOL_PROPERTY
W(SA)
SciTegic.value.DoubleValue
1.948

@<SCITEGIC>MOL_PROPERTY
Valence
SciTegic.value.DoubleValue
2.419

@<SCITEGIC>MOL_PROPERTY
Coulomb
SciTegic.value.DoubleValue
19.304

@<SCITEGIC>MOL_PROPERTY
VdW
SciTegic.value.DoubleValue
0.772

@<SCITEGIC>MOL_PROPERTY
VdW6
SciTegic.value.DoubleValue
-4.635

@<SCITEGIC>MOL_PROPERTY
VdW12
SciTegic.value.DoubleValue
5.407

@<SCITEGIC>MOL_PROPERTY
Bond
SciTegic.value.DoubleValue
0.149

@<SCITEGIC>MOL_PROPERTY
Angle
SciTegic.value.DoubleValue
1.142

@<SCITEGIC>MOL_PROPERTY
Pdih
SciTegic.value.DoubleValue
1.129

@<SCITEGIC>MOL_PROPERTY
Idih
SciTegic.value.DoubleValue
0.000

@<SCITEGIC>MOL_PROPERTY
Tether
SciTegic.value.DoubleValue
0.000

@<TRIPOS>MOLECULE
guest-s10_confgen4.mol2 : confsearch ligand conformer 53
          20          19           1
SMALL
USER_CHARGES
 
@<TRIPOS>ATOM
       1    N1      17.739534   17.577953   22.759411 N.4        1 MOL1        -0.5937
       2    H1      17.458546   17.308206   21.812789 H          1 MOL1         0.3684
       3    H2      17.136925   18.352335   23.049039 H          1 MOL1         0.3684
       4    H3      17.532690   16.785577   23.373390 H          1 MOL1         0.3684
       5    C1      19.193866   17.957284   22.820846 C.3        1 MOL1         0.1270
       6    H4      19.754659   17.072987   22.502523 H          1 MOL1         0.0960
       7    C2      19.598095   18.283970   24.268649 C.3        1 MOL1        -0.2382
       8    H5      19.279492   17.485210   24.949544 H          1 MOL1         0.1009
       9    H6      19.142257   19.222589   24.607260 H          1 MOL1         0.1009
      10    H7      20.686560   18.370451   24.362311 H          1 MOL1         0.1009
      11    C3      19.510315   19.107460   21.833784 C.3        1 MOL1        -0.1392
      12    H8      19.154901   18.797492   20.842172 H          1 MOL1         0.0998
      13    H9      18.927770   20.001309   22.093407 H          1 MOL1         0.0998
      14    C4      21.014554   19.465764   21.705224 C.3        1 MOL1        -0.1302
      15    H10     21.225080   19.722860   20.657513 H          1 MOL1         0.0998
      16    H11     21.637042   18.588407   21.930430 H          1 MOL1         0.0998
      17    C5      21.437905   20.666726   22.583574 C.3        1 MOL1        -0.2317
      18    H12     20.873093   21.568387   22.313181 H          1 MOL1         0.1009
      19    H13     22.503835   20.888244   22.443197 H          1 MOL1         0.1009
      20    H14     21.276715   20.475848   23.650403 H          1 MOL1         0.1009
@<TRIPOS>BOND
    1     1     2    1
    2     1     3    1
    3     1     4    1
    4     1     5    1
    5     5     6    1
    6     5     7    1
    7     7     8    1
    8     7     9    1
    9     7    10    1
   10     5    11    1
   11    11    12    1
   12    11    13    1
   13    11    14    1
   14    14    15    1
   15    14    16    1
   16    14    17    1
   17    17    18    1
   18    17    19    1
   19    17    20    1
@<TRIPOS>SUBSTRUCTURE
       1 MOL1            1 RESIDUE      1      MOL     
@<SCITEGIC>MOL_PROPERTY
VConf Rank
SciTegic.value.IntegerValue
53

@<SCITEGIC>MOL_PROPERTY
Conf_Id
SciTegic.value.IntegerValue
52

@<SCITEGIC>MOL_PROPERTY
Delta U+W
SciTegic.value.DoubleValue
2.995

@<SCITEGIC>MOL_PROPERTY
U+W
SciTegic.value.DoubleValue
-33.282

@<SCITEGIC>MOL_PROPERTY
Grad RMS
SciTegic.value.DoubleValue
0.000000

@<SCITEGIC>MOL_PROPERTY
U
SciTegic.value.DoubleValue
25.224

@<SCITEGIC>MOL_PROPERTY
W
SciTegic.value.DoubleValue
-58.506

@<SCITEGIC>MOL_PROPERTY
W(PB)
SciTegic.value.DoubleValue
-60.411

@<SCITEGIC>MOL_PROPERTY
W(SA)
SciTegic.value.DoubleValue
1.905

@<SCITEGIC>MOL_PROPERTY
Valence
SciTegic.value.DoubleValue
4.945

@<SCITEGIC>MOL_PROPERTY
Coulomb
SciTegic.value.DoubleValue
19.467

@<SCITEGIC>MOL_PROPERTY
VdW
SciTegic.value.DoubleValue
0.813

@<SCITEGIC>MOL_PROPERTY
VdW6
SciTegic.value.DoubleValue
-5.458

@<SCITEGIC>MOL_PROPERTY
VdW12
SciTegic.value.DoubleValue
6.270

@<SCITEGIC>MOL_PROPERTY
Bond
SciTegic.value.DoubleValue
0.200

@<SCITEGIC>MOL_PROPERTY
Angle
SciTegic.value.DoubleValue
1.675

@<SCITEGIC>MOL_PROPERTY
Pdih
SciTegic.value.DoubleValue
3.070

@<SCITEGIC>MOL_PROPERTY
Idih
SciTegic.value.DoubleValue
0.000

@<SCITEGIC>MOL_PROPERTY
Tether
SciTegic.value.DoubleValue
0.000

@<TRIPOS>MOLECULE
guest-s10_confgen4.mol2 : confsearch ligand conformer 54
          20          19           1
SMALL
USER_CHARGES
 
@<TRIPOS>ATOM
       1    N1      18.686640   18.193315   21.834240 N.4        1 MOL1        -0.5937
       2    H1      18.085272   18.912563   21.425075 H          1 MOL1         0.3684
       3    H2      18.172753   17.308791   21.799803 H          1 MOL1         0.3684
       4    H3      19.505353   18.098786   21.229460 H          1 MOL1         0.3684
       5    C1      19.084884   18.546662   23.241292 C.3        1 MOL1         0.1270
       6    H4      19.681816   17.713946   23.625989 H          1 MOL1         0.0960
       7    C2      17.829696   18.684491   24.119509 C.3        1 MOL1        -0.2382
       8    H5      17.200868   19.519184   23.785261 H          1 MOL1         0.1009
       9    H6      18.102837   18.860506   25.167392 H          1 MOL1         0.1009
      10    H7      17.228148   17.767838   24.084521 H          1 MOL1         0.1009
      11    C3      19.940362   19.833761   23.317236 C.3        1 MOL1        -0.1392
      12    H8      19.478373   20.626562   22.714237 H          1 MOL1         0.0998
      13    H9      19.930066   20.200225   24.352457 H          1 MOL1         0.0998
      14    C4      21.426661   19.651580   22.911853 C.3        1 MOL1        -0.1302
      15    H10     21.894235   18.889960   23.551652 H          1 MOL1         0.0998
      16    H11     21.956631   20.590892   23.123632 H          1 MOL1         0.0998
      17    C5      21.654955   19.288550   21.426828 C.3        1 MOL1        -0.2317
      18    H12     22.719912   19.376173   21.174887 H          1 MOL1         0.1009
      19    H13     21.099895   19.962139   20.760867 H          1 MOL1         0.1009
      20    H14     21.361035   18.254347   21.213583 H          1 MOL1         0.1009
@<TRIPOS>BOND
    1     1     2    1
    2     1     3    1
    3     1     4    1
    4     1     5    1
    5     5     6    1
    6     5     7    1
    7     7     8    1
    8     7     9    1
    9     7    10    1
   10     5    11    1
   11    11    12    1
   12    11    13    1
   13    11    14    1
   14    14    15    1
   15    14    16    1
   16    14    17    1
   17    17    18    1
   18    17    19    1
   19    17    20    1
@<TRIPOS>SUBSTRUCTURE
       1 MOL1            1 RESIDUE      1      MOL     
@<SCITEGIC>MOL_PROPERTY
VConf Rank
SciTegic.value.IntegerValue
54

@<SCITEGIC>MOL_PROPERTY
Conf_Id
SciTegic.value.IntegerValue
54

@<SCITEGIC>MOL_PROPERTY
Delta U+W
SciTegic.value.DoubleValue
2.752

@<SCITEGIC>MOL_PROPERTY
U+W
SciTegic.value.DoubleValue
-33.525

@<SCITEGIC>MOL_PROPERTY
Grad RMS
SciTegic.value.DoubleValue
0.000000

@<SCITEGIC>MOL_PROPERTY
U
SciTegic.value.DoubleValue
24.337

@<SCITEGIC>MOL_PROPERTY
W
SciTegic.value.DoubleValue
-57.862

@<SCITEGIC>MOL_PROPERTY
W(PB)
SciTegic.value.DoubleValue
-59.764

@<SCITEGIC>MOL_PROPERTY
W(SA)
SciTegic.value.DoubleValue
1.901

@<SCITEGIC>MOL_PROPERTY
Valence
SciTegic.value.DoubleValue
3.593

@<SCITEGIC>MOL_PROPERTY
Coulomb
SciTegic.value.DoubleValue
20.067

@<SCITEGIC>MOL_PROPERTY
VdW
SciTegic.value.DoubleValue
0.677

@<SCITEGIC>MOL_PROPERTY
VdW6
SciTegic.value.DoubleValue
-5.466

@<SCITEGIC>MOL_PROPERTY
VdW12
SciTegic.value.DoubleValue
6.144

@<SCITEGIC>MOL_PROPERTY
Bond
SciTegic.value.DoubleValue
0.191

@<SCITEGIC>MOL_PROPERTY
Angle
SciTegic.value.DoubleValue
1.557

@<SCITEGIC>MOL_PROPERTY
Pdih
SciTegic.value.DoubleValue
1.845

@<SCITEGIC>MOL_PROPERTY
Idih
SciTegic.value.DoubleValue
0.000

@<SCITEGIC>MOL_PROPERTY
Tether
SciTegic.value.DoubleValue
0.000

@<TRIPOS>MOLECULE
guest-s10_confgen4.mol2 : confsearch ligand conformer 55
          20          19           1
SMALL
USER_CHARGES
 
@<TRIPOS>ATOM
       1    N1      21.766666   19.108800   22.244953 N.4        1 MOL1        -0.5937
       2    H1      22.463344   19.657300   21.733638 H          1 MOL1         0.3684
       3    H2      22.102321   18.142238   22.273309 H          1 MOL1         0.3684
       4    H3      21.749837   19.456655   23.206286 H          1 MOL1         0.3684
       5    C1      20.409956   19.204611   21.601491 C.3        1 MOL1         0.1270
       6    H4      20.532016   18.829265   20.580590 H          1 MOL1         0.0960
       7    C2      19.946032   20.668932   21.504634 C.3        1 MOL1        -0.2382
       8    H5      18.955978   20.734367   21.036676 H          1 MOL1         0.1009
       9    H6      20.642720   21.252032   20.890057 H          1 MOL1         0.1009
      10    H7      19.892243   21.144126   22.491214 H          1 MOL1         0.1009
      11    C3      19.359168   18.306143   22.296942 C.3        1 MOL1        -0.1392
      12    H8      18.421880   18.353238   21.726845 H          1 MOL1         0.0998
      13    H9      19.697718   17.263646   22.233775 H          1 MOL1         0.0998
      14    C4      19.074450   18.659320   23.779691 C.3        1 MOL1        -0.1302
      15    H10     18.684974   19.683088   23.858564 H          1 MOL1         0.0998
      16    H11     20.004473   18.626033   24.362881 H          1 MOL1         0.0998
      17    C5      18.052466   17.687179   24.407241 C.3        1 MOL1        -0.2317
      18    H12     17.859517   17.950773   25.455266 H          1 MOL1         0.1009
      19    H13     18.423040   16.654068   24.383206 H          1 MOL1         0.1009
      20    H14     17.095278   17.719488   23.870614 H          1 MOL1         0.1009
@<TRIPOS>BOND
    1     1     2    1
    2     1     3    1
    3     1     4    1
    4     1     5    1
    5     5     6    1
    6     5     7    1
    7     7     8    1
    8     7     9    1
    9     7    10    1
   10     5    11    1
   11    11    12    1
   12    11    13    1
   13    11    14    1
   14    14    15    1
   15    14    16    1
   16    14    17    1
   17    17    18    1
   18    17    19    1
   19    17    20    1
@<TRIPOS>SUBSTRUCTURE
       1 MOL1            1 RESIDUE      1      MOL     
@<SCITEGIC>MOL_PROPERTY
VConf Rank
SciTegic.value.IntegerValue
55

@<SCITEGIC>MOL_PROPERTY
Conf_Id
SciTegic.value.IntegerValue
63

@<SCITEGIC>MOL_PROPERTY
Delta U+W
SciTegic.value.DoubleValue
0.420

@<SCITEGIC>MOL_PROPERTY
U+W
SciTegic.value.DoubleValue
-35.856

@<SCITEGIC>MOL_PROPERTY
Grad RMS
SciTegic.value.DoubleValue
0.000000

@<SCITEGIC>MOL_PROPERTY
U
SciTegic.value.DoubleValue
22.625

@<SCITEGIC>MOL_PROPERTY
W
SciTegic.value.DoubleValue
-58.481

@<SCITEGIC>MOL_PROPERTY
W(PB)
SciTegic.value.DoubleValue
-60.400

@<SCITEGIC>MOL_PROPERTY
W(SA)
SciTegic.value.DoubleValue
1.919

@<SCITEGIC>MOL_PROPERTY
Valence
SciTegic.value.DoubleValue
2.404

@<SCITEGIC>MOL_PROPERTY
Coulomb
SciTegic.value.DoubleValue
19.464

@<SCITEGIC>MOL_PROPERTY
VdW
SciTegic.value.DoubleValue
0.757

@<SCITEGIC>MOL_PROPERTY
VdW6
SciTegic.value.DoubleValue
-5.074

@<SCITEGIC>MOL_PROPERTY
VdW12
SciTegic.value.DoubleValue
5.830

@<SCITEGIC>MOL_PROPERTY
Bond
SciTegic.value.DoubleValue
0.172

@<SCITEGIC>MOL_PROPERTY
Angle
SciTegic.value.DoubleValue
1.207

@<SCITEGIC>MOL_PROPERTY
Pdih
SciTegic.value.DoubleValue
1.025

@<SCITEGIC>MOL_PROPERTY
Idih
SciTegic.value.DoubleValue
0.000

@<SCITEGIC>MOL_PROPERTY
Tether
SciTegic.value.DoubleValue
0.000

@<TRIPOS>MOLECULE
guest-s10_confgen4.mol2 : confsearch ligand conformer 56
          20          19           1
SMALL
USER_CHARGES
 
@<TRIPOS>ATOM
       1    N1      21.266874   18.181421   22.785911 N.4        1 MOL1        -0.5937
       2    H1      20.807369   17.456229   22.229290 H          1 MOL1         0.3684
       3    H2      21.452922   17.787689   23.711537 H          1 MOL1         0.3684
       4    H3      22.171612   18.375305   22.348419 H          1 MOL1         0.3684
       5    C1      20.419497   19.421685   22.874650 C.3        1 MOL1         0.1270
       6    H4      20.272250   19.776194   21.850066 H          1 MOL1         0.0960
       7    C2      21.149076   20.522741   23.661353 C.3        1 MOL1        -0.2382
       8    H5      22.118125   20.751713   23.201187 H          1 MOL1         0.1009
       9    H6      21.327625   20.217562   24.699977 H          1 MOL1         0.1009
      10    H7      20.560130   21.448274   23.673758 H          1 MOL1         0.1009
      11    C3      19.031468   19.145986   23.496220 C.3        1 MOL1        -0.1392
      12    H8      19.157597   18.804199   24.532128 H          1 MOL1         0.0998
      13    H9      18.470861   20.088684   23.550691 H          1 MOL1         0.0998
      14    C4      18.182750   18.107460   22.719664 C.3        1 MOL1        -0.1302
      15    H10     17.222730   17.977819   23.238757 H          1 MOL1         0.0998
      16    H11     18.672164   17.124311   22.741051 H          1 MOL1         0.0998
      17    C5      17.908483   18.521869   21.255966 C.3        1 MOL1        -0.2317
      18    H12     17.418670   19.503224   21.209012 H          1 MOL1         0.1009
      19    H13     17.246987   17.794352   20.767898 H          1 MOL1         0.1009
      20    H14     18.834166   18.572418   20.669065 H          1 MOL1         0.1009
@<TRIPOS>BOND
    1     1     2    1
    2     1     3    1
    3     1     4    1
    4     1     5    1
    5     5     6    1
    6     5     7    1
    7     7     8    1
    8     7     9    1
    9     7    10    1
   10     5    11    1
   11    11    12    1
   12    11    13    1
   13    11    14    1
   14    14    15    1
   15    14    16    1
   16    14    17    1
   17    17    18    1
   18    17    19    1
   19    17    20    1
@<TRIPOS>SUBSTRUCTURE
       1 MOL1            1 RESIDUE      1      MOL     
@<SCITEGIC>MOL_PROPERTY
VConf Rank
SciTegic.value.IntegerValue
56

@<SCITEGIC>MOL_PROPERTY
Conf_Id
SciTegic.value.IntegerValue
50

@<SCITEGIC>MOL_PROPERTY
Delta U+W
SciTegic.value.DoubleValue
0.466

@<SCITEGIC>MOL_PROPERTY
U+W
SciTegic.value.DoubleValue
-35.811

@<SCITEGIC>MOL_PROPERTY
Grad RMS
SciTegic.value.DoubleValue
0.000000

@<SCITEGIC>MOL_PROPERTY
U
SciTegic.value.DoubleValue
22.369

@<SCITEGIC>MOL_PROPERTY
W
SciTegic.value.DoubleValue
-58.180

@<SCITEGIC>MOL_PROPERTY
W(PB)
SciTegic.value.DoubleValue
-60.103

@<SCITEGIC>MOL_PROPERTY
W(SA)
SciTegic.value.DoubleValue
1.923

@<SCITEGIC>MOL_PROPERTY
Valence
SciTegic.value.DoubleValue
2.168

@<SCITEGIC>MOL_PROPERTY
Coulomb
SciTegic.value.DoubleValue
19.636

@<SCITEGIC>MOL_PROPERTY
VdW
SciTegic.value.DoubleValue
0.566

@<SCITEGIC>MOL_PROPERTY
VdW6
SciTegic.value.DoubleValue
-5.263

@<SCITEGIC>MOL_PROPERTY
VdW12
SciTegic.value.DoubleValue
5.829

@<SCITEGIC>MOL_PROPERTY
Bond
SciTegic.value.DoubleValue
0.162

@<SCITEGIC>MOL_PROPERTY
Angle
SciTegic.value.DoubleValue
1.066

@<SCITEGIC>MOL_PROPERTY
Pdih
SciTegic.value.DoubleValue
0.939

@<SCITEGIC>MOL_PROPERTY
Idih
SciTegic.value.DoubleValue
0.000

@<SCITEGIC>MOL_PROPERTY
Tether
SciTegic.value.DoubleValue
0.000

@<TRIPOS>MOLECULE
guest-s10_confgen4.mol2 : confsearch ligand conformer 57
          20          19           1
SMALL
USER_CHARGES
 
@<TRIPOS>ATOM
       1    N1      21.093424   20.133610   24.117758 N.4        1 MOL1        -0.5937
       2    H1      21.853600   19.492509   24.360903 H          1 MOL1         0.3684
       3    H2      20.572019   20.331259   24.975629 H          1 MOL1         0.3684
       4    H3      21.523812   21.011344   23.814306 H          1 MOL1         0.3684
       5    C1      20.202870   19.558782   23.049550 C.3        1 MOL1         0.1270
       6    H4      20.844901   19.379553   22.181544 H          1 MOL1         0.0960
       7    C2      19.119803   20.581995   22.659723 C.3        1 MOL1        -0.2382
       8    H5      18.480584   20.826893   23.517096 H          1 MOL1         0.1009
       9    H6      18.476580   20.202380   21.858507 H          1 MOL1         0.1009
      10    H7      19.578081   21.512290   22.302427 H          1 MOL1         0.1009
      11    C3      19.584343   18.205531   23.478929 C.3        1 MOL1        -0.1392
      12    H8      20.152632   17.804013   24.328342 H          1 MOL1         0.0998
      13    H9      18.561452   18.352016   23.850747 H          1 MOL1         0.0998
      14    C4      19.597277   17.128101   22.365035 C.3        1 MOL1        -0.1302
      15    H10     19.213801   16.186758   22.783068 H          1 MOL1         0.0998
      16    H11     20.634089   16.926655   22.060862 H          1 MOL1         0.0998
      17    C5      18.760357   17.496007   21.119866 C.3        1 MOL1        -0.2317
      18    H12     17.727462   17.744927   21.395901 H          1 MOL1         0.1009
      19    H13     18.725039   16.652083   20.418735 H          1 MOL1         0.1009
      20    H14     19.193553   18.349340   20.583401 H          1 MOL1         0.1009
@<TRIPOS>BOND
    1     1     2    1
    2     1     3    1
    3     1     4    1
    4     1     5    1
    5     5     6    1
    6     5     7    1
    7     7     8    1
    8     7     9    1
    9     7    10    1
   10     5    11    1
   11    11    12    1
   12    11    13    1
   13    11    14    1
   14    14    15    1
   15    14    16    1
   16    14    17    1
   17    17    18    1
   18    17    19    1
   19    17    20    1
@<TRIPOS>SUBSTRUCTURE
       1 MOL1            1 RESIDUE      1      MOL     
@<SCITEGIC>MOL_PROPERTY
VConf Rank
SciTegic.value.IntegerValue
57

@<SCITEGIC>MOL_PROPERTY
Conf_Id
SciTegic.value.IntegerValue
3

@<SCITEGIC>MOL_PROPERTY
Delta U+W
SciTegic.value.DoubleValue
3.093

@<SCITEGIC>MOL_PROPERTY
U+W
SciTegic.value.DoubleValue
-33.184

@<SCITEGIC>MOL_PROPERTY
Grad RMS
SciTegic.value.DoubleValue
0.000000

@<SCITEGIC>MOL_PROPERTY
U
SciTegic.value.DoubleValue
25.256

@<SCITEGIC>MOL_PROPERTY
W
SciTegic.value.DoubleValue
-58.439

@<SCITEGIC>MOL_PROPERTY
W(PB)
SciTegic.value.DoubleValue
-60.337

@<SCITEGIC>MOL_PROPERTY
W(SA)
SciTegic.value.DoubleValue
1.898

@<SCITEGIC>MOL_PROPERTY
Valence
SciTegic.value.DoubleValue
4.963

@<SCITEGIC>MOL_PROPERTY
Coulomb
SciTegic.value.DoubleValue
19.511

@<SCITEGIC>MOL_PROPERTY
VdW
SciTegic.value.DoubleValue
0.782

@<SCITEGIC>MOL_PROPERTY
VdW6
SciTegic.value.DoubleValue
-5.429

@<SCITEGIC>MOL_PROPERTY
VdW12
SciTegic.value.DoubleValue
6.211

@<SCITEGIC>MOL_PROPERTY
Bond
SciTegic.value.DoubleValue
0.174

@<SCITEGIC>MOL_PROPERTY
Angle
SciTegic.value.DoubleValue
1.377

@<SCITEGIC>MOL_PROPERTY
Pdih
SciTegic.value.DoubleValue
3.412

@<SCITEGIC>MOL_PROPERTY
Idih
SciTegic.value.DoubleValue
0.000

@<SCITEGIC>MOL_PROPERTY
Tether
SciTegic.value.DoubleValue
0.000

@<TRIPOS>MOLECULE
guest-s10_confgen4.mol2 : confsearch ligand conformer 58
          20          19           1
SMALL
USER_CHARGES
 
@<TRIPOS>ATOM
       1    N1      18.229056   18.718324   21.014615 N.4        1 MOL1        -0.5937
       2    H1      17.214175   18.659798   21.133888 H          1 MOL1         0.3684
       3    H2      18.531240   17.849687   20.565187 H          1 MOL1         0.3684
       4    H3      18.414543   19.482459   20.360111 H          1 MOL1         0.3684
       5    C1      18.926685   18.935263   22.329389 C.3        1 MOL1         0.1270
       6    H4      18.668449   18.078167   22.958513 H          1 MOL1         0.0960
       7    C2      18.402264   20.213012   23.009420 C.3        1 MOL1        -0.2382
       8    H5      18.796017   20.311880   24.027614 H          1 MOL1         0.1009
       9    H6      17.308293   20.189432   23.085601 H          1 MOL1         0.1009
      10    H7      18.684744   21.108961   22.442880 H          1 MOL1         0.1009
      11    C3      20.463465   18.961202   22.150323 C.3        1 MOL1        -0.1392
      12    H8      20.767119   18.066559   21.590918 H          1 MOL1         0.0998
      13    H9      20.742025   19.819995   21.525331 H          1 MOL1         0.0998
      14    C4      21.276125   19.010380   23.469515 C.3        1 MOL1        -0.1302
      15    H10     21.096946   19.959128   23.993008 H          1 MOL1         0.0998
      16    H11     22.347200   19.001379   23.223432 H          1 MOL1         0.0998
      17    C5      20.969633   17.826179   24.414440 C.3        1 MOL1        -0.2317
      18    H12     21.139148   16.865298   23.911320 H          1 MOL1         0.1009
      19    H13     19.931041   17.850488   24.767711 H          1 MOL1         0.1009
      20    H14     21.620139   17.860874   25.297987 H          1 MOL1         0.1009
@<TRIPOS>BOND
    1     1     2    1
    2     1     3    1
    3     1     4    1
    4     1     5    1
    5     5     6    1
    6     5     7    1
    7     7     8    1
    8     7     9    1
    9     7    10    1
   10     5    11    1
   11    11    12    1
   12    11    13    1
   13    11    14    1
   14    14    15    1
   15    14    16    1
   16    14    17    1
   17    17    18    1
   18    17    19    1
   19    17    20    1
@<TRIPOS>SUBSTRUCTURE
       1 MOL1            1 RESIDUE      1      MOL     
@<SCITEGIC>MOL_PROPERTY
VConf Rank
SciTegic.value.IntegerValue
58

@<SCITEGIC>MOL_PROPERTY
Conf_Id
SciTegic.value.IntegerValue
64

@<SCITEGIC>MOL_PROPERTY
Delta U+W
SciTegic.value.DoubleValue
0.544

@<SCITEGIC>MOL_PROPERTY
U+W
SciTegic.value.DoubleValue
-35.732

@<SCITEGIC>MOL_PROPERTY
Grad RMS
SciTegic.value.DoubleValue
0.000000

@<SCITEGIC>MOL_PROPERTY
U
SciTegic.value.DoubleValue
22.800

@<SCITEGIC>MOL_PROPERTY
W
SciTegic.value.DoubleValue
-58.532

@<SCITEGIC>MOL_PROPERTY
W(PB)
SciTegic.value.DoubleValue
-60.437

@<SCITEGIC>MOL_PROPERTY
W(SA)
SciTegic.value.DoubleValue
1.905

@<SCITEGIC>MOL_PROPERTY
Valence
SciTegic.value.DoubleValue
2.662

@<SCITEGIC>MOL_PROPERTY
Coulomb
SciTegic.value.DoubleValue
19.485

@<SCITEGIC>MOL_PROPERTY
VdW
SciTegic.value.DoubleValue
0.653

@<SCITEGIC>MOL_PROPERTY
VdW6
SciTegic.value.DoubleValue
-5.460

@<SCITEGIC>MOL_PROPERTY
VdW12
SciTegic.value.DoubleValue
6.113

@<SCITEGIC>MOL_PROPERTY
Bond
SciTegic.value.DoubleValue
0.174

@<SCITEGIC>MOL_PROPERTY
Angle
SciTegic.value.DoubleValue
1.378

@<SCITEGIC>MOL_PROPERTY
Pdih
SciTegic.value.DoubleValue
1.109

@<SCITEGIC>MOL_PROPERTY
Idih
SciTegic.value.DoubleValue
0.000

@<SCITEGIC>MOL_PROPERTY
Tether
SciTegic.value.DoubleValue
0.000

@<TRIPOS>MOLECULE
guest-s10_confgen4.mol2 : confsearch ligand conformer 59
          20          19           1
SMALL
USER_CHARGES
 
@<TRIPOS>ATOM
       1    N1      20.685127   18.871714   20.788629 N.4        1 MOL1        -0.5937
       2    H1      21.162767   18.103795   21.265529 H          1 MOL1         0.3684
       3    H2      21.402043   19.437735   20.326823 H          1 MOL1         0.3684
       4    H3      20.102174   18.461881   20.053875 H          1 MOL1         0.3684
       5    C1      19.868828   19.694023   21.748992 C.3        1 MOL1         0.1270
       6    H4      19.411759   20.487698   21.149716 H          1 MOL1         0.0960
       7    C2      20.770074   20.369895   22.795260 C.3        1 MOL1        -0.2382
       8    H5      21.366188   19.633902   23.347230 H          1 MOL1         0.1009
       9    H6      20.172401   20.945121   23.513064 H          1 MOL1         0.1009
      10    H7      21.465737   21.064903   22.309475 H          1 MOL1         0.1009
      11    C3      18.710589   18.882935   22.382679 C.3        1 MOL1        -0.1392
      12    H8      18.047341   19.563728   22.932334 H          1 MOL1         0.0998
      13    H9      18.099604   18.487021   21.560834 H          1 MOL1         0.0998
      14    C4      19.123113   17.696436   23.297704 C.3        1 MOL1        -0.1302
      15    H10     20.074020   17.258610   22.966851 H          1 MOL1         0.0998
      16    H11     18.373692   16.899720   23.190027 H          1 MOL1         0.0998
      17    C5      19.202076   18.070241   24.796630 C.3        1 MOL1        -0.2317
      18    H12     19.963963   18.832343   24.993368 H          1 MOL1         0.1009
      19    H13     19.454422   17.187820   25.398810 H          1 MOL1         0.1009
      20    H14     18.238698   18.453422   25.157348 H          1 MOL1         0.1009
@<TRIPOS>BOND
    1     1     2    1
    2     1     3    1
    3     1     4    1
    4     1     5    1
    5     5     6    1
    6     5     7    1
    7     7     8    1
    8     7     9    1
    9     7    10    1
   10     5    11    1
   11    11    12    1
   12    11    13    1
   13    11    14    1
   14    14    15    1
   15    14    16    1
   16    14    17    1
   17    17    18    1
   18    17    19    1
   19    17    20    1
@<TRIPOS>SUBSTRUCTURE
       1 MOL1            1 RESIDUE      1      MOL     
@<SCITEGIC>MOL_PROPERTY
VConf Rank
SciTegic.value.IntegerValue
59

@<SCITEGIC>MOL_PROPERTY
Conf_Id
SciTegic.value.IntegerValue
35

@<SCITEGIC>MOL_PROPERTY
Delta U+W
SciTegic.value.DoubleValue
3.004

@<SCITEGIC>MOL_PROPERTY
U+W
SciTegic.value.DoubleValue
-33.272

@<SCITEGIC>MOL_PROPERTY
Grad RMS
SciTegic.value.DoubleValue
0.000000

@<SCITEGIC>MOL_PROPERTY
U
SciTegic.value.DoubleValue
25.367

@<SCITEGIC>MOL_PROPERTY
W
SciTegic.value.DoubleValue
-58.639

@<SCITEGIC>MOL_PROPERTY
W(PB)
SciTegic.value.DoubleValue
-60.512

@<SCITEGIC>MOL_PROPERTY
W(SA)
SciTegic.value.DoubleValue
1.873

@<SCITEGIC>MOL_PROPERTY
Valence
SciTegic.value.DoubleValue
4.943

@<SCITEGIC>MOL_PROPERTY
Coulomb
SciTegic.value.DoubleValue
19.661

@<SCITEGIC>MOL_PROPERTY
VdW
SciTegic.value.DoubleValue
0.764

@<SCITEGIC>MOL_PROPERTY
VdW6
SciTegic.value.DoubleValue
-5.871

@<SCITEGIC>MOL_PROPERTY
VdW12
SciTegic.value.DoubleValue
6.636

@<SCITEGIC>MOL_PROPERTY
Bond
SciTegic.value.DoubleValue
0.230

@<SCITEGIC>MOL_PROPERTY
Angle
SciTegic.value.DoubleValue
1.857

@<SCITEGIC>MOL_PROPERTY
Pdih
SciTegic.value.DoubleValue
2.855

@<SCITEGIC>MOL_PROPERTY
Idih
SciTegic.value.DoubleValue
0.000

@<SCITEGIC>MOL_PROPERTY
Tether
SciTegic.value.DoubleValue
0.000

@<TRIPOS>MOLECULE
guest-s10_confgen4.mol2 : confsearch ligand conformer 60
          20          19           1
SMALL
USER_CHARGES
 
@<TRIPOS>ATOM
       1    N1      19.374450   17.243695   22.814998 N.4        1 MOL1        -0.5937
       2    H1      18.530953   16.664009   22.823878 H          1 MOL1         0.3684
       3    H2      20.138108   16.676094   23.192140 H          1 MOL1         0.3684
       4    H3      19.598999   17.449377   21.839668 H          1 MOL1         0.3684
       5    C1      19.184027   18.507538   23.608034 C.3        1 MOL1         0.1270
       6    H4      18.976185   18.178510   24.631005 H          1 MOL1         0.0960
       7    C2      17.954870   19.295720   23.121769 C.3        1 MOL1        -0.2382
       8    H5      18.048293   19.581538   22.067315 H          1 MOL1         0.1009
       9    H6      17.818337   20.208204   23.715192 H          1 MOL1         0.1009
      10    H7      17.045229   18.691895   23.226253 H          1 MOL1         0.1009
      11    C3      20.461348   19.383854   23.669942 C.3        1 MOL1        -0.1392
      12    H8      20.337577   20.093523   24.498552 H          1 MOL1         0.0998
      13    H9      21.312780   18.751549   23.953617 H          1 MOL1         0.0998
      14    C4      20.829415   20.198597   22.398204 C.3        1 MOL1        -0.1302
      15    H10     21.725291   20.793704   22.624208 H          1 MOL1         0.0998
      16    H11     20.040535   20.928747   22.171971 H          1 MOL1         0.0998
      17    C5      21.119985   19.342193   21.144784 C.3        1 MOL1        -0.2317
      18    H12     21.843954   18.546838   21.364831 H          1 MOL1         0.1009
      19    H13     21.544504   19.966905   20.348111 H          1 MOL1         0.1009
      20    H14     20.205772   18.889054   20.744600 H          1 MOL1         0.1009
@<TRIPOS>BOND
    1     1     2    1
    2     1     3    1
    3     1     4    1
    4     1     5    1
    5     5     6    1
    6     5     7    1
    7     7     8    1
    8     7     9    1
    9     7    10    1
   10     5    11    1
   11    11    12    1
   12    11    13    1
   13    11    14    1
   14    14    15    1
   15    14    16    1
   16    14    17    1
   17    17    18    1
   18    17    19    1
   19    17    20    1
@<TRIPOS>SUBSTRUCTURE
       1 MOL1            1 RESIDUE      1      MOL     
@<SCITEGIC>MOL_PROPERTY
VConf Rank
SciTegic.value.IntegerValue
60

@<SCITEGIC>MOL_PROPERTY
Conf_Id
SciTegic.value.IntegerValue
55

@<SCITEGIC>MOL_PROPERTY
Delta U+W
SciTegic.value.DoubleValue
2.767

@<SCITEGIC>MOL_PROPERTY
U+W
SciTegic.value.DoubleValue
-33.509

@<SCITEGIC>MOL_PROPERTY
Grad RMS
SciTegic.value.DoubleValue
0.000000

@<SCITEGIC>MOL_PROPERTY
U
SciTegic.value.DoubleValue
24.552

@<SCITEGIC>MOL_PROPERTY
W
SciTegic.value.DoubleValue
-58.061

@<SCITEGIC>MOL_PROPERTY
W(PB)
SciTegic.value.DoubleValue
-59.930

@<SCITEGIC>MOL_PROPERTY
W(SA)
SciTegic.value.DoubleValue
1.869

@<SCITEGIC>MOL_PROPERTY
Valence
SciTegic.value.DoubleValue
3.726

@<SCITEGIC>MOL_PROPERTY
Coulomb
SciTegic.value.DoubleValue
20.219

@<SCITEGIC>MOL_PROPERTY
VdW
SciTegic.value.DoubleValue
0.606

@<SCITEGIC>MOL_PROPERTY
VdW6
SciTegic.value.DoubleValue
-6.395

@<SCITEGIC>MOL_PROPERTY
VdW12
SciTegic.value.DoubleValue
7.001

@<SCITEGIC>MOL_PROPERTY
Bond
SciTegic.value.DoubleValue
0.241

@<SCITEGIC>MOL_PROPERTY
Angle
SciTegic.value.DoubleValue
2.098

@<SCITEGIC>MOL_PROPERTY
Pdih
SciTegic.value.DoubleValue
1.387

@<SCITEGIC>MOL_PROPERTY
Idih
SciTegic.value.DoubleValue
0.000

@<SCITEGIC>MOL_PROPERTY
Tether
SciTegic.value.DoubleValue
0.000

@<TRIPOS>MOLECULE
guest-s10_confgen4.mol2 : confsearch ligand conformer 61
          20          19           1
SMALL
USER_CHARGES
 
@<TRIPOS>ATOM
       1    N1      19.159551   18.533168   24.552629 N.4        1 MOL1        -0.5937
       2    H1      19.731907   19.227759   25.038937 H          1 MOL1         0.3684
       3    H2      18.953573   17.785651   25.220798 H          1 MOL1         0.3684
       4    H3      18.270875   18.979912   24.313349 H          1 MOL1         0.3684
       5    C1      19.857671   18.001903   23.329744 C.3        1 MOL1         0.1270
       6    H4      19.180213   17.274628   22.871477 H          1 MOL1         0.0960
       7    C2      21.153060   17.272260   23.721607 C.3        1 MOL1        -0.2382
       8    H5      20.943352   16.462186   24.430879 H          1 MOL1         0.1009
       9    H6      21.870038   17.958711   24.189070 H          1 MOL1         0.1009
      10    H7      21.631594   16.826607   22.840677 H          1 MOL1         0.1009
      11    C3      20.156194   19.105049   22.290464 C.3        1 MOL1        -0.1392
      12    H8      20.816807   19.861915   22.733929 H          1 MOL1         0.0998
      13    H9      20.708324   18.661026   21.451380 H          1 MOL1         0.0998
      14    C4      18.877309   19.783245   21.742721 C.3        1 MOL1        -0.1302
      15    H10     18.334986   20.284230   22.555941 H          1 MOL1         0.0998
      16    H11     18.200903   19.020650   21.331424 H          1 MOL1         0.0998
      17    C5      19.206448   20.819052   20.646330 C.3        1 MOL1        -0.2317
      18    H12     19.857727   21.612592   21.035413 H          1 MOL1         0.1009
      19    H13     18.289139   21.290700   20.270593 H          1 MOL1         0.1009
      20    H14     19.714336   20.346681   19.795361 H          1 MOL1         0.1009
@<TRIPOS>BOND
    1     1     2    1
    2     1     3    1
    3     1     4    1
    4     1     5    1
    5     5     6    1
    6     5     7    1
    7     7     8    1
    8     7     9    1
    9     7    10    1
   10     5    11    1
   11    11    12    1
   12    11    13    1
   13    11    14    1
   14    14    15    1
   15    14    16    1
   16    14    17    1
   17    17    18    1
   18    17    19    1
   19    17    20    1
@<TRIPOS>SUBSTRUCTURE
       1 MOL1            1 RESIDUE      1      MOL     
@<SCITEGIC>MOL_PROPERTY
VConf Rank
SciTegic.value.IntegerValue
61

@<SCITEGIC>MOL_PROPERTY
Conf_Id
SciTegic.value.IntegerValue
74

@<SCITEGIC>MOL_PROPERTY
Delta U+W
SciTegic.value.DoubleValue
0.000

@<SCITEGIC>MOL_PROPERTY
U+W
SciTegic.value.DoubleValue
-36.276

@<SCITEGIC>MOL_PROPERTY
Grad RMS
SciTegic.value.DoubleValue
0.000000

@<SCITEGIC>MOL_PROPERTY
U
SciTegic.value.DoubleValue
22.080

@<SCITEGIC>MOL_PROPERTY
W
SciTegic.value.DoubleValue
-58.356

@<SCITEGIC>MOL_PROPERTY
W(PB)
SciTegic.value.DoubleValue
-60.289

@<SCITEGIC>MOL_PROPERTY
W(SA)
SciTegic.value.DoubleValue
1.932

@<SCITEGIC>MOL_PROPERTY
Valence
SciTegic.value.DoubleValue
1.885

@<SCITEGIC>MOL_PROPERTY
Coulomb
SciTegic.value.DoubleValue
19.559

@<SCITEGIC>MOL_PROPERTY
VdW
SciTegic.value.DoubleValue
0.637

@<SCITEGIC>MOL_PROPERTY
VdW6
SciTegic.value.DoubleValue
-4.482

@<SCITEGIC>MOL_PROPERTY
VdW12
SciTegic.value.DoubleValue
5.119

@<SCITEGIC>MOL_PROPERTY
Bond
SciTegic.value.DoubleValue
0.136

@<SCITEGIC>MOL_PROPERTY
Angle
SciTegic.value.DoubleValue
0.867

@<SCITEGIC>MOL_PROPERTY
Pdih
SciTegic.value.DoubleValue
0.882

@<SCITEGIC>MOL_PROPERTY
Idih
SciTegic.value.DoubleValue
0.000

@<SCITEGIC>MOL_PROPERTY
Tether
SciTegic.value.DoubleValue
0.000

@<TRIPOS>MOLECULE
guest-s10_confgen4.mol2 : confsearch ligand conformer 62
          20          19           1
SMALL
USER_CHARGES
 
@<TRIPOS>ATOM
       1    N1      18.254595   20.776661   23.060376 N.4        1 MOL1        -0.5937
       2    H1      17.982774   21.005539   22.100383 H          1 MOL1         0.3684
       3    H2      18.948794   21.467930   23.355268 H          1 MOL1         0.3684
       4    H3      17.426745   20.907248   23.647991 H          1 MOL1         0.3684
       5    C1      18.790242   19.375176   23.167091 C.3        1 MOL1         0.1270
       6    H4      17.984974   18.711599   22.836828 H          1 MOL1         0.0960
       7    C2      19.124716   19.041616   24.632582 C.3        1 MOL1        -0.2382
       8    H5      18.264411   19.246594   25.281490 H          1 MOL1         0.1009
       9    H6      19.971714   19.638782   24.992537 H          1 MOL1         0.1009
      10    H7      19.375217   17.981517   24.753672 H          1 MOL1         0.1009
      11    C3      20.002982   19.167053   22.230376 C.3        1 MOL1        -0.1392
      12    H8      19.732566   19.523449   21.227621 H          1 MOL1         0.0998
      13    H9      20.841228   19.791811   22.566339 H          1 MOL1         0.0998
      14    C4      20.462543   17.692651   22.120354 C.3        1 MOL1        -0.1302
      15    H10     19.608555   17.057729   21.845308 H          1 MOL1         0.0998
      16    H11     20.826888   17.333384   23.091992 H          1 MOL1         0.0998
      17    C5      21.584614   17.522267   21.073641 C.3        1 MOL1        -0.2317
      18    H12     21.245656   17.830805   20.076069 H          1 MOL1         0.1009
      19    H13     21.900616   16.472814   21.011369 H          1 MOL1         0.1009
      20    H14     22.464628   18.123614   21.336733 H          1 MOL1         0.1009
@<TRIPOS>BOND
    1     1     2    1
    2     1     3    1
    3     1     4    1
    4     1     5    1
    5     5     6    1
    6     5     7    1
    7     7     8    1
    8     7     9    1
    9     7    10    1
   10     5    11    1
   11    11    12    1
   12    11    13    1
   13    11    14    1
   14    14    15    1
   15    14    16    1
   16    14    17    1
   17    17    18    1
   18    17    19    1
   19    17    20    1
@<TRIPOS>SUBSTRUCTURE
       1 MOL1            1 RESIDUE      1      MOL     
@<SCITEGIC>MOL_PROPERTY
VConf Rank
SciTegic.value.IntegerValue
62

@<SCITEGIC>MOL_PROPERTY
Conf_Id
SciTegic.value.IntegerValue
80

@<SCITEGIC>MOL_PROPERTY
Delta U+W
SciTegic.value.DoubleValue
0.460

@<SCITEGIC>MOL_PROPERTY
U+W
SciTegic.value.DoubleValue
-35.817

@<SCITEGIC>MOL_PROPERTY
Grad RMS
SciTegic.value.DoubleValue
0.000000

@<SCITEGIC>MOL_PROPERTY
U
SciTegic.value.DoubleValue
22.495

@<SCITEGIC>MOL_PROPERTY
W
SciTegic.value.DoubleValue
-58.311

@<SCITEGIC>MOL_PROPERTY
W(PB)
SciTegic.value.DoubleValue
-60.259

@<SCITEGIC>MOL_PROPERTY
W(SA)
SciTegic.value.DoubleValue
1.948

@<SCITEGIC>MOL_PROPERTY
Valence
SciTegic.value.DoubleValue
2.419

@<SCITEGIC>MOL_PROPERTY
Coulomb
SciTegic.value.DoubleValue
19.304

@<SCITEGIC>MOL_PROPERTY
VdW
SciTegic.value.DoubleValue
0.772

@<SCITEGIC>MOL_PROPERTY
VdW6
SciTegic.value.DoubleValue
-4.635

@<SCITEGIC>MOL_PROPERTY
VdW12
SciTegic.value.DoubleValue
5.407

@<SCITEGIC>MOL_PROPERTY
Bond
SciTegic.value.DoubleValue
0.149

@<SCITEGIC>MOL_PROPERTY
Angle
SciTegic.value.DoubleValue
1.142

@<SCITEGIC>MOL_PROPERTY
Pdih
SciTegic.value.DoubleValue
1.129

@<SCITEGIC>MOL_PROPERTY
Idih
SciTegic.value.DoubleValue
0.000

@<SCITEGIC>MOL_PROPERTY
Tether
SciTegic.value.DoubleValue
0.000

@<TRIPOS>MOLECULE
guest-s10_confgen4.mol2 : confsearch ligand conformer 63
          20          19           1
SMALL
USER_CHARGES
 
@<TRIPOS>ATOM
       1    N1      17.466361   19.587052   22.525515 N.4        1 MOL1        -0.5937
       2    H1      16.906761   18.886984   22.030982 H          1 MOL1         0.3684
       3    H2      17.664541   20.343110   21.865370 H          1 MOL1         0.3684
       4    H3      16.877141   19.976701   23.266196 H          1 MOL1         0.3684
       5    C1      18.731846   18.994799   23.082770 C.3        1 MOL1         0.1270
       6    H4      18.421716   18.206836   23.776119 H          1 MOL1         0.0960
       7    C2      19.509290   20.055170   23.881175 C.3        1 MOL1        -0.2382
       8    H5      18.852462   20.554857   24.603695 H          1 MOL1         0.1009
       9    H6      19.932910   20.820651   23.219330 H          1 MOL1         0.1009
      10    H7      20.324741   19.596858   24.452137 H          1 MOL1         0.1009
      11    C3      19.580131   18.342879   21.963507 C.3        1 MOL1        -0.1392
      12    H8      18.933107   17.633380   21.430907 H          1 MOL1         0.0998
      13    H9      19.871349   19.096820   21.220208 H          1 MOL1         0.0998
      14    C4      20.828794   17.564641   22.456284 C.3        1 MOL1        -0.1302
      15    H10     20.957976   16.673992   21.825274 H          1 MOL1         0.0998
      16    H11     20.667200   17.189371   23.476591 H          1 MOL1         0.0998
      17    C5      22.135149   18.390214   22.386286 C.3        1 MOL1        -0.2317
      18    H12     22.344600   18.705758   21.355908 H          1 MOL1         0.1009
      19    H13     22.987674   17.789794   22.729328 H          1 MOL1         0.1009
      20    H14     22.090086   19.289193   23.011065 H          1 MOL1         0.1009
@<TRIPOS>BOND
    1     1     2    1
    2     1     3    1
    3     1     4    1
    4     1     5    1
    5     5     6    1
    6     5     7    1
    7     7     8    1
    8     7     9    1
    9     7    10    1
   10     5    11    1
   11    11    12    1
   12    11    13    1
   13    11    14    1
   14    14    15    1
   15    14    16    1
   16    14    17    1
   17    17    18    1
   18    17    19    1
   19    17    20    1
@<TRIPOS>SUBSTRUCTURE
       1 MOL1            1 RESIDUE      1      MOL     
@<SCITEGIC>MOL_PROPERTY
VConf Rank
SciTegic.value.IntegerValue
63

@<SCITEGIC>MOL_PROPERTY
Conf_Id
SciTegic.value.IntegerValue
52

@<SCITEGIC>MOL_PROPERTY
Delta U+W
SciTegic.value.DoubleValue
2.995

@<SCITEGIC>MOL_PROPERTY
U+W
SciTegic.value.DoubleValue
-33.282

@<SCITEGIC>MOL_PROPERTY
Grad RMS
SciTegic.value.DoubleValue
0.000000

@<SCITEGIC>MOL_PROPERTY
U
SciTegic.value.DoubleValue
25.224

@<SCITEGIC>MOL_PROPERTY
W
SciTegic.value.DoubleValue
-58.506

@<SCITEGIC>MOL_PROPERTY
W(PB)
SciTegic.value.DoubleValue
-60.411

@<SCITEGIC>MOL_PROPERTY
W(SA)
SciTegic.value.DoubleValue
1.905

@<SCITEGIC>MOL_PROPERTY
Valence
SciTegic.value.DoubleValue
4.945

@<SCITEGIC>MOL_PROPERTY
Coulomb
SciTegic.value.DoubleValue
19.467

@<SCITEGIC>MOL_PROPERTY
VdW
SciTegic.value.DoubleValue
0.813

@<SCITEGIC>MOL_PROPERTY
VdW6
SciTegic.value.DoubleValue
-5.458

@<SCITEGIC>MOL_PROPERTY
VdW12
SciTegic.value.DoubleValue
6.270

@<SCITEGIC>MOL_PROPERTY
Bond
SciTegic.value.DoubleValue
0.200

@<SCITEGIC>MOL_PROPERTY
Angle
SciTegic.value.DoubleValue
1.675

@<SCITEGIC>MOL_PROPERTY
Pdih
SciTegic.value.DoubleValue
3.070

@<SCITEGIC>MOL_PROPERTY
Idih
SciTegic.value.DoubleValue
0.000

@<SCITEGIC>MOL_PROPERTY
Tether
SciTegic.value.DoubleValue
0.000

@<TRIPOS>MOLECULE
guest-s10_confgen4.mol2 : confsearch ligand conformer 64
          20          19           1
SMALL
USER_CHARGES
 
@<TRIPOS>ATOM
       1    N1      19.085715   18.255112   24.013623 N.4        1 MOL1        -0.5937
       2    H1      19.859236   17.744758   24.446729 H          1 MOL1         0.3684
       3    H2      18.216228   17.809090   24.318098 H          1 MOL1         0.3684
       4    H3      19.095273   19.204407   24.392744 H          1 MOL1         0.3684
       5    C1      19.206279   18.264638   22.514082 C.3        1 MOL1         0.1270
       6    H4      18.324795   18.782271   22.123215 H          1 MOL1         0.0960
       7    C2      19.192630   16.822066   21.980642 C.3        1 MOL1        -0.2382
       8    H5      20.067665   16.260679   22.331380 H          1 MOL1         0.1009
       9    H6      19.196342   16.810608   20.883600 H          1 MOL1         0.1009
      10    H7      18.291111   16.293026   22.313382 H          1 MOL1         0.1009
      11    C3      20.467798   19.011105   22.018509 C.3        1 MOL1        -0.1392
      12    H8      21.346237   18.681306   22.588729 H          1 MOL1         0.0998
      13    H9      20.660090   18.720170   20.977132 H          1 MOL1         0.0998
      14    C4      20.361537   20.558498   22.048377 C.3        1 MOL1        -0.1302
      15    H10     19.507872   20.882850   21.436752 H          1 MOL1         0.0998
      16    H11     21.256169   20.972294   21.562133 H          1 MOL1         0.0998
      17    C5      20.247205   21.174436   23.461442 C.3        1 MOL1        -0.2317
      18    H12     20.379993   22.263108   23.411961 H          1 MOL1         0.1009
      19    H13     21.017874   20.776386   24.134451 H          1 MOL1         0.1009
      20    H14     19.260344   20.993460   23.902795 H          1 MOL1         0.1009
@<TRIPOS>BOND
    1     1     2    1
    2     1     3    1
    3     1     4    1
    4     1     5    1
    5     5     6    1
    6     5     7    1
    7     7     8    1
    8     7     9    1
    9     7    10    1
   10     5    11    1
   11    11    12    1
   12    11    13    1
   13    11    14    1
   14    14    15    1
   15    14    16    1
   16    14    17    1
   17    17    18    1
   18    17    19    1
   19    17    20    1
@<TRIPOS>SUBSTRUCTURE
       1 MOL1            1 RESIDUE      1      MOL     
@<SCITEGIC>MOL_PROPERTY
VConf Rank
SciTegic.value.IntegerValue
64

@<SCITEGIC>MOL_PROPERTY
Conf_Id
SciTegic.value.IntegerValue
54

@<SCITEGIC>MOL_PROPERTY
Delta U+W
SciTegic.value.DoubleValue
2.752

@<SCITEGIC>MOL_PROPERTY
U+W
SciTegic.value.DoubleValue
-33.525

@<SCITEGIC>MOL_PROPERTY
Grad RMS
SciTegic.value.DoubleValue
0.000000

@<SCITEGIC>MOL_PROPERTY
U
SciTegic.value.DoubleValue
24.337

@<SCITEGIC>MOL_PROPERTY
W
SciTegic.value.DoubleValue
-57.862

@<SCITEGIC>MOL_PROPERTY
W(PB)
SciTegic.value.DoubleValue
-59.764

@<SCITEGIC>MOL_PROPERTY
W(SA)
SciTegic.value.DoubleValue
1.901

@<SCITEGIC>MOL_PROPERTY
Valence
SciTegic.value.DoubleValue
3.593

@<SCITEGIC>MOL_PROPERTY
Coulomb
SciTegic.value.DoubleValue
20.067

@<SCITEGIC>MOL_PROPERTY
VdW
SciTegic.value.DoubleValue
0.677

@<SCITEGIC>MOL_PROPERTY
VdW6
SciTegic.value.DoubleValue
-5.466

@<SCITEGIC>MOL_PROPERTY
VdW12
SciTegic.value.DoubleValue
6.144

@<SCITEGIC>MOL_PROPERTY
Bond
SciTegic.value.DoubleValue
0.191

@<SCITEGIC>MOL_PROPERTY
Angle
SciTegic.value.DoubleValue
1.557

@<SCITEGIC>MOL_PROPERTY
Pdih
SciTegic.value.DoubleValue
1.845

@<SCITEGIC>MOL_PROPERTY
Idih
SciTegic.value.DoubleValue
0.000

@<SCITEGIC>MOL_PROPERTY
Tether
SciTegic.value.DoubleValue
0.000

@<TRIPOS>MOLECULE
guest-s10_confgen4.mol2 : confsearch ligand conformer 65
          20          19           1
SMALL
USER_CHARGES
 
@<TRIPOS>ATOM
       1    N1      19.472695   20.931589   22.167245 N.4        1 MOL1        -0.5937
       2    H1      18.811623   21.712475   22.196485 H          1 MOL1         0.3684
       3    H2      20.042330   21.047342   21.324732 H          1 MOL1         0.3684
       4    H3      20.093860   21.027097   22.973768 H          1 MOL1         0.3684
       5    C1      18.760241   19.606361   22.175555 C.3        1 MOL1         0.1270
       6    H4      18.112988   19.605195   21.292897 H          1 MOL1         0.0960
       7    C2      17.855885   19.472474   23.413722 C.3        1 MOL1        -0.2382
       8    H5      17.339718   18.504469   23.416992 H          1 MOL1         0.1009
       9    H6      17.089508   20.257172   23.415453 H          1 MOL1         0.1009
      10    H7      18.427018   19.560881   24.345404 H          1 MOL1         0.1009
      11    C3      19.731622   18.410122   22.032436 C.3        1 MOL1        -0.1392
      12    H8      19.144036   17.485757   21.954790 H          1 MOL1         0.0998
      13    H9      20.265094   18.508629   21.077915 H          1 MOL1         0.0998
      14    C4      20.764662   18.264875   23.179639 C.3        1 MOL1        -0.1302
      15    H10     20.249884   18.113184   24.137765 H          1 MOL1         0.0998
      16    H11     21.355243   19.185676   23.277114 H          1 MOL1         0.0998
      17    C5      21.720833   17.078015   22.933813 C.3        1 MOL1        -0.2317
      18    H12     22.444277   16.986507   23.754374 H          1 MOL1         0.1009
      19    H13     22.285037   17.211246   22.001534 H          1 MOL1         0.1009
      20    H14     21.167521   16.132234   22.866238 H          1 MOL1         0.1009
@<TRIPOS>BOND
    1     1     2    1
    2     1     3    1
    3     1     4    1
    4     1     5    1
    5     5     6    1
    6     5     7    1
    7     7     8    1
    8     7     9    1
    9     7    10    1
   10     5    11    1
   11    11    12    1
   12    11    13    1
   13    11    14    1
   14    14    15    1
   15    14    16    1
   16    14    17    1
   17    17    18    1
   18    17    19    1
   19    17    20    1
@<TRIPOS>SUBSTRUCTURE
       1 MOL1            1 RESIDUE      1      MOL     
@<SCITEGIC>MOL_PROPERTY
VConf Rank
SciTegic.value.IntegerValue
65

@<SCITEGIC>MOL_PROPERTY
Conf_Id
SciTegic.value.IntegerValue
63

@<SCITEGIC>MOL_PROPERTY
Delta U+W
SciTegic.value.DoubleValue
0.420

@<SCITEGIC>MOL_PROPERTY
U+W
SciTegic.value.DoubleValue
-35.856

@<SCITEGIC>MOL_PROPERTY
Grad RMS
SciTegic.value.DoubleValue
0.000000

@<SCITEGIC>MOL_PROPERTY
U
SciTegic.value.DoubleValue
22.625

@<SCITEGIC>MOL_PROPERTY
W
SciTegic.value.DoubleValue
-58.481

@<SCITEGIC>MOL_PROPERTY
W(PB)
SciTegic.value.DoubleValue
-60.400

@<SCITEGIC>MOL_PROPERTY
W(SA)
SciTegic.value.DoubleValue
1.919

@<SCITEGIC>MOL_PROPERTY
Valence
SciTegic.value.DoubleValue
2.404

@<SCITEGIC>MOL_PROPERTY
Coulomb
SciTegic.value.DoubleValue
19.464

@<SCITEGIC>MOL_PROPERTY
VdW
SciTegic.value.DoubleValue
0.757

@<SCITEGIC>MOL_PROPERTY
VdW6
SciTegic.value.DoubleValue
-5.074

@<SCITEGIC>MOL_PROPERTY
VdW12
SciTegic.value.DoubleValue
5.830

@<SCITEGIC>MOL_PROPERTY
Bond
SciTegic.value.DoubleValue
0.172

@<SCITEGIC>MOL_PROPERTY
Angle
SciTegic.value.DoubleValue
1.207

@<SCITEGIC>MOL_PROPERTY
Pdih
SciTegic.value.DoubleValue
1.025

@<SCITEGIC>MOL_PROPERTY
Idih
SciTegic.value.DoubleValue
0.000

@<SCITEGIC>MOL_PROPERTY
Tether
SciTegic.value.DoubleValue
0.000

@<TRIPOS>MOLECULE
guest-s10_confgen4.mol2 : confsearch ligand conformer 66
          20          19           1
SMALL
USER_CHARGES
 
@<TRIPOS>ATOM
       1    N1      19.826204   17.433805   23.616885 N.4        1 MOL1        -0.5937
       2    H1      20.742171   17.372721   23.165058 H          1 MOL1         0.3684
       3    H2      19.222106   16.730329   23.184904 H          1 MOL1         0.3684
       4    H3      19.950880   17.169328   24.597727 H          1 MOL1         0.3684
       5    C1      19.243650   18.815119   23.487351 C.3        1 MOL1         0.1270
       6    H4      19.945138   19.499414   23.973956 H          1 MOL1         0.0960
       7    C2      17.897024   18.907800   24.223232 C.3        1 MOL1        -0.2382
       8    H5      18.012452   18.637135   25.279950 H          1 MOL1         0.1009
       9    H6      17.153256   18.235510   23.777599 H          1 MOL1         0.1009
      10    H7      17.500701   19.930036   24.183415 H          1 MOL1         0.1009
      11    C3      19.082850   19.252998   22.013788 C.3        1 MOL1        -0.1392
      12    H8      18.368590   18.586973   21.511716 H          1 MOL1         0.0998
      13    H9      18.637790   20.256528   21.985892 H          1 MOL1         0.0998
      14    C4      20.407406   19.274472   21.209432 C.3        1 MOL1        -0.1302
      15    H10     20.189594   19.591954   20.180032 H          1 MOL1         0.0998
      16    H11     20.820847   18.259850   21.130854 H          1 MOL1         0.0998
      17    C5      21.467258   20.224331   21.812632 C.3        1 MOL1        -0.2317
      18    H12     21.076309   21.246352   21.901026 H          1 MOL1         0.1009
      19    H13     22.358684   20.261522   21.173067 H          1 MOL1         0.1009
      20    H14     21.788447   19.892956   22.808083 H          1 MOL1         0.1009
@<TRIPOS>BOND
    1     1     2    1
    2     1     3    1
    3     1     4    1
    4     1     5    1
    5     5     6    1
    6     5     7    1
    7     7     8    1
    8     7     9    1
    9     7    10    1
   10     5    11    1
   11    11    12    1
   12    11    13    1
   13    11    14    1
   14    14    15    1
   15    14    16    1
   16    14    17    1
   17    17    18    1
   18    17    19    1
   19    17    20    1
@<TRIPOS>SUBSTRUCTURE
       1 MOL1            1 RESIDUE      1      MOL     
@<SCITEGIC>MOL_PROPERTY
VConf Rank
SciTegic.value.IntegerValue
66

@<SCITEGIC>MOL_PROPERTY
Conf_Id
SciTegic.value.IntegerValue
50

@<SCITEGIC>MOL_PROPERTY
Delta U+W
SciTegic.value.DoubleValue
0.466

@<SCITEGIC>MOL_PROPERTY
U+W
SciTegic.value.DoubleValue
-35.811

@<SCITEGIC>MOL_PROPERTY
Grad RMS
SciTegic.value.DoubleValue
0.000000

@<SCITEGIC>MOL_PROPERTY
U
SciTegic.value.DoubleValue
22.369

@<SCITEGIC>MOL_PROPERTY
W
SciTegic.value.DoubleValue
-58.180

@<SCITEGIC>MOL_PROPERTY
W(PB)
SciTegic.value.DoubleValue
-60.103

@<SCITEGIC>MOL_PROPERTY
W(SA)
SciTegic.value.DoubleValue
1.923

@<SCITEGIC>MOL_PROPERTY
Valence
SciTegic.value.DoubleValue
2.168

@<SCITEGIC>MOL_PROPERTY
Coulomb
SciTegic.value.DoubleValue
19.636

@<SCITEGIC>MOL_PROPERTY
VdW
SciTegic.value.DoubleValue
0.566

@<SCITEGIC>MOL_PROPERTY
VdW6
SciTegic.value.DoubleValue
-5.263

@<SCITEGIC>MOL_PROPERTY
VdW12
SciTegic.value.DoubleValue
5.829

@<SCITEGIC>MOL_PROPERTY
Bond
SciTegic.value.DoubleValue
0.162

@<SCITEGIC>MOL_PROPERTY
Angle
SciTegic.value.DoubleValue
1.066

@<SCITEGIC>MOL_PROPERTY
Pdih
SciTegic.value.DoubleValue
0.939

@<SCITEGIC>MOL_PROPERTY
Idih
SciTegic.value.DoubleValue
0.000

@<SCITEGIC>MOL_PROPERTY
Tether
SciTegic.value.DoubleValue
0.000

@<TRIPOS>MOLECULE
guest-s10_confgen4.mol2 : confsearch ligand conformer 67
          20          19           1
SMALL
USER_CHARGES
 
@<TRIPOS>ATOM
       1    N1      17.958976   17.658716   21.869305 N.4        1 MOL1        -0.5937
       2    H1      18.415176   16.869162   21.404029 H          1 MOL1         0.3684
       3    H2      17.529322   18.236942   21.142722 H          1 MOL1         0.3684
       4    H3      17.201197   17.275752   22.441008 H          1 MOL1         0.3684
       5    C1      18.931467   18.449499   22.702075 C.3        1 MOL1         0.1270
       6    H4      19.337129   17.751875   23.441345 H          1 MOL1         0.0960
       7    C2      18.193039   19.579863   23.442997 C.3        1 MOL1        -0.2382
       8    H5      17.729096   20.278743   22.735899 H          1 MOL1         0.1009
       9    H6      18.872032   20.151968   24.084445 H          1 MOL1         0.1009
      10    H7      17.401676   19.169988   24.082431 H          1 MOL1         0.1009
      11    C3      20.108915   18.993068   21.855682 C.3        1 MOL1        -0.1392
      12    H8      20.152936   18.443255   20.906240 H          1 MOL1         0.0998
      13    H9      19.932427   20.041793   21.581747 H          1 MOL1         0.0998
      14    C4      21.492580   18.846135   22.538078 C.3        1 MOL1        -0.1302
      15    H10     22.267654   19.183902   21.835863 H          1 MOL1         0.0998
      16    H11     21.696767   17.783225   22.729417 H          1 MOL1         0.0998
      17    C5      21.635433   19.640453   23.855230 C.3        1 MOL1        -0.2317
      18    H12     21.395818   20.701322   23.706335 H          1 MOL1         0.1009
      19    H13     22.665525   19.579614   24.229729 H          1 MOL1         0.1009
      20    H14     20.978515   19.240770   24.637753 H          1 MOL1         0.1009
@<TRIPOS>BOND
    1     1     2    1
    2     1     3    1
    3     1     4    1
    4     1     5    1
    5     5     6    1
    6     5     7    1
    7     7     8    1
    8     7     9    1
    9     7    10    1
   10     5    11    1
   11    11    12    1
   12    11    13    1
   13    11    14    1
   14    14    15    1
   15    14    16    1
   16    14    17    1
   17    17    18    1
   18    17    19    1
   19    17    20    1
@<TRIPOS>SUBSTRUCTURE
       1 MOL1            1 RESIDUE      1      MOL     
@<SCITEGIC>MOL_PROPERTY
VConf Rank
SciTegic.value.IntegerValue
67

@<SCITEGIC>MOL_PROPERTY
Conf_Id
SciTegic.value.IntegerValue
3

@<SCITEGIC>MOL_PROPERTY
Delta U+W
SciTegic.value.DoubleValue
3.093

@<SCITEGIC>MOL_PROPERTY
U+W
SciTegic.value.DoubleValue
-33.184

@<SCITEGIC>MOL_PROPERTY
Grad RMS
SciTegic.value.DoubleValue
0.000000

@<SCITEGIC>MOL_PROPERTY
U
SciTegic.value.DoubleValue
25.256

@<SCITEGIC>MOL_PROPERTY
W
SciTegic.value.DoubleValue
-58.439

@<SCITEGIC>MOL_PROPERTY
W(PB)
SciTegic.value.DoubleValue
-60.337

@<SCITEGIC>MOL_PROPERTY
W(SA)
SciTegic.value.DoubleValue
1.898

@<SCITEGIC>MOL_PROPERTY
Valence
SciTegic.value.DoubleValue
4.963

@<SCITEGIC>MOL_PROPERTY
Coulomb
SciTegic.value.DoubleValue
19.511

@<SCITEGIC>MOL_PROPERTY
VdW
SciTegic.value.DoubleValue
0.782

@<SCITEGIC>MOL_PROPERTY
VdW6
SciTegic.value.DoubleValue
-5.429

@<SCITEGIC>MOL_PROPERTY
VdW12
SciTegic.value.DoubleValue
6.211

@<SCITEGIC>MOL_PROPERTY
Bond
SciTegic.value.DoubleValue
0.174

@<SCITEGIC>MOL_PROPERTY
Angle
SciTegic.value.DoubleValue
1.377

@<SCITEGIC>MOL_PROPERTY
Pdih
SciTegic.value.DoubleValue
3.412

@<SCITEGIC>MOL_PROPERTY
Idih
SciTegic.value.DoubleValue
0.000

@<SCITEGIC>MOL_PROPERTY
Tether
SciTegic.value.DoubleValue
0.000

@<TRIPOS>MOLECULE
guest-s10_confgen4.mol2 : confsearch ligand conformer 68
          20          19           1
SMALL
USER_CHARGES
 
@<TRIPOS>ATOM
       1    N1      17.721817   17.882436   22.247287 N.4        1 MOL1        -0.5937
       2    H1      17.627571   16.863556   22.222031 H          1 MOL1         0.3684
       3    H2      17.506102   18.229369   21.308706 H          1 MOL1         0.3684
       4    H3      17.000209   18.238797   22.878930 H          1 MOL1         0.3684
       5    C1      19.097992   18.297602   22.690189 C.3        1 MOL1         0.1270
       6    H4      19.795663   17.870982   21.963314 H          1 MOL1         0.0960
       7    C2      19.416248   17.705260   24.075088 C.3        1 MOL1        -0.2382
       8    H5      20.462385   17.880331   24.351644 H          1 MOL1         0.1009
       9    H6      19.257456   16.619943   24.077280 H          1 MOL1         0.1009
      10    H7      18.777192   18.144291   24.851199 H          1 MOL1         0.1009
      11    C3      19.253075   19.837031   22.667058 C.3        1 MOL1        -0.1392
      12    H8      18.936524   20.207262   21.683060 H          1 MOL1         0.0998
      13    H9      18.563465   20.282708   23.396129 H          1 MOL1         0.0998
      14    C4      20.687464   20.355340   22.944525 C.3        1 MOL1        -0.1302
      15    H10     20.986973   20.116858   23.973940 H          1 MOL1         0.0998
      16    H11     20.683723   21.452450   22.879911 H          1 MOL1         0.0998
      17    C5      21.734989   19.799086   21.953352 C.3        1 MOL1        -0.2317
      18    H12     21.455078   20.023249   20.915779 H          1 MOL1         0.1009
      19    H13     21.846073   18.711890   22.051995 H          1 MOL1         0.1009
      20    H14     22.718307   20.250024   22.139787 H          1 MOL1         0.1009
@<TRIPOS>BOND
    1     1     2    1
    2     1     3    1
    3     1     4    1
    4     1     5    1
    5     5     6    1
    6     5     7    1
    7     7     8    1
    8     7     9    1
    9     7    10    1
   10     5    11    1
   11    11    12    1
   12    11    13    1
   13    11    14    1
   14    14    15    1
   15    14    16    1
   16    14    17    1
   17    17    18    1
   18    17    19    1
   19    17    20    1
@<TRIPOS>SUBSTRUCTURE
       1 MOL1            1 RESIDUE      1      MOL     
@<SCITEGIC>MOL_PROPERTY
VConf Rank
SciTegic.value.IntegerValue
68

@<SCITEGIC>MOL_PROPERTY
Conf_Id
SciTegic.value.IntegerValue
64

@<SCITEGIC>MOL_PROPERTY
Delta U+W
SciTegic.value.DoubleValue
0.544

@<SCITEGIC>MOL_PROPERTY
U+W
SciTegic.value.DoubleValue
-35.732

@<SCITEGIC>MOL_PROPERTY
Grad RMS
SciTegic.value.DoubleValue
0.000000

@<SCITEGIC>MOL_PROPERTY
U
SciTegic.value.DoubleValue
22.800

@<SCITEGIC>MOL_PROPERTY
W
SciTegic.value.DoubleValue
-58.532

@<SCITEGIC>MOL_PROPERTY
W(PB)
SciTegic.value.DoubleValue
-60.437

@<SCITEGIC>MOL_PROPERTY
W(SA)
SciTegic.value.DoubleValue
1.905

@<SCITEGIC>MOL_PROPERTY
Valence
SciTegic.value.DoubleValue
2.662

@<SCITEGIC>MOL_PROPERTY
Coulomb
SciTegic.value.DoubleValue
19.485

@<SCITEGIC>MOL_PROPERTY
VdW
SciTegic.value.DoubleValue
0.653

@<SCITEGIC>MOL_PROPERTY
VdW6
SciTegic.value.DoubleValue
-5.460

@<SCITEGIC>MOL_PROPERTY
VdW12
SciTegic.value.DoubleValue
6.113

@<SCITEGIC>MOL_PROPERTY
Bond
SciTegic.value.DoubleValue
0.174

@<SCITEGIC>MOL_PROPERTY
Angle
SciTegic.value.DoubleValue
1.378

@<SCITEGIC>MOL_PROPERTY
Pdih
SciTegic.value.DoubleValue
1.109

@<SCITEGIC>MOL_PROPERTY
Idih
SciTegic.value.DoubleValue
0.000

@<SCITEGIC>MOL_PROPERTY
Tether
SciTegic.value.DoubleValue
0.000

@<TRIPOS>MOLECULE
guest-s10_confgen4.mol2 : confsearch ligand conformer 69
          20          19           1
SMALL
USER_CHARGES
 
@<TRIPOS>ATOM
       1    N1      19.577964   19.559082   24.701423 N.4        1 MOL1        -0.5937
       2    H1      20.474339   19.068142   24.729054 H          1 MOL1         0.3684
       3    H2      19.025254   19.231225   25.498063 H          1 MOL1         0.3684
       4    H3      19.767530   20.553541   24.852341 H          1 MOL1         0.3684
       5    C1      18.860548   19.323460   23.399644 C.3        1 MOL1         0.1270
       6    H4      17.918331   19.875538   23.473121 H          1 MOL1         0.0960
       7    C2      18.509274   17.836478   23.228715 C.3        1 MOL1        -0.2382
       8    H5      19.403078   17.204046   23.282115 H          1 MOL1         0.1009
       9    H6      18.012942   17.660065   22.266493 H          1 MOL1         0.1009
      10    H7      17.823766   17.511633   24.020879 H          1 MOL1         0.1009
      11    C3      19.631446   19.905407   22.188035 C.3        1 MOL1        -0.1392
      12    H8      18.992426   19.864692   21.296131 H          1 MOL1         0.0998
      13    H9      19.787539   20.974801   22.381717 H          1 MOL1         0.0998
      14    C4      21.010984   19.260638   21.877595 C.3        1 MOL1        -0.1302
      15    H10     21.489485   18.897427   22.796559 H          1 MOL1         0.0998
      16    H11     21.676469   20.040968   21.482376 H          1 MOL1         0.0998
      17    C5      20.940783   18.125279   20.829369 C.3        1 MOL1        -0.2317
      18    H12     20.327433   17.284328   21.170807 H          1 MOL1         0.1009
      19    H13     21.945333   17.736762   20.617478 H          1 MOL1         0.1009
      20    H14     20.519692   18.489432   19.883261 H          1 MOL1         0.1009
@<TRIPOS>BOND
    1     1     2    1
    2     1     3    1
    3     1     4    1
    4     1     5    1
    5     5     6    1
    6     5     7    1
    7     7     8    1
    8     7     9    1
    9     7    10    1
   10     5    11    1
   11    11    12    1
   12    11    13    1
   13    11    14    1
   14    14    15    1
   15    14    16    1
   16    14    17    1
   17    17    18    1
   18    17    19    1
   19    17    20    1
@<TRIPOS>SUBSTRUCTURE
       1 MOL1            1 RESIDUE      1      MOL     
@<SCITEGIC>MOL_PROPERTY
VConf Rank
SciTegic.value.IntegerValue
69

@<SCITEGIC>MOL_PROPERTY
Conf_Id
SciTegic.value.IntegerValue
35

@<SCITEGIC>MOL_PROPERTY
Delta U+W
SciTegic.value.DoubleValue
3.004

@<SCITEGIC>MOL_PROPERTY
U+W
SciTegic.value.DoubleValue
-33.272

@<SCITEGIC>MOL_PROPERTY
Grad RMS
SciTegic.value.DoubleValue
0.000000

@<SCITEGIC>MOL_PROPERTY
U
SciTegic.value.DoubleValue
25.367

@<SCITEGIC>MOL_PROPERTY
W
SciTegic.value.DoubleValue
-58.639

@<SCITEGIC>MOL_PROPERTY
W(PB)
SciTegic.value.DoubleValue
-60.512

@<SCITEGIC>MOL_PROPERTY
W(SA)
SciTegic.value.DoubleValue
1.873

@<SCITEGIC>MOL_PROPERTY
Valence
SciTegic.value.DoubleValue
4.943

@<SCITEGIC>MOL_PROPERTY
Coulomb
SciTegic.value.DoubleValue
19.661

@<SCITEGIC>MOL_PROPERTY
VdW
SciTegic.value.DoubleValue
0.764

@<SCITEGIC>MOL_PROPERTY
VdW6
SciTegic.value.DoubleValue
-5.871

@<SCITEGIC>MOL_PROPERTY
VdW12
SciTegic.value.DoubleValue
6.636

@<SCITEGIC>MOL_PROPERTY
Bond
SciTegic.value.DoubleValue
0.230

@<SCITEGIC>MOL_PROPERTY
Angle
SciTegic.value.DoubleValue
1.857

@<SCITEGIC>MOL_PROPERTY
Pdih
SciTegic.value.DoubleValue
2.855

@<SCITEGIC>MOL_PROPERTY
Idih
SciTegic.value.DoubleValue
0.000

@<SCITEGIC>MOL_PROPERTY
Tether
SciTegic.value.DoubleValue
0.000

@<TRIPOS>MOLECULE
guest-s10_confgen4.mol2 : confsearch ligand conformer 70
          20          19           1
SMALL
USER_CHARGES
 
@<TRIPOS>ATOM
       1    N1      19.034501   18.615563   24.266094 N.4        1 MOL1        -0.5937
       2    H1      18.122928   18.736052   24.715670 H          1 MOL1         0.3684
       3    H2      19.719400   18.444503   25.007198 H          1 MOL1         0.3684
       4    H3      18.987864   17.771671   23.691927 H          1 MOL1         0.3684
       5    C1      19.405491   19.816433   23.439813 C.3        1 MOL1         0.1270
       6    H4      19.452942   20.650525   24.146895 H          1 MOL1         0.0960
       7    C2      18.310710   20.149965   22.410871 C.3        1 MOL1        -0.2382
       8    H5      18.137898   19.316993   21.719071 H          1 MOL1         0.1009
       9    H6      18.585900   21.034420   21.823138 H          1 MOL1         0.1009
      10    H7      17.362135   20.368505   22.916256 H          1 MOL1         0.1009
      11    C3      20.808894   19.697730   22.791985 C.3        1 MOL1        -0.1392
      12    H8      21.120491   20.705489   22.487237 H          1 MOL1         0.0998
      13    H9      21.530242   19.390465   23.560401 H          1 MOL1         0.0998
      14    C4      20.947342   18.764238   21.556662 C.3        1 MOL1        -0.1302
      15    H10     21.983591   18.829794   21.196503 H          1 MOL1         0.0998
      16    H11     20.324644   19.131759   20.729736 H          1 MOL1         0.0998
      17    C5      20.622753   17.278222   21.831104 C.3        1 MOL1        -0.2317
      18    H12     21.168275   16.906748   22.708347 H          1 MOL1         0.1009
      19    H13     20.915204   16.660697   20.971857 H          1 MOL1         0.1009
      20    H14     19.549404   17.121773   21.988306 H          1 MOL1         0.1009
@<TRIPOS>BOND
    1     1     2    1
    2     1     3    1
    3     1     4    1
    4     1     5    1
    5     5     6    1
    6     5     7    1
    7     7     8    1
    8     7     9    1
    9     7    10    1
   10     5    11    1
   11    11    12    1
   12    11    13    1
   13    11    14    1
   14    14    15    1
   15    14    16    1
   16    14    17    1
   17    17    18    1
   18    17    19    1
   19    17    20    1
@<TRIPOS>SUBSTRUCTURE
       1 MOL1            1 RESIDUE      1      MOL     
@<SCITEGIC>MOL_PROPERTY
VConf Rank
SciTegic.value.IntegerValue
70

@<SCITEGIC>MOL_PROPERTY
Conf_Id
SciTegic.value.IntegerValue
55

@<SCITEGIC>MOL_PROPERTY
Delta U+W
SciTegic.value.DoubleValue
2.767

@<SCITEGIC>MOL_PROPERTY
U+W
SciTegic.value.DoubleValue
-33.509

@<SCITEGIC>MOL_PROPERTY
Grad RMS
SciTegic.value.DoubleValue
0.000000

@<SCITEGIC>MOL_PROPERTY
U
SciTegic.value.DoubleValue
24.552

@<SCITEGIC>MOL_PROPERTY
W
SciTegic.value.DoubleValue
-58.061

@<SCITEGIC>MOL_PROPERTY
W(PB)
SciTegic.value.DoubleValue
-59.930

@<SCITEGIC>MOL_PROPERTY
W(SA)
SciTegic.value.DoubleValue
1.869

@<SCITEGIC>MOL_PROPERTY
Valence
SciTegic.value.DoubleValue
3.726

@<SCITEGIC>MOL_PROPERTY
Coulomb
SciTegic.value.DoubleValue
20.219

@<SCITEGIC>MOL_PROPERTY
VdW
SciTegic.value.DoubleValue
0.606

@<SCITEGIC>MOL_PROPERTY
VdW6
SciTegic.value.DoubleValue
-6.395

@<SCITEGIC>MOL_PROPERTY
VdW12
SciTegic.value.DoubleValue
7.001

@<SCITEGIC>MOL_PROPERTY
Bond
SciTegic.value.DoubleValue
0.241

@<SCITEGIC>MOL_PROPERTY
Angle
SciTegic.value.DoubleValue
2.098

@<SCITEGIC>MOL_PROPERTY
Pdih
SciTegic.value.DoubleValue
1.387

@<SCITEGIC>MOL_PROPERTY
Idih
SciTegic.value.DoubleValue
0.000

@<SCITEGIC>MOL_PROPERTY
Tether
SciTegic.value.DoubleValue
0.000

@<TRIPOS>MOLECULE
guest-s10_confgen4.mol2 : confsearch ligand conformer 71
          20          19           1
SMALL
USER_CHARGES
 
@<TRIPOS>ATOM
       1    N1      18.566255   18.244597   21.307149 N.4        1 MOL1        -0.5937
       2    H1      19.299097   17.924530   20.669148 H          1 MOL1         0.3684
       3    H2      17.725952   18.412046   20.747230 H          1 MOL1         0.3684
       4    H3      18.356619   17.473800   21.946294 H          1 MOL1         0.3684
       5    C1      18.986577   19.482182   22.053321 C.3        1 MOL1         0.1270
       6    H4      18.153818   19.751715   22.710399 H          1 MOL1         0.0960
       7    C2      19.225578   20.646081   21.077521 C.3        1 MOL1        -0.2382
       8    H5      18.327887   20.841026   20.478011 H          1 MOL1         0.1009
       9    H6      20.053378   20.426230   20.391804 H          1 MOL1         0.1009
      10    H7      19.468193   21.567539   21.621297 H          1 MOL1         0.1009
      11    C3      20.237461   19.250781   22.929616 C.3        1 MOL1        -0.1392
      12    H8      21.083813   18.955299   22.295349 H          1 MOL1         0.0998
      13    H9      20.518518   20.200763   23.403545 H          1 MOL1         0.0998
      14    C4      20.015538   18.189120   24.033765 C.3        1 MOL1        -0.1302
      15    H10     19.787841   17.213859   23.582715 H          1 MOL1         0.0998
      16    H11     19.146032   18.467604   24.645851 H          1 MOL1         0.0998
      17    C5      21.254964   18.044523   24.942731 C.3        1 MOL1        -0.2317
      18    H12     22.135544   17.736755   24.363843 H          1 MOL1         0.1009
      19    H13     21.080780   17.287416   25.718317 H          1 MOL1         0.1009
      20    H14     21.490159   18.992060   25.444817 H          1 MOL1         0.1009
@<TRIPOS>BOND
    1     1     2    1
    2     1     3    1
    3     1     4    1
    4     1     5    1
    5     5     6    1
    6     5     7    1
    7     7     8    1
    8     7     9    1
    9     7    10    1
   10     5    11    1
   11    11    12    1
   12    11    13    1
   13    11    14    1
   14    14    15    1
   15    14    16    1
   16    14    17    1
   17    17    18    1
   18    17    19    1
   19    17    20    1
@<TRIPOS>SUBSTRUCTURE
       1 MOL1            1 RESIDUE      1      MOL     
@<SCITEGIC>MOL_PROPERTY
VConf Rank
SciTegic.value.IntegerValue
71

@<SCITEGIC>MOL_PROPERTY
Conf_Id
SciTegic.value.IntegerValue
74

@<SCITEGIC>MOL_PROPERTY
Delta U+W
SciTegic.value.DoubleValue
0.000

@<SCITEGIC>MOL_PROPERTY
U+W
SciTegic.value.DoubleValue
-36.276

@<SCITEGIC>MOL_PROPERTY
Grad RMS
SciTegic.value.DoubleValue
0.000000

@<SCITEGIC>MOL_PROPERTY
U
SciTegic.value.DoubleValue
22.080

@<SCITEGIC>MOL_PROPERTY
W
SciTegic.value.DoubleValue
-58.356

@<SCITEGIC>MOL_PROPERTY
W(PB)
SciTegic.value.DoubleValue
-60.289

@<SCITEGIC>MOL_PROPERTY
W(SA)
SciTegic.value.DoubleValue
1.932

@<SCITEGIC>MOL_PROPERTY
Valence
SciTegic.value.DoubleValue
1.885

@<SCITEGIC>MOL_PROPERTY
Coulomb
SciTegic.value.DoubleValue
19.559

@<SCITEGIC>MOL_PROPERTY
VdW
SciTegic.value.DoubleValue
0.637

@<SCITEGIC>MOL_PROPERTY
VdW6
SciTegic.value.DoubleValue
-4.482

@<SCITEGIC>MOL_PROPERTY
VdW12
SciTegic.value.DoubleValue
5.119

@<SCITEGIC>MOL_PROPERTY
Bond
SciTegic.value.DoubleValue
0.136

@<SCITEGIC>MOL_PROPERTY
Angle
SciTegic.value.DoubleValue
0.867

@<SCITEGIC>MOL_PROPERTY
Pdih
SciTegic.value.DoubleValue
0.882

@<SCITEGIC>MOL_PROPERTY
Idih
SciTegic.value.DoubleValue
0.000

@<SCITEGIC>MOL_PROPERTY
Tether
SciTegic.value.DoubleValue
0.000

@<TRIPOS>MOLECULE
guest-s10_confgen4.mol2 : confsearch ligand conformer 72
          20          19           1
SMALL
USER_CHARGES
 
@<TRIPOS>ATOM
       1    N1      21.358137   20.692832   22.783131 N.4        1 MOL1        -0.5937
       2    H1      20.915176   21.404946   22.196159 H          1 MOL1         0.3684
       3    H2      22.083725   20.240643   22.221193 H          1 MOL1         0.3684
       4    H3      21.827943   21.182500   23.549412 H          1 MOL1         0.3684
       5    C1      20.356642   19.695908   23.298512 C.3        1 MOL1         0.1270
       6    H4      19.628596   20.265428   23.884568 H          1 MOL1         0.0960
       7    C2      21.044274   18.681544   24.230728 C.3        1 MOL1        -0.2382
       8    H5      21.610171   19.199361   25.014851 H          1 MOL1         0.1009
       9    H6      21.740818   18.040829   23.675850 H          1 MOL1         0.1009
      10    H7      20.311250   18.039285   24.732130 H          1 MOL1         0.1009
      11    C3      19.606801   19.004378   22.136181 C.3        1 MOL1        -0.1392
      12    H8      19.234203   19.779333   21.453335 H          1 MOL1         0.0998
      13    H9      20.309030   18.390989   21.556114 H          1 MOL1         0.0998
      14    C4      18.409620   18.135489   22.593292 C.3        1 MOL1        -0.1302
      15    H10     17.738547   18.732733   23.226561 H          1 MOL1         0.0998
      16    H11     18.760889   17.294359   23.205673 H          1 MOL1         0.0998
      17    C5      17.617320   17.579272   21.390559 C.3        1 MOL1        -0.2317
      18    H12     17.210731   18.391834   20.774388 H          1 MOL1         0.1009
      19    H13     16.775381   16.963322   21.732366 H          1 MOL1         0.1009
      20    H14     18.255207   16.953253   20.753017 H          1 MOL1         0.1009
@<TRIPOS>BOND
    1     1     2    1
    2     1     3    1
    3     1     4    1
    4     1     5    1
    5     5     6    1
    6     5     7    1
    7     7     8    1
    8     7     9    1
    9     7    10    1
   10     5    11    1
   11    11    12    1
   12    11    13    1
   13    11    14    1
   14    14    15    1
   15    14    16    1
   16    14    17    1
   17    17    18    1
   18    17    19    1
   19    17    20    1
@<TRIPOS>SUBSTRUCTURE
       1 MOL1            1 RESIDUE      1      MOL     
@<SCITEGIC>MOL_PROPERTY
VConf Rank
SciTegic.value.IntegerValue
72

@<SCITEGIC>MOL_PROPERTY
Conf_Id
SciTegic.value.IntegerValue
80

@<SCITEGIC>MOL_PROPERTY
Delta U+W
SciTegic.value.DoubleValue
0.460

@<SCITEGIC>MOL_PROPERTY
U+W
SciTegic.value.DoubleValue
-35.817

@<SCITEGIC>MOL_PROPERTY
Grad RMS
SciTegic.value.DoubleValue
0.000000

@<SCITEGIC>MOL_PROPERTY
U
SciTegic.value.DoubleValue
22.495

@<SCITEGIC>MOL_PROPERTY
W
SciTegic.value.DoubleValue
-58.311

@<SCITEGIC>MOL_PROPERTY
W(PB)
SciTegic.value.DoubleValue
-60.259

@<SCITEGIC>MOL_PROPERTY
W(SA)
SciTegic.value.DoubleValue
1.948

@<SCITEGIC>MOL_PROPERTY
Valence
SciTegic.value.DoubleValue
2.419

@<SCITEGIC>MOL_PROPERTY
Coulomb
SciTegic.value.DoubleValue
19.304

@<SCITEGIC>MOL_PROPERTY
VdW
SciTegic.value.DoubleValue
0.772

@<SCITEGIC>MOL_PROPERTY
VdW6
SciTegic.value.DoubleValue
-4.635

@<SCITEGIC>MOL_PROPERTY
VdW12
SciTegic.value.DoubleValue
5.407

@<SCITEGIC>MOL_PROPERTY
Bond
SciTegic.value.DoubleValue
0.149

@<SCITEGIC>MOL_PROPERTY
Angle
SciTegic.value.DoubleValue
1.142

@<SCITEGIC>MOL_PROPERTY
Pdih
SciTegic.value.DoubleValue
1.129

@<SCITEGIC>MOL_PROPERTY
Idih
SciTegic.value.DoubleValue
0.000

@<SCITEGIC>MOL_PROPERTY
Tether
SciTegic.value.DoubleValue
0.000

@<TRIPOS>MOLECULE
guest-s10_confgen4.mol2 : confsearch ligand conformer 73
          20          19           1
SMALL
USER_CHARGES
 
@<TRIPOS>ATOM
       1    N1      19.622267   20.951768   23.944057 N.4        1 MOL1        -0.5937
       2    H1      20.543379   21.389852   24.030342 H          1 MOL1         0.3684
       3    H2      19.406845   20.511678   24.842168 H          1 MOL1         0.3684
       4    H3      18.942132   21.703494   23.802850 H          1 MOL1         0.3684
       5    C1      19.583740   19.955493   22.817690 C.3        1 MOL1         0.1270
       6    H4      19.818328   20.514380   21.906420 H          1 MOL1         0.0960
       7    C2      18.167543   19.373375   22.670100 C.3        1 MOL1        -0.2382
       8    H5      17.421031   20.175977   22.628965 H          1 MOL1         0.1009
       9    H6      17.916767   18.717408   23.512877 H          1 MOL1         0.1009
      10    H7      18.073741   18.799821   21.740990 H          1 MOL1         0.1009
      11    C3      20.666329   18.864290   23.003731 C.3        1 MOL1        -0.1392
      12    H8      21.629252   19.375045   23.136405 H          1 MOL1         0.0998
      13    H9      20.491217   18.311128   23.935973 H          1 MOL1         0.0998
      14    C4      20.814811   17.878667   21.814553 C.3        1 MOL1        -0.1302
      15    H10     21.879557   17.634493   21.692842 H          1 MOL1         0.0998
      16    H11     20.508170   18.362489   20.876549 H          1 MOL1         0.0998
      17    C5      20.043056   16.552985   22.014541 C.3        1 MOL1        -0.2317
      18    H12     20.396423   16.025017   22.909805 H          1 MOL1         0.1009
      19    H13     20.194488   15.887104   21.155091 H          1 MOL1         0.1009
      20    H14     18.964757   16.714593   22.122699 H          1 MOL1         0.1009
@<TRIPOS>BOND
    1     1     2    1
    2     1     3    1
    3     1     4    1
    4     1     5    1
    5     5     6    1
    6     5     7    1
    7     7     8    1
    8     7     9    1
    9     7    10    1
   10     5    11    1
   11    11    12    1
   12    11    13    1
   13    11    14    1
   14    14    15    1
   15    14    16    1
   16    14    17    1
   17    17    18    1
   18    17    19    1
   19    17    20    1
@<TRIPOS>SUBSTRUCTURE
       1 MOL1            1 RESIDUE      1      MOL     
@<SCITEGIC>MOL_PROPERTY
VConf Rank
SciTegic.value.IntegerValue
73

@<SCITEGIC>MOL_PROPERTY
Conf_Id
SciTegic.value.IntegerValue
52

@<SCITEGIC>MOL_PROPERTY
Delta U+W
SciTegic.value.DoubleValue
2.995

@<SCITEGIC>MOL_PROPERTY
U+W
SciTegic.value.DoubleValue
-33.282

@<SCITEGIC>MOL_PROPERTY
Grad RMS
SciTegic.value.DoubleValue
0.000000

@<SCITEGIC>MOL_PROPERTY
U
SciTegic.value.DoubleValue
25.224

@<SCITEGIC>MOL_PROPERTY
W
SciTegic.value.DoubleValue
-58.506

@<SCITEGIC>MOL_PROPERTY
W(PB)
SciTegic.value.DoubleValue
-60.411

@<SCITEGIC>MOL_PROPERTY
W(SA)
SciTegic.value.DoubleValue
1.905

@<SCITEGIC>MOL_PROPERTY
Valence
SciTegic.value.DoubleValue
4.945

@<SCITEGIC>MOL_PROPERTY
Coulomb
SciTegic.value.DoubleValue
19.467

@<SCITEGIC>MOL_PROPERTY
VdW
SciTegic.value.DoubleValue
0.813

@<SCITEGIC>MOL_PROPERTY
VdW6
SciTegic.value.DoubleValue
-5.458

@<SCITEGIC>MOL_PROPERTY
VdW12
SciTegic.value.DoubleValue
6.270

@<SCITEGIC>MOL_PROPERTY
Bond
SciTegic.value.DoubleValue
0.200

@<SCITEGIC>MOL_PROPERTY
Angle
SciTegic.value.DoubleValue
1.675

@<SCITEGIC>MOL_PROPERTY
Pdih
SciTegic.value.DoubleValue
3.070

@<SCITEGIC>MOL_PROPERTY
Idih
SciTegic.value.DoubleValue
0.000

@<SCITEGIC>MOL_PROPERTY
Tether
SciTegic.value.DoubleValue
0.000

@<TRIPOS>MOLECULE
guest-s10_confgen4.mol2 : confsearch ligand conformer 74
          20          19           1
SMALL
USER_CHARGES
 
@<TRIPOS>ATOM
       1    N1      19.946246   20.028450   21.490951 N.4        1 MOL1        -0.5937
       2    H1      20.437020   19.476868   20.782944 H          1 MOL1         0.3684
       3    H2      20.104762   21.016019   21.273632 H          1 MOL1         0.3684
       4    H3      18.946446   19.844876   21.382851 H          1 MOL1         0.3684
       5    C1      20.417764   19.685156   22.877699 C.3        1 MOL1         0.1270
       6    H4      19.886842   20.344755   23.571085 H          1 MOL1         0.0960
       7    C2      21.924228   19.969698   23.001646 C.3        1 MOL1        -0.2382
       8    H5      22.507005   19.320910   22.335836 H          1 MOL1         0.1009
       9    H6      22.270363   19.803992   24.029449 H          1 MOL1         0.1009
      10    H7      22.145523   21.012445   22.742721 H          1 MOL1         0.1009
      11    C3      20.111485   18.220004   23.269821 C.3        1 MOL1        -0.1392
      12    H8      20.411809   17.544498   22.457989 H          1 MOL1         0.0998
      13    H9      20.737208   17.950119   24.131051 H          1 MOL1         0.0998
      14    C4      18.638121   17.949083   23.672817 C.3        1 MOL1        -0.1302
      15    H10     18.360211   18.595955   24.516829 H          1 MOL1         0.0998
      16    H11     18.569909   16.917948   24.047164 H          1 MOL1         0.0998
      17    C5      17.610454   18.120930   22.531074 C.3        1 MOL1        -0.2317
      18    H12     16.634720   17.720869   22.836333 H          1 MOL1         0.1009
      19    H13     17.922678   17.580771   21.627713 H          1 MOL1         0.1009
      20    H14     17.457599   19.176923   22.280170 H          1 MOL1         0.1009
@<TRIPOS>BOND
    1     1     2    1
    2     1     3    1
    3     1     4    1
    4     1     5    1
    5     5     6    1
    6     5     7    1
    7     7     8    1
    8     7     9    1
    9     7    10    1
   10     5    11    1
   11    11    12    1
   12    11    13    1
   13    11    14    1
   14    14    15    1
   15    14    16    1
   16    14    17    1
   17    17    18    1
   18    17    19    1
   19    17    20    1
@<TRIPOS>SUBSTRUCTURE
       1 MOL1            1 RESIDUE      1      MOL     
@<SCITEGIC>MOL_PROPERTY
VConf Rank
SciTegic.value.IntegerValue
74

@<SCITEGIC>MOL_PROPERTY
Conf_Id
SciTegic.value.IntegerValue
54

@<SCITEGIC>MOL_PROPERTY
Delta U+W
SciTegic.value.DoubleValue
2.752

@<SCITEGIC>MOL_PROPERTY
U+W
SciTegic.value.DoubleValue
-33.525

@<SCITEGIC>MOL_PROPERTY
Grad RMS
SciTegic.value.DoubleValue
0.000000

@<SCITEGIC>MOL_PROPERTY
U
SciTegic.value.DoubleValue
24.337

@<SCITEGIC>MOL_PROPERTY
W
SciTegic.value.DoubleValue
-57.862

@<SCITEGIC>MOL_PROPERTY
W(PB)
SciTegic.value.DoubleValue
-59.764

@<SCITEGIC>MOL_PROPERTY
W(SA)
SciTegic.value.DoubleValue
1.901

@<SCITEGIC>MOL_PROPERTY
Valence
SciTegic.value.DoubleValue
3.593

@<SCITEGIC>MOL_PROPERTY
Coulomb
SciTegic.value.DoubleValue
20.067

@<SCITEGIC>MOL_PROPERTY
VdW
SciTegic.value.DoubleValue
0.677

@<SCITEGIC>MOL_PROPERTY
VdW6
SciTegic.value.DoubleValue
-5.466

@<SCITEGIC>MOL_PROPERTY
VdW12
SciTegic.value.DoubleValue
6.144

@<SCITEGIC>MOL_PROPERTY
Bond
SciTegic.value.DoubleValue
0.191

@<SCITEGIC>MOL_PROPERTY
Angle
SciTegic.value.DoubleValue
1.557

@<SCITEGIC>MOL_PROPERTY
Pdih
SciTegic.value.DoubleValue
1.845

@<SCITEGIC>MOL_PROPERTY
Idih
SciTegic.value.DoubleValue
0.000

@<SCITEGIC>MOL_PROPERTY
Tether
SciTegic.value.DoubleValue
0.000

@<TRIPOS>MOLECULE
guest-s10_confgen4.mol2 : confsearch ligand conformer 75
          20          19           1
SMALL
USER_CHARGES
 
@<TRIPOS>ATOM
       1    N1      20.896969   17.951683   24.097198 N.4        1 MOL1        -0.5937
       2    H1      21.387763   17.075520   24.294971 H          1 MOL1         0.3684
       3    H2      20.580648   18.331555   24.993496 H          1 MOL1         0.3684
       4    H3      21.582206   18.605015   23.711121 H          1 MOL1         0.3684
       5    C1      19.747273   17.737275   23.150565 C.3        1 MOL1         0.1270
       6    H4      19.082996   17.017634   23.639313 H          1 MOL1         0.0960
       7    C2      20.227065   17.104137   21.832317 C.3        1 MOL1        -0.2382
       8    H5      19.386379   16.951105   21.144347 H          1 MOL1         0.1009
       9    H6      20.683767   16.124928   22.021155 H          1 MOL1         0.1009
      10    H7      20.973687   17.729849   21.329245 H          1 MOL1         0.1009
      11    C3      18.927438   19.027943   22.911609 C.3        1 MOL1        -0.1392
      12    H8      18.057141   18.782883   22.288500 H          1 MOL1         0.0998
      13    H9      18.522513   19.365108   23.874814 H          1 MOL1         0.0998
      14    C4      19.714892   20.191605   22.255752 C.3        1 MOL1        -0.1302
      15    H10     20.084754   19.890324   21.266588 H          1 MOL1         0.0998
      16    H11     20.595138   20.443290   22.862369 H          1 MOL1         0.0998
      17    C5      18.836610   21.451314   22.097378 C.3        1 MOL1        -0.2317
      18    H12     19.406398   22.265056   21.630225 H          1 MOL1         0.1009
      19    H13     18.477844   21.808314   23.071574 H          1 MOL1         0.1009
      20    H14     17.962593   21.246765   21.465336 H          1 MOL1         0.1009
@<TRIPOS>BOND
    1     1     2    1
    2     1     3    1
    3     1     4    1
    4     1     5    1
    5     5     6    1
    6     5     7    1
    7     7     8    1
    8     7     9    1
    9     7    10    1
   10     5    11    1
   11    11    12    1
   12    11    13    1
   13    11    14    1
   14    14    15    1
   15    14    16    1
   16    14    17    1
   17    17    18    1
   18    17    19    1
   19    17    20    1
@<TRIPOS>SUBSTRUCTURE
       1 MOL1            1 RESIDUE      1      MOL     
@<SCITEGIC>MOL_PROPERTY
VConf Rank
SciTegic.value.IntegerValue
75

@<SCITEGIC>MOL_PROPERTY
Conf_Id
SciTegic.value.IntegerValue
63

@<SCITEGIC>MOL_PROPERTY
Delta U+W
SciTegic.value.DoubleValue
0.420

@<SCITEGIC>MOL_PROPERTY
U+W
SciTegic.value.DoubleValue
-35.856

@<SCITEGIC>MOL_PROPERTY
Grad RMS
SciTegic.value.DoubleValue
0.000000

@<SCITEGIC>MOL_PROPERTY
U
SciTegic.value.DoubleValue
22.625

@<SCITEGIC>MOL_PROPERTY
W
SciTegic.value.DoubleValue
-58.481

@<SCITEGIC>MOL_PROPERTY
W(PB)
SciTegic.value.DoubleValue
-60.400

@<SCITEGIC>MOL_PROPERTY
W(SA)
SciTegic.value.DoubleValue
1.919

@<SCITEGIC>MOL_PROPERTY
Valence
SciTegic.value.DoubleValue
2.404

@<SCITEGIC>MOL_PROPERTY
Coulomb
SciTegic.value.DoubleValue
19.464

@<SCITEGIC>MOL_PROPERTY
VdW
SciTegic.value.DoubleValue
0.757

@<SCITEGIC>MOL_PROPERTY
VdW6
SciTegic.value.DoubleValue
-5.074

@<SCITEGIC>MOL_PROPERTY
VdW12
SciTegic.value.DoubleValue
5.830

@<SCITEGIC>MOL_PROPERTY
Bond
SciTegic.value.DoubleValue
0.172

@<SCITEGIC>MOL_PROPERTY
Angle
SciTegic.value.DoubleValue
1.207

@<SCITEGIC>MOL_PROPERTY
Pdih
SciTegic.value.DoubleValue
1.025

@<SCITEGIC>MOL_PROPERTY
Idih
SciTegic.value.DoubleValue
0.000

@<SCITEGIC>MOL_PROPERTY
Tether
SciTegic.value.DoubleValue
0.000

@<TRIPOS>MOLECULE
guest-s10_confgen4.mol2 : confsearch ligand conformer 76
          20          19           1
SMALL
USER_CHARGES
 
@<TRIPOS>ATOM
       1    N1      20.714364   20.416380   22.643695 N.4        1 MOL1        -0.5937
       2    H1      21.342215   19.809913   22.109959 H          1 MOL1         0.3684
       3    H2      21.162268   20.608197   23.543145 H          1 MOL1         0.3684
       4    H3      20.646284   21.304844   22.140168 H          1 MOL1         0.3684
       5    C1      19.363051   19.779914   22.825472 C.3        1 MOL1         0.1270
       6    H4      18.956528   19.612842   21.823496 H          1 MOL1         0.0960
       7    C2      18.412718   20.727772   23.575100 C.3        1 MOL1        -0.2382
       8    H5      18.319031   21.683314   23.044629 H          1 MOL1         0.1009
       9    H6      18.775750   20.934356   24.589636 H          1 MOL1         0.1009
      10    H7      17.409151   20.291538   23.653680 H          1 MOL1         0.1009
      11    C3      19.444368   18.416496   23.548978 C.3        1 MOL1        -0.1392
      12    H8      19.835480   18.565578   24.564182 H          1 MOL1         0.0998
      13    H9      18.429558   18.013984   23.667603 H          1 MOL1         0.0998
      14    C4      20.315112   17.361692   22.820217 C.3        1 MOL1        -0.1302
      15    H10     20.314009   16.434812   23.410807 H          1 MOL1         0.0998
      16    H11     21.361537   17.693503   22.781974 H          1 MOL1         0.0998
      17    C5      19.815529   17.045832   21.391926 C.3        1 MOL1        -0.2317
      18    H12     18.769969   16.711434   21.404682 H          1 MOL1         0.1009
      19    H13     20.417156   16.245154   20.942450 H          1 MOL1         0.1009
      20    H14     19.887278   17.921579   20.734800 H          1 MOL1         0.1009
@<TRIPOS>BOND
    1     1     2    1
    2     1     3    1
    3     1     4    1
    4     1     5    1
    5     5     6    1
    6     5     7    1
    7     7     8    1
    8     7     9    1
    9     7    10    1
   10     5    11    1
   11    11    12    1
   12    11    13    1
   13    11    14    1
   14    14    15    1
   15    14    16    1
   16    14    17    1
   17    17    18    1
   18    17    19    1
   19    17    20    1
@<TRIPOS>SUBSTRUCTURE
       1 MOL1            1 RESIDUE      1      MOL     
@<SCITEGIC>MOL_PROPERTY
VConf Rank
SciTegic.value.IntegerValue
76

@<SCITEGIC>MOL_PROPERTY
Conf_Id
SciTegic.value.IntegerValue
50

@<SCITEGIC>MOL_PROPERTY
Delta U+W
SciTegic.value.DoubleValue
0.466

@<SCITEGIC>MOL_PROPERTY
U+W
SciTegic.value.DoubleValue
-35.811

@<SCITEGIC>MOL_PROPERTY
Grad RMS
SciTegic.value.DoubleValue
0.000000

@<SCITEGIC>MOL_PROPERTY
U
SciTegic.value.DoubleValue
22.369

@<SCITEGIC>MOL_PROPERTY
W
SciTegic.value.DoubleValue
-58.180

@<SCITEGIC>MOL_PROPERTY
W(PB)
SciTegic.value.DoubleValue
-60.103

@<SCITEGIC>MOL_PROPERTY
W(SA)
SciTegic.value.DoubleValue
1.923

@<SCITEGIC>MOL_PROPERTY
Valence
SciTegic.value.DoubleValue
2.168

@<SCITEGIC>MOL_PROPERTY
Coulomb
SciTegic.value.DoubleValue
19.636

@<SCITEGIC>MOL_PROPERTY
VdW
SciTegic.value.DoubleValue
0.566

@<SCITEGIC>MOL_PROPERTY
VdW6
SciTegic.value.DoubleValue
-5.263

@<SCITEGIC>MOL_PROPERTY
VdW12
SciTegic.value.DoubleValue
5.829

@<SCITEGIC>MOL_PROPERTY
Bond
SciTegic.value.DoubleValue
0.162

@<SCITEGIC>MOL_PROPERTY
Angle
SciTegic.value.DoubleValue
1.066

@<SCITEGIC>MOL_PROPERTY
Pdih
SciTegic.value.DoubleValue
0.939

@<SCITEGIC>MOL_PROPERTY
Idih
SciTegic.value.DoubleValue
0.000

@<SCITEGIC>MOL_PROPERTY
Tether
SciTegic.value.DoubleValue
0.000

@<TRIPOS>MOLECULE
guest-s10_confgen4.mol2 : confsearch ligand conformer 77
          20          19           1
SMALL
USER_CHARGES
 
@<TRIPOS>ATOM
       1    N1      19.929786   20.981585   23.720144 N.4        1 MOL1        -0.5937
       2    H1      20.927933   21.057284   23.934550 H          1 MOL1         0.3684
       3    H2      19.425570   20.955077   24.610051 H          1 MOL1         0.3684
       4    H3      19.657226   21.844429   23.241662 H          1 MOL1         0.3684
       5    C1      19.632952   19.768754   22.880195 C.3        1 MOL1         0.1270
       6    H4      20.214325   19.885496   21.960337 H          1 MOL1         0.0960
       7    C2      18.136623   19.732605   22.517349 C.3        1 MOL1        -0.2382
       8    H5      17.513232   19.663611   23.417511 H          1 MOL1         0.1009
       9    H6      17.897907   18.876753   21.876787 H          1 MOL1         0.1009
      10    H7      17.848670   20.641455   21.974945 H          1 MOL1         0.1009
      11    C3      20.085945   18.460261   23.573646 C.3        1 MOL1        -0.1392
      12    H8      20.792209   18.705588   24.377810 H          1 MOL1         0.0998
      13    H9      19.234413   17.972857   24.066945 H          1 MOL1         0.0998
      14    C4      20.795938   17.460919   22.625486 C.3        1 MOL1        -0.1302
      15    H10     21.147976   16.604836   23.218043 H          1 MOL1         0.0998
      16    H11     21.695794   17.930592   22.203887 H          1 MOL1         0.0998
      17    C5      19.905328   16.937422   21.477009 C.3        1 MOL1        -0.2317
      18    H12     18.976127   16.499458   21.864050 H          1 MOL1         0.1009
      19    H13     20.430766   16.158833   20.908892 H          1 MOL1         0.1009
      20    H14     19.646961   17.738230   20.773032 H          1 MOL1         0.1009
@<TRIPOS>BOND
    1     1     2    1
    2     1     3    1
    3     1     4    1
    4     1     5    1
    5     5     6    1
    6     5     7    1
    7     7     8    1
    8     7     9    1
    9     7    10    1
   10     5    11    1
   11    11    12    1
   12    11    13    1
   13    11    14    1
   14    14    15    1
   15    14    16    1
   16    14    17    1
   17    17    18    1
   18    17    19    1
   19    17    20    1
@<TRIPOS>SUBSTRUCTURE
       1 MOL1            1 RESIDUE      1      MOL     
@<SCITEGIC>MOL_PROPERTY
VConf Rank
SciTegic.value.IntegerValue
77

@<SCITEGIC>MOL_PROPERTY
Conf_Id
SciTegic.value.IntegerValue
3

@<SCITEGIC>MOL_PROPERTY
Delta U+W
SciTegic.value.DoubleValue
3.093

@<SCITEGIC>MOL_PROPERTY
U+W
SciTegic.value.DoubleValue
-33.184

@<SCITEGIC>MOL_PROPERTY
Grad RMS
SciTegic.value.DoubleValue
0.000000

@<SCITEGIC>MOL_PROPERTY
U
SciTegic.value.DoubleValue
25.256

@<SCITEGIC>MOL_PROPERTY
W
SciTegic.value.DoubleValue
-58.439

@<SCITEGIC>MOL_PROPERTY
W(PB)
SciTegic.value.DoubleValue
-60.337

@<SCITEGIC>MOL_PROPERTY
W(SA)
SciTegic.value.DoubleValue
1.898

@<SCITEGIC>MOL_PROPERTY
Valence
SciTegic.value.DoubleValue
4.963

@<SCITEGIC>MOL_PROPERTY
Coulomb
SciTegic.value.DoubleValue
19.511

@<SCITEGIC>MOL_PROPERTY
VdW
SciTegic.value.DoubleValue
0.782

@<SCITEGIC>MOL_PROPERTY
VdW6
SciTegic.value.DoubleValue
-5.429

@<SCITEGIC>MOL_PROPERTY
VdW12
SciTegic.value.DoubleValue
6.211

@<SCITEGIC>MOL_PROPERTY
Bond
SciTegic.value.DoubleValue
0.174

@<SCITEGIC>MOL_PROPERTY
Angle
SciTegic.value.DoubleValue
1.377

@<SCITEGIC>MOL_PROPERTY
Pdih
SciTegic.value.DoubleValue
3.412

@<SCITEGIC>MOL_PROPERTY
Idih
SciTegic.value.DoubleValue
0.000

@<SCITEGIC>MOL_PROPERTY
Tether
SciTegic.value.DoubleValue
0.000

@<TRIPOS>MOLECULE
guest-s10_confgen4.mol2 : confsearch ligand conformer 78
          20          19           1
SMALL
USER_CHARGES
 
@<TRIPOS>ATOM
       1    N1      20.803297   16.961803   22.922347 N.4        1 MOL1        -0.5937
       2    H1      21.477447   16.761768   23.666083 H          1 MOL1         0.3684
       3    H2      21.307945   16.904993   22.033564 H          1 MOL1         0.3684
       4    H3      20.110371   16.209154   22.929803 H          1 MOL1         0.3684
       5    C1      20.159060   18.307931   23.110177 C.3        1 MOL1         0.1270
       6    H4      20.970746   19.041381   23.092425 H          1 MOL1         0.0960
       7    C2      19.465923   18.383014   24.482774 C.3        1 MOL1        -0.2382
       8    H5      19.112302   19.398681   24.694688 H          1 MOL1         0.1009
       9    H6      20.163323   18.108678   25.283716 H          1 MOL1         0.1009
      10    H7      18.606852   17.702500   24.531613 H          1 MOL1         0.1009
      11    C3      19.187192   18.630405   21.950043 C.3        1 MOL1        -0.1392
      12    H8      19.714616   18.482409   20.998493 H          1 MOL1         0.0998
      13    H9      18.361397   17.906690   21.955998 H          1 MOL1         0.0998
      14    C4      18.602339   20.065963   21.965039 C.3        1 MOL1        -0.1302
      15    H10     17.956194   20.205686   22.842105 H          1 MOL1         0.0998
      16    H11     17.949862   20.189174   21.089293 H          1 MOL1         0.0998
      17    C5      19.690161   21.163696   21.937200 C.3        1 MOL1        -0.2317
      18    H12     20.351189   21.042777   21.069110 H          1 MOL1         0.1009
      19    H13     20.307167   21.143119   22.844362 H          1 MOL1         0.1009
      20    H14     19.230926   22.158642   21.872370 H          1 MOL1         0.1009
@<TRIPOS>BOND
    1     1     2    1
    2     1     3    1
    3     1     4    1
    4     1     5    1
    5     5     6    1
    6     5     7    1
    7     7     8    1
    8     7     9    1
    9     7    10    1
   10     5    11    1
   11    11    12    1
   12    11    13    1
   13    11    14    1
   14    14    15    1
   15    14    16    1
   16    14    17    1
   17    17    18    1
   18    17    19    1
   19    17    20    1
@<TRIPOS>SUBSTRUCTURE
       1 MOL1            1 RESIDUE      1      MOL     
@<SCITEGIC>MOL_PROPERTY
VConf Rank
SciTegic.value.IntegerValue
78

@<SCITEGIC>MOL_PROPERTY
Conf_Id
SciTegic.value.IntegerValue
64

@<SCITEGIC>MOL_PROPERTY
Delta U+W
SciTegic.value.DoubleValue
0.544

@<SCITEGIC>MOL_PROPERTY
U+W
SciTegic.value.DoubleValue
-35.732

@<SCITEGIC>MOL_PROPERTY
Grad RMS
SciTegic.value.DoubleValue
0.000000

@<SCITEGIC>MOL_PROPERTY
U
SciTegic.value.DoubleValue
22.800

@<SCITEGIC>MOL_PROPERTY
W
SciTegic.value.DoubleValue
-58.532

@<SCITEGIC>MOL_PROPERTY
W(PB)
SciTegic.value.DoubleValue
-60.437

@<SCITEGIC>MOL_PROPERTY
W(SA)
SciTegic.value.DoubleValue
1.905

@<SCITEGIC>MOL_PROPERTY
Valence
SciTegic.value.DoubleValue
2.662

@<SCITEGIC>MOL_PROPERTY
Coulomb
SciTegic.value.DoubleValue
19.485

@<SCITEGIC>MOL_PROPERTY
VdW
SciTegic.value.DoubleValue
0.653

@<SCITEGIC>MOL_PROPERTY
VdW6
SciTegic.value.DoubleValue
-5.460

@<SCITEGIC>MOL_PROPERTY
VdW12
SciTegic.value.DoubleValue
6.113

@<SCITEGIC>MOL_PROPERTY
Bond
SciTegic.value.DoubleValue
0.174

@<SCITEGIC>MOL_PROPERTY
Angle
SciTegic.value.DoubleValue
1.378

@<SCITEGIC>MOL_PROPERTY
Pdih
SciTegic.value.DoubleValue
1.109

@<SCITEGIC>MOL_PROPERTY
Idih
SciTegic.value.DoubleValue
0.000

@<SCITEGIC>MOL_PROPERTY
Tether
SciTegic.value.DoubleValue
0.000

@<TRIPOS>MOLECULE
guest-s10_confgen4.mol2 : confsearch ligand conformer 79
          20          19           1
SMALL
USER_CHARGES
 
@<TRIPOS>ATOM
       1    N1      20.082991   20.805723   23.602805 N.4        1 MOL1        -0.5937
       2    H1      20.125459   20.177507   24.408295 H          1 MOL1         0.3684
       3    H2      19.461893   21.580255   23.851703 H          1 MOL1         0.3684
       4    H3      21.018909   21.198079   23.469484 H          1 MOL1         0.3684
       5    C1      19.602187   20.089129   22.369861 C.3        1 MOL1         0.1270
       6    H4      19.581122   20.841768   21.575472 H          1 MOL1         0.0960
       7    C2      18.163860   19.579620   22.557847 C.3        1 MOL1        -0.2382
       8    H5      18.082472   18.919209   23.429020 H          1 MOL1         0.1009
       9    H6      17.824096   19.031502   21.670455 H          1 MOL1         0.1009
      10    H7      17.477009   20.420659   22.712312 H          1 MOL1         0.1009
      11    C3      20.581864   18.978658   21.913758 C.3        1 MOL1        -0.1392
      12    H8      20.279219   18.609595   20.924973 H          1 MOL1         0.0998
      13    H9      21.561428   19.449428   21.757836 H          1 MOL1         0.0998
      14    C4      20.766436   17.782552   22.888688 C.3        1 MOL1        -0.1302
      15    H10     20.639589   18.103370   23.930976 H          1 MOL1         0.0998
      16    H11     21.803814   17.428294   22.809114 H          1 MOL1         0.0998
      17    C5      19.834733   16.586282   22.582729 C.3        1 MOL1        -0.2317
      18    H12     18.776338   16.849391   22.685444 H          1 MOL1         0.1009
      19    H13     20.037246   15.756695   23.272467 H          1 MOL1         0.1009
      20    H14     19.993953   16.215230   21.561938 H          1 MOL1         0.1009
@<TRIPOS>BOND
    1     1     2    1
    2     1     3    1
    3     1     4    1
    4     1     5    1
    5     5     6    1
    6     5     7    1
    7     7     8    1
    8     7     9    1
    9     7    10    1
   10     5    11    1
   11    11    12    1
   12    11    13    1
   13    11    14    1
   14    14    15    1
   15    14    16    1
   16    14    17    1
   17    17    18    1
   18    17    19    1
   19    17    20    1
@<TRIPOS>SUBSTRUCTURE
       1 MOL1            1 RESIDUE      1      MOL     
@<SCITEGIC>MOL_PROPERTY
VConf Rank
SciTegic.value.IntegerValue
79

@<SCITEGIC>MOL_PROPERTY
Conf_Id
SciTegic.value.IntegerValue
35

@<SCITEGIC>MOL_PROPERTY
Delta U+W
SciTegic.value.DoubleValue
3.004

@<SCITEGIC>MOL_PROPERTY
U+W
SciTegic.value.DoubleValue
-33.272

@<SCITEGIC>MOL_PROPERTY
Grad RMS
SciTegic.value.DoubleValue
0.000000

@<SCITEGIC>MOL_PROPERTY
U
SciTegic.value.DoubleValue
25.367

@<SCITEGIC>MOL_PROPERTY
W
SciTegic.value.DoubleValue
-58.639

@<SCITEGIC>MOL_PROPERTY
W(PB)
SciTegic.value.DoubleValue
-60.512

@<SCITEGIC>MOL_PROPERTY
W(SA)
SciTegic.value.DoubleValue
1.873

@<SCITEGIC>MOL_PROPERTY
Valence
SciTegic.value.DoubleValue
4.943

@<SCITEGIC>MOL_PROPERTY
Coulomb
SciTegic.value.DoubleValue
19.661

@<SCITEGIC>MOL_PROPERTY
VdW
SciTegic.value.DoubleValue
0.764

@<SCITEGIC>MOL_PROPERTY
VdW6
SciTegic.value.DoubleValue
-5.871

@<SCITEGIC>MOL_PROPERTY
VdW12
SciTegic.value.DoubleValue
6.636

@<SCITEGIC>MOL_PROPERTY
Bond
SciTegic.value.DoubleValue
0.230

@<SCITEGIC>MOL_PROPERTY
Angle
SciTegic.value.DoubleValue
1.857

@<SCITEGIC>MOL_PROPERTY
Pdih
SciTegic.value.DoubleValue
2.855

@<SCITEGIC>MOL_PROPERTY
Idih
SciTegic.value.DoubleValue
0.000

@<SCITEGIC>MOL_PROPERTY
Tether
SciTegic.value.DoubleValue
0.000

@<TRIPOS>MOLECULE
guest-s10_confgen4.mol2 : confsearch ligand conformer 80
          20          19           1
SMALL
USER_CHARGES
 
@<TRIPOS>ATOM
       1    N1      21.252329   18.849710   21.665070 N.4        1 MOL1        -0.5937
       2    H1      22.216121   18.512208   21.734343 H          1 MOL1         0.3684
       3    H2      21.204811   19.471108   20.853166 H          1 MOL1         0.3684
       4    H3      20.655103   18.044152   21.469124 H          1 MOL1         0.3684
       5    C1      20.822090   19.553255   22.922997 C.3        1 MOL1         0.1270
       6    H4      21.502142   20.404735   23.025167 H          1 MOL1         0.0960
       7    C2      21.017488   18.659927   24.160856 C.3        1 MOL1        -0.2382
       8    H5      20.435033   17.733798   24.087878 H          1 MOL1         0.1009
       9    H6      20.712790   19.187482   25.073142 H          1 MOL1         0.1009
      10    H7      22.073136   18.384249   24.273000 H          1 MOL1         0.1009
      11    C3      19.387399   20.133777   22.833728 C.3        1 MOL1        -0.1392
      12    H8      19.278728   20.875824   23.635664 H          1 MOL1         0.0998
      13    H9      19.290823   20.700449   21.898435 H          1 MOL1         0.0998
      14    C4      18.204354   19.132090   22.950449 C.3        1 MOL1        -0.1302
      15    H10     17.268388   19.706924   22.913598 H          1 MOL1         0.0998
      16    H11     18.212510   18.646003   23.935479 H          1 MOL1         0.0998
      17    C5      18.156961   18.057230   21.840786 C.3        1 MOL1        -0.2317
      18    H12     18.234062   18.510267   20.843814 H          1 MOL1         0.1009
      19    H13     17.207100   17.508530   21.883934 H          1 MOL1         0.1009
      20    H14     18.959244   17.319825   21.958441 H          1 MOL1         0.1009
@<TRIPOS>BOND
    1     1     2    1
    2     1     3    1
    3     1     4    1
    4     1     5    1
    5     5     6    1
    6     5     7    1
    7     7     8    1
    8     7     9    1
    9     7    10    1
   10     5    11    1
   11    11    12    1
   12    11    13    1
   13    11    14    1
   14    14    15    1
   15    14    16    1
   16    14    17    1
   17    17    18    1
   18    17    19    1
   19    17    20    1
@<TRIPOS>SUBSTRUCTURE
       1 MOL1            1 RESIDUE      1      MOL     
@<SCITEGIC>MOL_PROPERTY
VConf Rank
SciTegic.value.IntegerValue
80

@<SCITEGIC>MOL_PROPERTY
Conf_Id
SciTegic.value.IntegerValue
55

@<SCITEGIC>MOL_PROPERTY
Delta U+W
SciTegic.value.DoubleValue
2.767

@<SCITEGIC>MOL_PROPERTY
U+W
SciTegic.value.DoubleValue
-33.509

@<SCITEGIC>MOL_PROPERTY
Grad RMS
SciTegic.value.DoubleValue
0.000000

@<SCITEGIC>MOL_PROPERTY
U
SciTegic.value.DoubleValue
24.552

@<SCITEGIC>MOL_PROPERTY
W
SciTegic.value.DoubleValue
-58.061

@<SCITEGIC>MOL_PROPERTY
W(PB)
SciTegic.value.DoubleValue
-59.930

@<SCITEGIC>MOL_PROPERTY
W(SA)
SciTegic.value.DoubleValue
1.869

@<SCITEGIC>MOL_PROPERTY
Valence
SciTegic.value.DoubleValue
3.726

@<SCITEGIC>MOL_PROPERTY
Coulomb
SciTegic.value.DoubleValue
20.219

@<SCITEGIC>MOL_PROPERTY
VdW
SciTegic.value.DoubleValue
0.606

@<SCITEGIC>MOL_PROPERTY
VdW6
SciTegic.value.DoubleValue
-6.395

@<SCITEGIC>MOL_PROPERTY
VdW12
SciTegic.value.DoubleValue
7.001

@<SCITEGIC>MOL_PROPERTY
Bond
SciTegic.value.DoubleValue
0.241

@<SCITEGIC>MOL_PROPERTY
Angle
SciTegic.value.DoubleValue
2.098

@<SCITEGIC>MOL_PROPERTY
Pdih
SciTegic.value.DoubleValue
1.387

@<SCITEGIC>MOL_PROPERTY
Idih
SciTegic.value.DoubleValue
0.000

@<SCITEGIC>MOL_PROPERTY
Tether
SciTegic.value.DoubleValue
0.000

@<TRIPOS>MOLECULE
guest-s10_confgen4.mol2 : confsearch ligand conformer 81
          20          19           1
SMALL
USER_CHARGES
 
@<TRIPOS>ATOM
       1    N1      20.281296   19.658858   24.480377 N.4        1 MOL1        -0.5937
       2    H1      19.363720   19.606383   24.929651 H          1 MOL1         0.3684
       3    H2      20.822077   20.374382   24.973569 H          1 MOL1         0.3684
       4    H3      20.751000   18.763217   24.634606 H          1 MOL1         0.3684
       5    C1      20.159956   19.973634   23.013661 C.3        1 MOL1         0.1270
       6    H4      21.178117   20.006825   22.613494 H          1 MOL1         0.0960
       7    C2      19.517454   21.355431   22.809225 C.3        1 MOL1        -0.2382
       8    H5      20.094171   22.132347   23.326007 H          1 MOL1         0.1009
       9    H6      18.490964   21.377604   23.196032 H          1 MOL1         0.1009
      10    H7      19.486816   21.617752   21.744383 H          1 MOL1         0.1009
      11    C3      19.371569   18.894971   22.238367 C.3        1 MOL1        -0.1392
      12    H8      18.350824   18.824766   22.637198 H          1 MOL1         0.0998
      13    H9      19.276952   19.210068   21.190593 H          1 MOL1         0.0998
      14    C4      20.046913   17.503004   22.281447 C.3        1 MOL1        -0.1302
      15    H10     20.102530   17.139669   23.316493 H          1 MOL1         0.0998
      16    H11     21.080468   17.581383   21.915571 H          1 MOL1         0.0998
      17    C5      19.279641   16.470623   21.427757 C.3        1 MOL1        -0.2317
      18    H12     18.250062   16.347103   21.788263 H          1 MOL1         0.1009
      19    H13     19.771104   15.489963   21.470817 H          1 MOL1         0.1009
      20    H14     19.238371   16.779944   20.375212 H          1 MOL1         0.1009
@<TRIPOS>BOND
    1     1     2    1
    2     1     3    1
    3     1     4    1
    4     1     5    1
    5     5     6    1
    6     5     7    1
    7     7     8    1
    8     7     9    1
    9     7    10    1
   10     5    11    1
   11    11    12    1
   12    11    13    1
   13    11    14    1
   14    14    15    1
   15    14    16    1
   16    14    17    1
   17    17    18    1
   18    17    19    1
   19    17    20    1
@<TRIPOS>SUBSTRUCTURE
       1 MOL1            1 RESIDUE      1      MOL     
@<SCITEGIC>MOL_PROPERTY
VConf Rank
SciTegic.value.IntegerValue
81

@<SCITEGIC>MOL_PROPERTY
Conf_Id
SciTegic.value.IntegerValue
74

@<SCITEGIC>MOL_PROPERTY
Delta U+W
SciTegic.value.DoubleValue
0.000

@<SCITEGIC>MOL_PROPERTY
U+W
SciTegic.value.DoubleValue
-36.276

@<SCITEGIC>MOL_PROPERTY
Grad RMS
SciTegic.value.DoubleValue
0.000000

@<SCITEGIC>MOL_PROPERTY
U
SciTegic.value.DoubleValue
22.080

@<SCITEGIC>MOL_PROPERTY
W
SciTegic.value.DoubleValue
-58.356

@<SCITEGIC>MOL_PROPERTY
W(PB)
SciTegic.value.DoubleValue
-60.289

@<SCITEGIC>MOL_PROPERTY
W(SA)
SciTegic.value.DoubleValue
1.932

@<SCITEGIC>MOL_PROPERTY
Valence
SciTegic.value.DoubleValue
1.885

@<SCITEGIC>MOL_PROPERTY
Coulomb
SciTegic.value.DoubleValue
19.559

@<SCITEGIC>MOL_PROPERTY
VdW
SciTegic.value.DoubleValue
0.637

@<SCITEGIC>MOL_PROPERTY
VdW6
SciTegic.value.DoubleValue
-4.482

@<SCITEGIC>MOL_PROPERTY
VdW12
SciTegic.value.DoubleValue
5.119

@<SCITEGIC>MOL_PROPERTY
Bond
SciTegic.value.DoubleValue
0.136

@<SCITEGIC>MOL_PROPERTY
Angle
SciTegic.value.DoubleValue
0.867

@<SCITEGIC>MOL_PROPERTY
Pdih
SciTegic.value.DoubleValue
0.882

@<SCITEGIC>MOL_PROPERTY
Idih
SciTegic.value.DoubleValue
0.000

@<SCITEGIC>MOL_PROPERTY
Tether
SciTegic.value.DoubleValue
0.000

@<TRIPOS>MOLECULE
guest-s10_confgen4.mol2 : confsearch ligand conformer 82
          20          19           1
SMALL
USER_CHARGES
 
@<TRIPOS>ATOM
       1    N1      18.497166   18.343693   24.676683 N.4        1 MOL1        -0.5937
       2    H1      17.600249   18.804767   24.501160 H          1 MOL1         0.3684
       3    H2      19.009851   18.917569   25.350884 H          1 MOL1         0.3684
       4    H3      18.293293   17.449575   25.131290 H          1 MOL1         0.3684
       5    C1      19.280302   18.150147   23.407154 C.3        1 MOL1         0.1270
       6    H4      18.660050   17.528046   22.754358 H          1 MOL1         0.0960
       7    C2      20.590038   17.394536   23.697747 C.3        1 MOL1        -0.2382
       8    H5      20.387393   16.467942   24.248728 H          1 MOL1         0.1009
       9    H6      21.275465   18.004486   24.299186 H          1 MOL1         0.1009
      10    H7      21.102991   17.113491   22.770862 H          1 MOL1         0.1009
      11    C3      19.531379   19.499006   22.693692 C.3        1 MOL1        -0.1392
      12    H8      18.575361   20.033230   22.614335 H          1 MOL1         0.0998
      13    H9      20.187727   20.127086   23.310598 H          1 MOL1         0.0998
      14    C4      20.132096   19.353422   21.274148 C.3        1 MOL1        -0.1302
      15    H10     19.508802   18.674090   20.675748 H          1 MOL1         0.0998
      16    H11     21.132547   18.903848   21.327826 H          1 MOL1         0.0998
      17    C5      20.236467   20.716762   20.557145 C.3        1 MOL1        -0.2317
      18    H12     19.248226   21.181364   20.444174 H          1 MOL1         0.1009
      19    H13     20.667291   20.595645   19.554743 H          1 MOL1         0.1009
      20    H14     20.877763   21.409534   21.117560 H          1 MOL1         0.1009
@<TRIPOS>BOND
    1     1     2    1
    2     1     3    1
    3     1     4    1
    4     1     5    1
    5     5     6    1
    6     5     7    1
    7     7     8    1
    8     7     9    1
    9     7    10    1
   10     5    11    1
   11    11    12    1
   12    11    13    1
   13    11    14    1
   14    14    15    1
   15    14    16    1
   16    14    17    1
   17    17    18    1
   18    17    19    1
   19    17    20    1
@<TRIPOS>SUBSTRUCTURE
       1 MOL1            1 RESIDUE      1      MOL     
@<SCITEGIC>MOL_PROPERTY
VConf Rank
SciTegic.value.IntegerValue
82

@<SCITEGIC>MOL_PROPERTY
Conf_Id
SciTegic.value.IntegerValue
80

@<SCITEGIC>MOL_PROPERTY
Delta U+W
SciTegic.value.DoubleValue
0.460

@<SCITEGIC>MOL_PROPERTY
U+W
SciTegic.value.DoubleValue
-35.817

@<SCITEGIC>MOL_PROPERTY
Grad RMS
SciTegic.value.DoubleValue
0.000000

@<SCITEGIC>MOL_PROPERTY
U
SciTegic.value.DoubleValue
22.495

@<SCITEGIC>MOL_PROPERTY
W
SciTegic.value.DoubleValue
-58.311

@<SCITEGIC>MOL_PROPERTY
W(PB)
SciTegic.value.DoubleValue
-60.259

@<SCITEGIC>MOL_PROPERTY
W(SA)
SciTegic.value.DoubleValue
1.948

@<SCITEGIC>MOL_PROPERTY
Valence
SciTegic.value.DoubleValue
2.419

@<SCITEGIC>MOL_PROPERTY
Coulomb
SciTegic.value.DoubleValue
19.304

@<SCITEGIC>MOL_PROPERTY
VdW
SciTegic.value.DoubleValue
0.772

@<SCITEGIC>MOL_PROPERTY
VdW6
SciTegic.value.DoubleValue
-4.635

@<SCITEGIC>MOL_PROPERTY
VdW12
SciTegic.value.DoubleValue
5.407

@<SCITEGIC>MOL_PROPERTY
Bond
SciTegic.value.DoubleValue
0.149

@<SCITEGIC>MOL_PROPERTY
Angle
SciTegic.value.DoubleValue
1.142

@<SCITEGIC>MOL_PROPERTY
Pdih
SciTegic.value.DoubleValue
1.129

@<SCITEGIC>MOL_PROPERTY
Idih
SciTegic.value.DoubleValue
0.000

@<SCITEGIC>MOL_PROPERTY
Tether
SciTegic.value.DoubleValue
0.000

@<TRIPOS>MOLECULE
guest-s10_confgen4.mol2 : confsearch ligand conformer 83
          20          19           1
SMALL
USER_CHARGES
 
@<TRIPOS>ATOM
       1    N1      19.670004   21.060197   21.713383 N.4        1 MOL1        -0.5937
       2    H1      19.879495   21.794754   22.394816 H          1 MOL1         0.3684
       3    H2      18.656652   21.052460   21.572859 H          1 MOL1         0.3684
       4    H3      20.097876   21.339706   20.826582 H          1 MOL1         0.3684
       5    C1      20.174412   19.718444   22.169474 C.3        1 MOL1         0.1270
       6    H4      21.257711   19.821978   22.285844 H          1 MOL1         0.0960
       7    C2      19.909147   18.655027   21.090106 C.3        1 MOL1        -0.2382
       8    H5      20.268488   18.997622   20.112023 H          1 MOL1         0.1009
       9    H6      18.837915   18.435589   21.001999 H          1 MOL1         0.1009
      10    H7      20.439022   17.723296   21.318401 H          1 MOL1         0.1009
      11    C3      19.577641   19.339365   23.546972 C.3        1 MOL1        -0.1392
      12    H8      19.784790   20.169466   24.235241 H          1 MOL1         0.0998
      13    H9      18.483603   19.272519   23.481088 H          1 MOL1         0.0998
      14    C4      20.157312   18.046301   24.179120 C.3        1 MOL1        -0.1302
      15    H10     20.233665   18.191538   25.265947 H          1 MOL1         0.0998
      16    H11     21.183878   17.875133   23.825809 H          1 MOL1         0.0998
      17    C5      19.284779   16.794015   23.927129 C.3        1 MOL1        -0.2317
      18    H12     18.278247   16.927203   24.344588 H          1 MOL1         0.1009
      19    H13     19.729565   15.913054   24.407812 H          1 MOL1         0.1009
      20    H14     19.179634   16.571393   22.859456 H          1 MOL1         0.1009
@<TRIPOS>BOND
    1     1     2    1
    2     1     3    1
    3     1     4    1
    4     1     5    1
    5     5     6    1
    6     5     7    1
    7     7     8    1
    8     7     9    1
    9     7    10    1
   10     5    11    1
   11    11    12    1
   12    11    13    1
   13    11    14    1
   14    14    15    1
   15    14    16    1
   16    14    17    1
   17    17    18    1
   18    17    19    1
   19    17    20    1
@<TRIPOS>SUBSTRUCTURE
       1 MOL1            1 RESIDUE      1      MOL     
@<SCITEGIC>MOL_PROPERTY
VConf Rank
SciTegic.value.IntegerValue
83

@<SCITEGIC>MOL_PROPERTY
Conf_Id
SciTegic.value.IntegerValue
52

@<SCITEGIC>MOL_PROPERTY
Delta U+W
SciTegic.value.DoubleValue
2.995

@<SCITEGIC>MOL_PROPERTY
U+W
SciTegic.value.DoubleValue
-33.282

@<SCITEGIC>MOL_PROPERTY
Grad RMS
SciTegic.value.DoubleValue
0.000000

@<SCITEGIC>MOL_PROPERTY
U
SciTegic.value.DoubleValue
25.224

@<SCITEGIC>MOL_PROPERTY
W
SciTegic.value.DoubleValue
-58.506

@<SCITEGIC>MOL_PROPERTY
W(PB)
SciTegic.value.DoubleValue
-60.411

@<SCITEGIC>MOL_PROPERTY
W(SA)
SciTegic.value.DoubleValue
1.905

@<SCITEGIC>MOL_PROPERTY
Valence
SciTegic.value.DoubleValue
4.945

@<SCITEGIC>MOL_PROPERTY
Coulomb
SciTegic.value.DoubleValue
19.467

@<SCITEGIC>MOL_PROPERTY
VdW
SciTegic.value.DoubleValue
0.813

@<SCITEGIC>MOL_PROPERTY
VdW6
SciTegic.value.DoubleValue
-5.458

@<SCITEGIC>MOL_PROPERTY
VdW12
SciTegic.value.DoubleValue
6.270

@<SCITEGIC>MOL_PROPERTY
Bond
SciTegic.value.DoubleValue
0.200

@<SCITEGIC>MOL_PROPERTY
Angle
SciTegic.value.DoubleValue
1.675

@<SCITEGIC>MOL_PROPERTY
Pdih
SciTegic.value.DoubleValue
3.070

@<SCITEGIC>MOL_PROPERTY
Idih
SciTegic.value.DoubleValue
0.000

@<SCITEGIC>MOL_PROPERTY
Tether
SciTegic.value.DoubleValue
0.000

@<TRIPOS>MOLECULE
guest-s10_confgen4.mol2 : confsearch ligand conformer 84
          20          19           1
SMALL
USER_CHARGES
 
@<TRIPOS>ATOM
       1    N1      19.444619   19.624055   24.215320 N.4        1 MOL1        -0.5937
       2    H1      18.680045   20.287373   24.067626 H          1 MOL1         0.3684
       3    H2      19.906898   19.880108   25.091894 H          1 MOL1         0.3684
       4    H3      19.027143   18.699942   24.344604 H          1 MOL1         0.3684
       5    C1      20.407982   19.631355   23.059843 C.3        1 MOL1         0.1270
       6    H4      21.217245   18.938583   23.310631 H          1 MOL1         0.0960
       7    C2      21.011921   21.036088   22.893278 C.3        1 MOL1        -0.2382
       8    H5      20.241941   21.770067   22.624457 H          1 MOL1         0.1009
       9    H6      21.778499   21.041778   22.108441 H          1 MOL1         0.1009
      10    H7      21.489516   21.366784   23.823804 H          1 MOL1         0.1009
      11    C3      19.759682   19.162401   21.735447 C.3        1 MOL1        -0.1392
      12    H8      18.798273   19.671888   21.588178 H          1 MOL1         0.0998
      13    H9      20.398567   19.481141   20.900992 H          1 MOL1         0.0998
      14    C4      19.575622   17.627202   21.609382 C.3        1 MOL1        -0.1302
      15    H10     20.549540   17.127984   21.710870 H          1 MOL1         0.0998
      16    H11     19.227888   17.406878   20.590281 H          1 MOL1         0.0998
      17    C5      18.572470   17.009086   22.609795 C.3        1 MOL1        -0.2317
      18    H12     18.347428   15.971996   22.328572 H          1 MOL1         0.1009
      19    H13     17.624843   17.563364   22.619503 H          1 MOL1         0.1009
      20    H14     18.980269   16.982196   23.626858 H          1 MOL1         0.1009
@<TRIPOS>BOND
    1     1     2    1
    2     1     3    1
    3     1     4    1
    4     1     5    1
    5     5     6    1
    6     5     7    1
    7     7     8    1
    8     7     9    1
    9     7    10    1
   10     5    11    1
   11    11    12    1
   12    11    13    1
   13    11    14    1
   14    14    15    1
   15    14    16    1
   16    14    17    1
   17    17    18    1
   18    17    19    1
   19    17    20    1
@<TRIPOS>SUBSTRUCTURE
       1 MOL1            1 RESIDUE      1      MOL     
@<SCITEGIC>MOL_PROPERTY
VConf Rank
SciTegic.value.IntegerValue
84

@<SCITEGIC>MOL_PROPERTY
Conf_Id
SciTegic.value.IntegerValue
54

@<SCITEGIC>MOL_PROPERTY
Delta U+W
SciTegic.value.DoubleValue
2.752

@<SCITEGIC>MOL_PROPERTY
U+W
SciTegic.value.DoubleValue
-33.525

@<SCITEGIC>MOL_PROPERTY
Grad RMS
SciTegic.value.DoubleValue
0.000000

@<SCITEGIC>MOL_PROPERTY
U
SciTegic.value.DoubleValue
24.337

@<SCITEGIC>MOL_PROPERTY
W
SciTegic.value.DoubleValue
-57.862

@<SCITEGIC>MOL_PROPERTY
W(PB)
SciTegic.value.DoubleValue
-59.764

@<SCITEGIC>MOL_PROPERTY
W(SA)
SciTegic.value.DoubleValue
1.901

@<SCITEGIC>MOL_PROPERTY
Valence
SciTegic.value.DoubleValue
3.593

@<SCITEGIC>MOL_PROPERTY
Coulomb
SciTegic.value.DoubleValue
20.067

@<SCITEGIC>MOL_PROPERTY
VdW
SciTegic.value.DoubleValue
0.677

@<SCITEGIC>MOL_PROPERTY
VdW6
SciTegic.value.DoubleValue
-5.466

@<SCITEGIC>MOL_PROPERTY
VdW12
SciTegic.value.DoubleValue
6.144

@<SCITEGIC>MOL_PROPERTY
Bond
SciTegic.value.DoubleValue
0.191

@<SCITEGIC>MOL_PROPERTY
Angle
SciTegic.value.DoubleValue
1.557

@<SCITEGIC>MOL_PROPERTY
Pdih
SciTegic.value.DoubleValue
1.845

@<SCITEGIC>MOL_PROPERTY
Idih
SciTegic.value.DoubleValue
0.000

@<SCITEGIC>MOL_PROPERTY
Tether
SciTegic.value.DoubleValue
0.000

@<TRIPOS>MOLECULE
guest-s10_confgen4.mol2 : confsearch ligand conformer 85
          20          19           1
SMALL
USER_CHARGES
 
@<TRIPOS>ATOM
       1    N1      19.176932   20.820562   23.368922 N.4        1 MOL1        -0.5937
       2    H1      18.386034   21.368938   23.717374 H          1 MOL1         0.3684
       3    H2      19.801863   21.466408   22.878968 H          1 MOL1         0.3684
       4    H3      19.681884   20.462042   24.182516 H          1 MOL1         0.3684
       5    C1      18.719441   19.704324   22.469699 C.3        1 MOL1         0.1270
       6    H4      18.179930   20.181464   21.645511 H          1 MOL1         0.0960
       7    C2      17.728755   18.778433   23.197785 C.3        1 MOL1        -0.2382
       8    H5      17.399026   17.965117   22.539555 H          1 MOL1         0.1009
       9    H6      16.837105   19.337740   23.506365 H          1 MOL1         0.1009
      10    H7      18.172864   18.334829   24.096688 H          1 MOL1         0.1009
      11    C3      19.900997   18.920052   21.850106 C.3        1 MOL1        -0.1392
      12    H8      19.502071   18.184234   21.139355 H          1 MOL1         0.0998
      13    H9      20.505513   19.616643   21.254514 H          1 MOL1         0.0998
      14    C4      20.816324   18.199085   22.873203 C.3        1 MOL1        -0.1302
      15    H10     20.239338   17.459614   23.444415 H          1 MOL1         0.0998
      16    H11     21.216731   18.920383   23.598161 H          1 MOL1         0.0998
      17    C5      21.992147   17.482831   22.174814 C.3        1 MOL1        -0.2317
      18    H12     22.629495   16.975709   22.910805 H          1 MOL1         0.1009
      19    H13     22.618076   18.196142   21.622889 H          1 MOL1         0.1009
      20    H14     21.629550   16.726756   21.466226 H          1 MOL1         0.1009
@<TRIPOS>BOND
    1     1     2    1
    2     1     3    1
    3     1     4    1
    4     1     5    1
    5     5     6    1
    6     5     7    1
    7     7     8    1
    8     7     9    1
    9     7    10    1
   10     5    11    1
   11    11    12    1
   12    11    13    1
   13    11    14    1
   14    14    15    1
   15    14    16    1
   16    14    17    1
   17    17    18    1
   18    17    19    1
   19    17    20    1
@<TRIPOS>SUBSTRUCTURE
       1 MOL1            1 RESIDUE      1      MOL     
@<SCITEGIC>MOL_PROPERTY
VConf Rank
SciTegic.value.IntegerValue
85

@<SCITEGIC>MOL_PROPERTY
Conf_Id
SciTegic.value.IntegerValue
63

@<SCITEGIC>MOL_PROPERTY
Delta U+W
SciTegic.value.DoubleValue
0.420

@<SCITEGIC>MOL_PROPERTY
U+W
SciTegic.value.DoubleValue
-35.856

@<SCITEGIC>MOL_PROPERTY
Grad RMS
SciTegic.value.DoubleValue
0.000000

@<SCITEGIC>MOL_PROPERTY
U
SciTegic.value.DoubleValue
22.625

@<SCITEGIC>MOL_PROPERTY
W
SciTegic.value.DoubleValue
-58.481

@<SCITEGIC>MOL_PROPERTY
W(PB)
SciTegic.value.DoubleValue
-60.400

@<SCITEGIC>MOL_PROPERTY
W(SA)
SciTegic.value.DoubleValue
1.919

@<SCITEGIC>MOL_PROPERTY
Valence
SciTegic.value.DoubleValue
2.404

@<SCITEGIC>MOL_PROPERTY
Coulomb
SciTegic.value.DoubleValue
19.464

@<SCITEGIC>MOL_PROPERTY
VdW
SciTegic.value.DoubleValue
0.757

@<SCITEGIC>MOL_PROPERTY
VdW6
SciTegic.value.DoubleValue
-5.074

@<SCITEGIC>MOL_PROPERTY
VdW12
SciTegic.value.DoubleValue
5.830

@<SCITEGIC>MOL_PROPERTY
Bond
SciTegic.value.DoubleValue
0.172

@<SCITEGIC>MOL_PROPERTY
Angle
SciTegic.value.DoubleValue
1.207

@<SCITEGIC>MOL_PROPERTY
Pdih
SciTegic.value.DoubleValue
1.025

@<SCITEGIC>MOL_PROPERTY
Idih
SciTegic.value.DoubleValue
0.000

@<SCITEGIC>MOL_PROPERTY
Tether
SciTegic.value.DoubleValue
0.000

@<TRIPOS>MOLECULE
guest-s10_confgen4.mol2 : confsearch ligand conformer 86
          20          19           1
SMALL
USER_CHARGES
 
@<TRIPOS>ATOM
       1    N1      18.527407   19.781777   23.836397 N.4        1 MOL1        -0.5937
       2    H1      18.005355   19.976403   22.978226 H          1 MOL1         0.3684
       3    H2      18.909572   20.669160   24.172437 H          1 MOL1         0.3684
       4    H3      17.855459   19.453810   24.535300 H          1 MOL1         0.3684
       5    C1      19.614156   18.768826   23.597473 C.3        1 MOL1         0.1270
       6    H4      19.122504   17.856796   23.245894 H          1 MOL1         0.0960
       7    C2      20.348870   18.441314   24.907604 C.3        1 MOL1        -0.2382
       8    H5      19.645529   18.078217   25.667017 H          1 MOL1         0.1009
       9    H6      20.858884   19.325773   25.309314 H          1 MOL1         0.1009
      10    H7      21.099506   17.657295   24.747972 H          1 MOL1         0.1009
      11    C3      20.619895   19.224884   22.516046 C.3        1 MOL1        -0.1392
      12    H8      21.136381   20.131569   22.858094 H          1 MOL1         0.0998
      13    H9      21.394951   18.455361   22.401810 H          1 MOL1         0.0998
      14    C4      19.982163   19.497225   21.130034 C.3        1 MOL1        -0.1302
      15    H10     20.771449   19.817943   20.435722 H          1 MOL1         0.0998
      16    H11     19.277577   20.337457   21.194337 H          1 MOL1         0.0998
      17    C5      19.267127   18.260978   20.538608 C.3        1 MOL1        -0.2317
      18    H12     19.952661   17.406744   20.464407 H          1 MOL1         0.1009
      19    H13     18.893981   18.478836   19.529465 H          1 MOL1         0.1009
      20    H14     18.407929   17.958767   21.150444 H          1 MOL1         0.1009
@<TRIPOS>BOND
    1     1     2    1
    2     1     3    1
    3     1     4    1
    4     1     5    1
    5     5     6    1
    6     5     7    1
    7     7     8    1
    8     7     9    1
    9     7    10    1
   10     5    11    1
   11    11    12    1
   12    11    13    1
   13    11    14    1
   14    14    15    1
   15    14    16    1
   16    14    17    1
   17    17    18    1
   18    17    19    1
   19    17    20    1
@<TRIPOS>SUBSTRUCTURE
       1 MOL1            1 RESIDUE      1      MOL     
@<SCITEGIC>MOL_PROPERTY
VConf Rank
SciTegic.value.IntegerValue
86

@<SCITEGIC>MOL_PROPERTY
Conf_Id
SciTegic.value.IntegerValue
50

@<SCITEGIC>MOL_PROPERTY
Delta U+W
SciTegic.value.DoubleValue
0.466

@<SCITEGIC>MOL_PROPERTY
U+W
SciTegic.value.DoubleValue
-35.811

@<SCITEGIC>MOL_PROPERTY
Grad RMS
SciTegic.value.DoubleValue
0.000000

@<SCITEGIC>MOL_PROPERTY
U
SciTegic.value.DoubleValue
22.369

@<SCITEGIC>MOL_PROPERTY
W
SciTegic.value.DoubleValue
-58.180

@<SCITEGIC>MOL_PROPERTY
W(PB)
SciTegic.value.DoubleValue
-60.103

@<SCITEGIC>MOL_PROPERTY
W(SA)
SciTegic.value.DoubleValue
1.923

@<SCITEGIC>MOL_PROPERTY
Valence
SciTegic.value.DoubleValue
2.168

@<SCITEGIC>MOL_PROPERTY
Coulomb
SciTegic.value.DoubleValue
19.636

@<SCITEGIC>MOL_PROPERTY
VdW
SciTegic.value.DoubleValue
0.566

@<SCITEGIC>MOL_PROPERTY
VdW6
SciTegic.value.DoubleValue
-5.263

@<SCITEGIC>MOL_PROPERTY
VdW12
SciTegic.value.DoubleValue
5.829

@<SCITEGIC>MOL_PROPERTY
Bond
SciTegic.value.DoubleValue
0.162

@<SCITEGIC>MOL_PROPERTY
Angle
SciTegic.value.DoubleValue
1.066

@<SCITEGIC>MOL_PROPERTY
Pdih
SciTegic.value.DoubleValue
0.939

@<SCITEGIC>MOL_PROPERTY
Idih
SciTegic.value.DoubleValue
0.000

@<SCITEGIC>MOL_PROPERTY
Tether
SciTegic.value.DoubleValue
0.000

@<TRIPOS>MOLECULE
guest-s10_confgen4.mol2 : confsearch ligand conformer 87
          20          19           1
SMALL
USER_CHARGES
 
@<TRIPOS>ATOM
       1    N1      21.071319   20.722941   22.455833 N.4        1 MOL1        -0.5937
       2    H1      20.441578   21.475031   22.162946 H          1 MOL1         0.3684
       3    H2      21.679102   20.504642   21.662222 H          1 MOL1         0.3684
       4    H3      21.665530   21.098876   23.199689 H          1 MOL1         0.3684
       5    C1      20.309964   19.510366   22.919063 C.3        1 MOL1         0.1270
       6    H4      19.692015   19.841336   23.759515 H          1 MOL1         0.0960
       7    C2      21.289650   18.433065   23.420664 C.3        1 MOL1        -0.2382
       8    H5      21.962282   18.106023   22.617997 H          1 MOL1         0.1009
       9    H6      20.760441   17.550602   23.796147 H          1 MOL1         0.1009
      10    H7      21.905308   18.822583   24.240645 H          1 MOL1         0.1009
      11    C3      19.370476   18.961712   21.816986 C.3        1 MOL1        -0.1392
      12    H8      19.226965   19.734053   21.049805 H          1 MOL1         0.0998
      13    H9      19.840128   18.114763   21.299185 H          1 MOL1         0.0998
      14    C4      17.966061   18.558236   22.333328 C.3        1 MOL1        -0.1302
      15    H10     17.349607   18.257595   21.474531 H          1 MOL1         0.0998
      16    H11     17.470170   19.435362   22.772444 H          1 MOL1         0.0998
      17    C5      17.977852   17.407198   23.363478 C.3        1 MOL1        -0.2317
      18    H12     18.505043   16.528430   22.969951 H          1 MOL1         0.1009
      19    H13     16.952408   17.100569   23.607372 H          1 MOL1         0.1009
      20    H14     18.459781   17.712663   24.300530 H          1 MOL1         0.1009
@<TRIPOS>BOND
    1     1     2    1
    2     1     3    1
    3     1     4    1
    4     1     5    1
    5     5     6    1
    6     5     7    1
    7     7     8    1
    8     7     9    1
    9     7    10    1
   10     5    11    1
   11    11    12    1
   12    11    13    1
   13    11    14    1
   14    14    15    1
   15    14    16    1
   16    14    17    1
   17    17    18    1
   18    17    19    1
   19    17    20    1
@<TRIPOS>SUBSTRUCTURE
       1 MOL1            1 RESIDUE      1      MOL     
@<SCITEGIC>MOL_PROPERTY
VConf Rank
SciTegic.value.IntegerValue
87

@<SCITEGIC>MOL_PROPERTY
Conf_Id
SciTegic.value.IntegerValue
3

@<SCITEGIC>MOL_PROPERTY
Delta U+W
SciTegic.value.DoubleValue
3.093

@<SCITEGIC>MOL_PROPERTY
U+W
SciTegic.value.DoubleValue
-33.184

@<SCITEGIC>MOL_PROPERTY
Grad RMS
SciTegic.value.DoubleValue
0.000000

@<SCITEGIC>MOL_PROPERTY
U
SciTegic.value.DoubleValue
25.256

@<SCITEGIC>MOL_PROPERTY
W
SciTegic.value.DoubleValue
-58.439

@<SCITEGIC>MOL_PROPERTY
W(PB)
SciTegic.value.DoubleValue
-60.337

@<SCITEGIC>MOL_PROPERTY
W(SA)
SciTegic.value.DoubleValue
1.898

@<SCITEGIC>MOL_PROPERTY
Valence
SciTegic.value.DoubleValue
4.963

@<SCITEGIC>MOL_PROPERTY
Coulomb
SciTegic.value.DoubleValue
19.511

@<SCITEGIC>MOL_PROPERTY
VdW
SciTegic.value.DoubleValue
0.782

@<SCITEGIC>MOL_PROPERTY
VdW6
SciTegic.value.DoubleValue
-5.429

@<SCITEGIC>MOL_PROPERTY
VdW12
SciTegic.value.DoubleValue
6.211

@<SCITEGIC>MOL_PROPERTY
Bond
SciTegic.value.DoubleValue
0.174

@<SCITEGIC>MOL_PROPERTY
Angle
SciTegic.value.DoubleValue
1.377

@<SCITEGIC>MOL_PROPERTY
Pdih
SciTegic.value.DoubleValue
3.412

@<SCITEGIC>MOL_PROPERTY
Idih
SciTegic.value.DoubleValue
0.000

@<SCITEGIC>MOL_PROPERTY
Tether
SciTegic.value.DoubleValue
0.000

@<TRIPOS>MOLECULE
guest-s10_confgen4.mol2 : confsearch ligand conformer 88
          20          19           1
SMALL
USER_CHARGES
 
@<TRIPOS>ATOM
       1    N1      21.838338   19.155660   22.070017 N.4        1 MOL1        -0.5937
       2    H1      22.635901   19.124839   22.710782 H          1 MOL1         0.3684
       3    H2      21.850303   20.073182   21.616322 H          1 MOL1         0.3684
       4    H3      22.003801   18.453192   21.344866 H          1 MOL1         0.3684
       5    C1      20.541859   18.909892   22.791905 C.3        1 MOL1         0.1270
       6    H4      20.454551   19.700657   23.543014 H          1 MOL1         0.0960
       7    C2      20.581838   17.552600   23.517343 C.3        1 MOL1        -0.2382
       8    H5      19.704117   17.419308   24.160285 H          1 MOL1         0.1009
       9    H6      21.468085   17.483501   24.159934 H          1 MOL1         0.1009
      10    H7      20.614071   16.721045   22.802524 H          1 MOL1         0.1009
      11    C3      19.335416   19.018810   21.829064 C.3        1 MOL1        -0.1392
      12    H8      19.405452   19.969498   21.284258 H          1 MOL1         0.0998
      13    H9      19.403269   18.227715   21.070578 H          1 MOL1         0.0998
      14    C4      17.944801   18.948827   22.510529 C.3        1 MOL1        -0.1302
      15    H10     17.786696   17.956634   22.954182 H          1 MOL1         0.0998
      16    H11     17.169317   19.059591   21.739689 H          1 MOL1         0.0998
      17    C5      17.741367   20.040465   23.585747 C.3        1 MOL1        -0.2317
      18    H12     17.897227   21.042623   23.165575 H          1 MOL1         0.1009
      19    H13     18.431878   19.910078   24.428515 H          1 MOL1         0.1009
      20    H14     16.720022   20.000348   23.986076 H          1 MOL1         0.1009
@<TRIPOS>BOND
    1     1     2    1
    2     1     3    1
    3     1     4    1
    4     1     5    1
    5     5     6    1
    6     5     7    1
    7     7     8    1
    8     7     9    1
    9     7    10    1
   10     5    11    1
   11    11    12    1
   12    11    13    1
   13    11    14    1
   14    14    15    1
   15    14    16    1
   16    14    17    1
   17    17    18    1
   18    17    19    1
   19    17    20    1
@<TRIPOS>SUBSTRUCTURE
       1 MOL1            1 RESIDUE      1      MOL     
@<SCITEGIC>MOL_PROPERTY
VConf Rank
SciTegic.value.IntegerValue
88

@<SCITEGIC>MOL_PROPERTY
Conf_Id
SciTegic.value.IntegerValue
64

@<SCITEGIC>MOL_PROPERTY
Delta U+W
SciTegic.value.DoubleValue
0.544

@<SCITEGIC>MOL_PROPERTY
U+W
SciTegic.value.DoubleValue
-35.732

@<SCITEGIC>MOL_PROPERTY
Grad RMS
SciTegic.value.DoubleValue
0.000000

@<SCITEGIC>MOL_PROPERTY
U
SciTegic.value.DoubleValue
22.800

@<SCITEGIC>MOL_PROPERTY
W
SciTegic.value.DoubleValue
-58.532

@<SCITEGIC>MOL_PROPERTY
W(PB)
SciTegic.value.DoubleValue
-60.437

@<SCITEGIC>MOL_PROPERTY
W(SA)
SciTegic.value.DoubleValue
1.905

@<SCITEGIC>MOL_PROPERTY
Valence
SciTegic.value.DoubleValue
2.662

@<SCITEGIC>MOL_PROPERTY
Coulomb
SciTegic.value.DoubleValue
19.485

@<SCITEGIC>MOL_PROPERTY
VdW
SciTegic.value.DoubleValue
0.653

@<SCITEGIC>MOL_PROPERTY
VdW6
SciTegic.value.DoubleValue
-5.460

@<SCITEGIC>MOL_PROPERTY
VdW12
SciTegic.value.DoubleValue
6.113

@<SCITEGIC>MOL_PROPERTY
Bond
SciTegic.value.DoubleValue
0.174

@<SCITEGIC>MOL_PROPERTY
Angle
SciTegic.value.DoubleValue
1.378

@<SCITEGIC>MOL_PROPERTY
Pdih
SciTegic.value.DoubleValue
1.109

@<SCITEGIC>MOL_PROPERTY
Idih
SciTegic.value.DoubleValue
0.000

@<SCITEGIC>MOL_PROPERTY
Tether
SciTegic.value.DoubleValue
0.000

@<TRIPOS>MOLECULE
guest-s10_confgen4.mol2 : confsearch ligand conformer 89
          20          19           1
SMALL
USER_CHARGES
 
@<TRIPOS>ATOM
       1    N1      18.388570   17.399142   23.144778 N.4        1 MOL1        -0.5937
       2    H1      18.797867   17.584448   24.063152 H          1 MOL1         0.3684
       3    H2      18.378132   16.384054   23.014013 H          1 MOL1         0.3684
       4    H3      17.414239   17.711373   23.173967 H          1 MOL1         0.3684
       5    C1      19.157967   18.087216   22.049600 C.3        1 MOL1         0.1270
       6    H4      18.652916   17.820294   21.115984 H          1 MOL1         0.0960
       7    C2      20.594495   17.545884   21.965502 C.3        1 MOL1        -0.2382
       8    H5      21.122346   17.658032   22.919706 H          1 MOL1         0.1009
       9    H6      21.164230   18.068221   21.187103 H          1 MOL1         0.1009
      10    H7      20.587153   16.478686   21.712510 H          1 MOL1         0.1009
      11    C3      19.099980   19.631030   22.168823 C.3        1 MOL1        -0.1392
      12    H8      19.521498   20.082504   21.261083 H          1 MOL1         0.0998
      13    H9      18.040824   19.920286   22.169008 H          1 MOL1         0.0998
      14    C4      19.773346   20.248700   23.425918 C.3        1 MOL1        -0.1302
      15    H10     19.713931   19.561323   24.279945 H          1 MOL1         0.0998
      16    H11     19.203459   21.141187   23.720329 H          1 MOL1         0.0998
      17    C5      21.239861   20.681488   23.191878 C.3        1 MOL1        -0.2317
      18    H12     21.885467   19.834238   22.936268 H          1 MOL1         0.1009
      19    H13     21.650540   21.148520   24.096416 H          1 MOL1         0.1009
      20    H14     21.307794   21.416317   22.379195 H          1 MOL1         0.1009
@<TRIPOS>BOND
    1     1     2    1
    2     1     3    1
    3     1     4    1
    4     1     5    1
    5     5     6    1
    6     5     7    1
    7     7     8    1
    8     7     9    1
    9     7    10    1
   10     5    11    1
   11    11    12    1
   12    11    13    1
   13    11    14    1
   14    14    15    1
   15    14    16    1
   16    14    17    1
   17    17    18    1
   18    17    19    1
   19    17    20    1
@<TRIPOS>SUBSTRUCTURE
       1 MOL1            1 RESIDUE      1      MOL     
@<SCITEGIC>MOL_PROPERTY
VConf Rank
SciTegic.value.IntegerValue
89

@<SCITEGIC>MOL_PROPERTY
Conf_Id
SciTegic.value.IntegerValue
35

@<SCITEGIC>MOL_PROPERTY
Delta U+W
SciTegic.value.DoubleValue
3.004

@<SCITEGIC>MOL_PROPERTY
U+W
SciTegic.value.DoubleValue
-33.272

@<SCITEGIC>MOL_PROPERTY
Grad RMS
SciTegic.value.DoubleValue
0.000000

@<SCITEGIC>MOL_PROPERTY
U
SciTegic.value.DoubleValue
25.367

@<SCITEGIC>MOL_PROPERTY
W
SciTegic.value.DoubleValue
-58.639

@<SCITEGIC>MOL_PROPERTY
W(PB)
SciTegic.value.DoubleValue
-60.512

@<SCITEGIC>MOL_PROPERTY
W(SA)
SciTegic.value.DoubleValue
1.873

@<SCITEGIC>MOL_PROPERTY
Valence
SciTegic.value.DoubleValue
4.943

@<SCITEGIC>MOL_PROPERTY
Coulomb
SciTegic.value.DoubleValue
19.661

@<SCITEGIC>MOL_PROPERTY
VdW
SciTegic.value.DoubleValue
0.764

@<SCITEGIC>MOL_PROPERTY
VdW6
SciTegic.value.DoubleValue
-5.871

@<SCITEGIC>MOL_PROPERTY
VdW12
SciTegic.value.DoubleValue
6.636

@<SCITEGIC>MOL_PROPERTY
Bond
SciTegic.value.DoubleValue
0.230

@<SCITEGIC>MOL_PROPERTY
Angle
SciTegic.value.DoubleValue
1.857

@<SCITEGIC>MOL_PROPERTY
Pdih
SciTegic.value.DoubleValue
2.855

@<SCITEGIC>MOL_PROPERTY
Idih
SciTegic.value.DoubleValue
0.000

@<SCITEGIC>MOL_PROPERTY
Tether
SciTegic.value.DoubleValue
0.000

@<TRIPOS>MOLECULE
guest-s10_confgen4.mol2 : confsearch ligand conformer 90
          20          19           1
SMALL
USER_CHARGES
 
@<TRIPOS>ATOM
       1    N1      20.473020   17.724471   23.784310 N.4        1 MOL1        -0.5937
       2    H1      20.641459   17.592480   24.785213 H          1 MOL1         0.3684
       3    H2      21.047395   17.039489   23.285837 H          1 MOL1         0.3684
       4    H3      19.494499   17.494028   23.601581 H          1 MOL1         0.3684
       5    C1      20.791475   19.129373   23.351527 C.3        1 MOL1         0.1270
       6    H4      21.856631   19.263228   23.564719 H          1 MOL1         0.0960
       7    C2      20.022538   20.163865   24.192404 C.3        1 MOL1        -0.2382
       8    H5      18.937632   20.031775   24.103939 H          1 MOL1         0.1009
       9    H6      20.272146   21.184419   23.876830 H          1 MOL1         0.1009
      10    H7      20.286487   20.069768   25.252802 H          1 MOL1         0.1009
      11    C3      20.607895   19.351912   21.828343 C.3        1 MOL1        -0.1392
      12    H8      21.147139   20.269713   21.559273 H          1 MOL1         0.0998
      13    H9      21.119226   18.545181   21.287100 H          1 MOL1         0.0998
      14    C4      19.152827   19.483302   21.297205 C.3        1 MOL1        -0.1302
      15    H10     19.202572   19.680840   20.217238 H          1 MOL1         0.0998
      16    H11     18.665458   20.364825   21.735405 H          1 MOL1         0.0998
      17    C5      18.268837   18.235417   21.521411 C.3        1 MOL1        -0.2317
      18    H12     18.769559   17.324079   21.169444 H          1 MOL1         0.1009
      19    H13     17.326831   18.332631   20.966122 H          1 MOL1         0.1009
      20    H14     18.006982   18.110748   22.578367 H          1 MOL1         0.1009
@<TRIPOS>BOND
    1     1     2    1
    2     1     3    1
    3     1     4    1
    4     1     5    1
    5     5     6    1
    6     5     7    1
    7     7     8    1
    8     7     9    1
    9     7    10    1
   10     5    11    1
   11    11    12    1
   12    11    13    1
   13    11    14    1
   14    14    15    1
   15    14    16    1
   16    14    17    1
   17    17    18    1
   18    17    19    1
   19    17    20    1
@<TRIPOS>SUBSTRUCTURE
       1 MOL1            1 RESIDUE      1      MOL     
@<SCITEGIC>MOL_PROPERTY
VConf Rank
SciTegic.value.IntegerValue
90

@<SCITEGIC>MOL_PROPERTY
Conf_Id
SciTegic.value.IntegerValue
55

@<SCITEGIC>MOL_PROPERTY
Delta U+W
SciTegic.value.DoubleValue
2.767

@<SCITEGIC>MOL_PROPERTY
U+W
SciTegic.value.DoubleValue
-33.509

@<SCITEGIC>MOL_PROPERTY
Grad RMS
SciTegic.value.DoubleValue
0.000000

@<SCITEGIC>MOL_PROPERTY
U
SciTegic.value.DoubleValue
24.552

@<SCITEGIC>MOL_PROPERTY
W
SciTegic.value.DoubleValue
-58.061

@<SCITEGIC>MOL_PROPERTY
W(PB)
SciTegic.value.DoubleValue
-59.930

@<SCITEGIC>MOL_PROPERTY
W(SA)
SciTegic.value.DoubleValue
1.869

@<SCITEGIC>MOL_PROPERTY
Valence
SciTegic.value.DoubleValue
3.726

@<SCITEGIC>MOL_PROPERTY
Coulomb
SciTegic.value.DoubleValue
20.219

@<SCITEGIC>MOL_PROPERTY
VdW
SciTegic.value.DoubleValue
0.606

@<SCITEGIC>MOL_PROPERTY
VdW6
SciTegic.value.DoubleValue
-6.395

@<SCITEGIC>MOL_PROPERTY
VdW12
SciTegic.value.DoubleValue
7.001

@<SCITEGIC>MOL_PROPERTY
Bond
SciTegic.value.DoubleValue
0.241

@<SCITEGIC>MOL_PROPERTY
Angle
SciTegic.value.DoubleValue
2.098

@<SCITEGIC>MOL_PROPERTY
Pdih
SciTegic.value.DoubleValue
1.387

@<SCITEGIC>MOL_PROPERTY
Idih
SciTegic.value.DoubleValue
0.000

@<SCITEGIC>MOL_PROPERTY
Tether
SciTegic.value.DoubleValue
0.000

@<TRIPOS>MOLECULE
guest-s10_confgen4.mol2 : confsearch ligand conformer 91
          20          19           1
SMALL
USER_CHARGES
 
@<TRIPOS>ATOM
       1    N1      20.909390   17.626161   21.842822 N.4        1 MOL1        -0.5937
       2    H1      21.147231   18.180389   21.016500 H          1 MOL1         0.3684
       3    H2      21.023021   16.640320   21.592099 H          1 MOL1         0.3684
       4    H3      21.602459   17.837627   22.564985 H          1 MOL1         0.3684
       5    C1      19.510932   17.916111   22.317486 C.3        1 MOL1         0.1270
       6    H4      19.341499   17.289975   23.199038 H          1 MOL1         0.0960
       7    C2      18.483592   17.522684   21.243355 C.3        1 MOL1        -0.2382
       8    H5      18.589733   16.464856   20.973172 H          1 MOL1         0.1009
       9    H6      18.610650   18.122250   20.333316 H          1 MOL1         0.1009
      10    H7      17.460077   17.670689   21.609620 H          1 MOL1         0.1009
      11    C3      19.318150   19.392285   22.729670 C.3        1 MOL1        -0.1392
      12    H8      19.506037   20.044792   21.866623 H          1 MOL1         0.0998
      13    H9      18.268981   19.546056   23.015445 H          1 MOL1         0.0998
      14    C4      20.223924   19.814376   23.911588 C.3        1 MOL1        -0.1302
      15    H10     21.281878   19.723116   23.630818 H          1 MOL1         0.0998
      16    H11     20.060980   19.138300   24.762830 H          1 MOL1         0.0998
      17    C5      19.945295   21.267385   24.352535 C.3        1 MOL1        -0.2317
      18    H12     20.128914   21.971654   23.530620 H          1 MOL1         0.1009
      19    H13     20.596624   21.550172   25.189725 H          1 MOL1         0.1009
      20    H14     18.904641   21.388728   24.680478 H          1 MOL1         0.1009
@<TRIPOS>BOND
    1     1     2    1
    2     1     3    1
    3     1     4    1
    4     1     5    1
    5     5     6    1
    6     5     7    1
    7     7     8    1
    8     7     9    1
    9     7    10    1
   10     5    11    1
   11    11    12    1
   12    11    13    1
   13    11    14    1
   14    14    15    1
   15    14    16    1
   16    14    17    1
   17    17    18    1
   18    17    19    1
   19    17    20    1
@<TRIPOS>SUBSTRUCTURE
       1 MOL1            1 RESIDUE      1      MOL     
@<SCITEGIC>MOL_PROPERTY
VConf Rank
SciTegic.value.IntegerValue
91

@<SCITEGIC>MOL_PROPERTY
Conf_Id
SciTegic.value.IntegerValue
74

@<SCITEGIC>MOL_PROPERTY
Delta U+W
SciTegic.value.DoubleValue
0.000

@<SCITEGIC>MOL_PROPERTY
U+W
SciTegic.value.DoubleValue
-36.276

@<SCITEGIC>MOL_PROPERTY
Grad RMS
SciTegic.value.DoubleValue
0.000000

@<SCITEGIC>MOL_PROPERTY
U
SciTegic.value.DoubleValue
22.080

@<SCITEGIC>MOL_PROPERTY
W
SciTegic.value.DoubleValue
-58.356

@<SCITEGIC>MOL_PROPERTY
W(PB)
SciTegic.value.DoubleValue
-60.289

@<SCITEGIC>MOL_PROPERTY
W(SA)
SciTegic.value.DoubleValue
1.932

@<SCITEGIC>MOL_PROPERTY
Valence
SciTegic.value.DoubleValue
1.885

@<SCITEGIC>MOL_PROPERTY
Coulomb
SciTegic.value.DoubleValue
19.559

@<SCITEGIC>MOL_PROPERTY
VdW
SciTegic.value.DoubleValue
0.637

@<SCITEGIC>MOL_PROPERTY
VdW6
SciTegic.value.DoubleValue
-4.482

@<SCITEGIC>MOL_PROPERTY
VdW12
SciTegic.value.DoubleValue
5.119

@<SCITEGIC>MOL_PROPERTY
Bond
SciTegic.value.DoubleValue
0.136

@<SCITEGIC>MOL_PROPERTY
Angle
SciTegic.value.DoubleValue
0.867

@<SCITEGIC>MOL_PROPERTY
Pdih
SciTegic.value.DoubleValue
0.882

@<SCITEGIC>MOL_PROPERTY
Idih
SciTegic.value.DoubleValue
0.000

@<SCITEGIC>MOL_PROPERTY
Tether
SciTegic.value.DoubleValue
0.000

@<TRIPOS>MOLECULE
guest-s10_confgen4.mol2 : confsearch ligand conformer 92
          20          19           1
SMALL
USER_CHARGES
 
@<TRIPOS>ATOM
       1    N1      18.210142   19.176511   24.542499 N.4        1 MOL1        -0.5937
       2    H1      17.810422   18.236297   24.606357 H          1 MOL1         0.3684
       3    H2      17.521773   19.770847   24.073843 H          1 MOL1         0.3684
       4    H3      18.313220   19.526493   25.498829 H          1 MOL1         0.3684
       5    C1      19.525333   19.172787   23.812618 C.3        1 MOL1         0.1270
       6    H4      20.192572   18.519400   24.383357 H          1 MOL1         0.0960
       7    C2      20.129950   20.588737   23.794646 C.3        1 MOL1        -0.2382
       8    H5      20.178428   21.001027   24.809973 H          1 MOL1         0.1009
       9    H6      19.528469   21.269716   23.179774 H          1 MOL1         0.1009
      10    H7      21.152385   20.581373   23.399937 H          1 MOL1         0.1009
      11    C3      19.373925   18.585395   22.390108 C.3        1 MOL1        -0.1392
      12    H8      18.841196   17.628141   22.464459 H          1 MOL1         0.0998
      13    H9      18.741520   19.246272   21.782527 H          1 MOL1         0.0998
      14    C4      20.721254   18.342915   21.666873 C.3        1 MOL1        -0.1302
      15    H10     21.378799   17.733383   22.302622 H          1 MOL1         0.0998
      16    H11     21.238542   19.296179   21.494823 H          1 MOL1         0.0998
      17    C5      20.520109   17.633445   20.310453 C.3        1 MOL1        -0.2317
      18    H12     20.043149   16.653565   20.443055 H          1 MOL1         0.1009
      19    H13     21.483987   17.472933   19.810189 H          1 MOL1         0.1009
      20    H14     19.889284   18.232825   19.641078 H          1 MOL1         0.1009
@<TRIPOS>BOND
    1     1     2    1
    2     1     3    1
    3     1     4    1
    4     1     5    1
    5     5     6    1
    6     5     7    1
    7     7     8    1
    8     7     9    1
    9     7    10    1
   10     5    11    1
   11    11    12    1
   12    11    13    1
   13    11    14    1
   14    14    15    1
   15    14    16    1
   16    14    17    1
   17    17    18    1
   18    17    19    1
   19    17    20    1
@<TRIPOS>SUBSTRUCTURE
       1 MOL1            1 RESIDUE      1      MOL     
@<SCITEGIC>MOL_PROPERTY
VConf Rank
SciTegic.value.IntegerValue
92

@<SCITEGIC>MOL_PROPERTY
Conf_Id
SciTegic.value.IntegerValue
80

@<SCITEGIC>MOL_PROPERTY
Delta U+W
SciTegic.value.DoubleValue
0.460

@<SCITEGIC>MOL_PROPERTY
U+W
SciTegic.value.DoubleValue
-35.817

@<SCITEGIC>MOL_PROPERTY
Grad RMS
SciTegic.value.DoubleValue
0.000000

@<SCITEGIC>MOL_PROPERTY
U
SciTegic.value.DoubleValue
22.495

@<SCITEGIC>MOL_PROPERTY
W
SciTegic.value.DoubleValue
-58.311

@<SCITEGIC>MOL_PROPERTY
W(PB)
SciTegic.value.DoubleValue
-60.259

@<SCITEGIC>MOL_PROPERTY
W(SA)
SciTegic.value.DoubleValue
1.948

@<SCITEGIC>MOL_PROPERTY
Valence
SciTegic.value.DoubleValue
2.419

@<SCITEGIC>MOL_PROPERTY
Coulomb
SciTegic.value.DoubleValue
19.304

@<SCITEGIC>MOL_PROPERTY
VdW
SciTegic.value.DoubleValue
0.772

@<SCITEGIC>MOL_PROPERTY
VdW6
SciTegic.value.DoubleValue
-4.635

@<SCITEGIC>MOL_PROPERTY
VdW12
SciTegic.value.DoubleValue
5.407

@<SCITEGIC>MOL_PROPERTY
Bond
SciTegic.value.DoubleValue
0.149

@<SCITEGIC>MOL_PROPERTY
Angle
SciTegic.value.DoubleValue
1.142

@<SCITEGIC>MOL_PROPERTY
Pdih
SciTegic.value.DoubleValue
1.129

@<SCITEGIC>MOL_PROPERTY
Idih
SciTegic.value.DoubleValue
0.000

@<SCITEGIC>MOL_PROPERTY
Tether
SciTegic.value.DoubleValue
0.000

@<TRIPOS>MOLECULE
guest-s10_confgen4.mol2 : confsearch ligand conformer 93
          20          19           1
SMALL
USER_CHARGES
 
@<TRIPOS>ATOM
       1    N1      18.399298   20.583417   21.704424 N.4        1 MOL1        -0.5937
       2    H1      18.976676   21.271536   21.213569 H          1 MOL1         0.3684
       3    H2      18.104642   21.005435   22.588599 H          1 MOL1         0.3684
       4    H3      17.557153   20.438586   21.141014 H          1 MOL1         0.3684
       5    C1      19.140714   19.293848   21.928172 C.3        1 MOL1         0.1270
       6    H4      19.407255   18.917708   20.935562 H          1 MOL1         0.0960
       7    C2      18.220352   18.260264   22.599659 C.3        1 MOL1        -0.2382
       8    H5      17.268282   18.181208   22.060721 H          1 MOL1         0.1009
       9    H6      18.002065   18.536867   23.638550 H          1 MOL1         0.1009
      10    H7      18.677250   17.264175   22.591940 H          1 MOL1         0.1009
      11    C3      20.450547   19.535698   22.717590 C.3        1 MOL1        -0.1392
      12    H8      21.018695   20.308968   22.183780 H          1 MOL1         0.0998
      13    H9      20.225542   19.959387   23.705309 H          1 MOL1         0.0998
      14    C4      21.367371   18.292350   22.863067 C.3        1 MOL1        -0.1302
      15    H10     22.414504   18.619338   22.794447 H          1 MOL1         0.0998
      16    H11     21.212089   17.602424   22.021726 H          1 MOL1         0.0998
      17    C5      21.188392   17.550354   24.208594 C.3        1 MOL1        -0.2317
      18    H12     21.415479   18.212297   25.054396 H          1 MOL1         0.1009
      19    H13     21.869556   16.691529   24.267059 H          1 MOL1         0.1009
      20    H14     20.167971   17.173669   24.340468 H          1 MOL1         0.1009
@<TRIPOS>BOND
    1     1     2    1
    2     1     3    1
    3     1     4    1
    4     1     5    1
    5     5     6    1
    6     5     7    1
    7     7     8    1
    8     7     9    1
    9     7    10    1
   10     5    11    1
   11    11    12    1
   12    11    13    1
   13    11    14    1
   14    14    15    1
   15    14    16    1
   16    14    17    1
   17    17    18    1
   18    17    19    1
   19    17    20    1
@<TRIPOS>SUBSTRUCTURE
       1 MOL1            1 RESIDUE      1      MOL     
@<SCITEGIC>MOL_PROPERTY
VConf Rank
SciTegic.value.IntegerValue
93

@<SCITEGIC>MOL_PROPERTY
Conf_Id
SciTegic.value.IntegerValue
52

@<SCITEGIC>MOL_PROPERTY
Delta U+W
SciTegic.value.DoubleValue
2.995

@<SCITEGIC>MOL_PROPERTY
U+W
SciTegic.value.DoubleValue
-33.282

@<SCITEGIC>MOL_PROPERTY
Grad RMS
SciTegic.value.DoubleValue
0.000000

@<SCITEGIC>MOL_PROPERTY
U
SciTegic.value.DoubleValue
25.224

@<SCITEGIC>MOL_PROPERTY
W
SciTegic.value.DoubleValue
-58.506

@<SCITEGIC>MOL_PROPERTY
W(PB)
SciTegic.value.DoubleValue
-60.411

@<SCITEGIC>MOL_PROPERTY
W(SA)
SciTegic.value.DoubleValue
1.905

@<SCITEGIC>MOL_PROPERTY
Valence
SciTegic.value.DoubleValue
4.945

@<SCITEGIC>MOL_PROPERTY
Coulomb
SciTegic.value.DoubleValue
19.467

@<SCITEGIC>MOL_PROPERTY
VdW
SciTegic.value.DoubleValue
0.813

@<SCITEGIC>MOL_PROPERTY
VdW6
SciTegic.value.DoubleValue
-5.458

@<SCITEGIC>MOL_PROPERTY
VdW12
SciTegic.value.DoubleValue
6.270

@<SCITEGIC>MOL_PROPERTY
Bond
SciTegic.value.DoubleValue
0.200

@<SCITEGIC>MOL_PROPERTY
Angle
SciTegic.value.DoubleValue
1.675

@<SCITEGIC>MOL_PROPERTY
Pdih
SciTegic.value.DoubleValue
3.070

@<SCITEGIC>MOL_PROPERTY
Idih
SciTegic.value.DoubleValue
0.000

@<SCITEGIC>MOL_PROPERTY
Tether
SciTegic.value.DoubleValue
0.000

@<TRIPOS>MOLECULE
guest-s10_confgen4.mol2 : confsearch ligand conformer 94
          20          19           1
SMALL
USER_CHARGES
 
@<TRIPOS>ATOM
       1    N1      20.130142   19.926608   24.030855 N.4        1 MOL1        -0.5937
       2    H1      19.620017   20.801733   23.888358 H          1 MOL1         0.3684
       3    H2      20.896351   20.121362   24.680965 H          1 MOL1         0.3684
       4    H3      19.493186   19.272702   24.490942 H          1 MOL1         0.3684
       5    C1      20.638111   19.369598   22.728950 C.3        1 MOL1         0.1270
       6    H4      21.210121   18.467154   22.965878 H          1 MOL1         0.0960
       7    C2      21.588155   20.380420   22.064560 C.3        1 MOL1        -0.2382
       8    H5      21.059238   21.301969   21.790969 H          1 MOL1         0.1009
       9    H6      22.033657   19.959010   21.154842 H          1 MOL1         0.1009
      10    H7      22.409149   20.645653   22.742022 H          1 MOL1         0.1009
      11    C3      19.498261   18.981398   21.757209 C.3        1 MOL1        -0.1392
      12    H8      18.761901   19.793858   21.700143 H          1 MOL1         0.0998
      13    H9      19.917402   18.885423   20.746668 H          1 MOL1         0.0998
      14    C4      18.790461   17.641033   22.087430 C.3        1 MOL1        -0.1302
      15    H10     19.527312   16.825550   22.096036 H          1 MOL1         0.0998
      16    H11     18.094534   17.410811   21.268461 H          1 MOL1         0.0998
      17    C5      17.998534   17.634624   23.414839 C.3        1 MOL1        -0.2317
      18    H12     17.370245   16.736453   23.476718 H          1 MOL1         0.1009
      19    H13     17.337410   18.507885   23.489987 H          1 MOL1         0.1009
      20    H14     18.666207   17.617026   24.283943 H          1 MOL1         0.1009
@<TRIPOS>BOND
    1     1     2    1
    2     1     3    1
    3     1     4    1
    4     1     5    1
    5     5     6    1
    6     5     7    1
    7     7     8    1
    8     7     9    1
    9     7    10    1
   10     5    11    1
   11    11    12    1
   12    11    13    1
   13    11    14    1
   14    14    15    1
   15    14    16    1
   16    14    17    1
   17    17    18    1
   18    17    19    1
   19    17    20    1
@<TRIPOS>SUBSTRUCTURE
       1 MOL1            1 RESIDUE      1      MOL     
@<SCITEGIC>MOL_PROPERTY
VConf Rank
SciTegic.value.IntegerValue
94

@<SCITEGIC>MOL_PROPERTY
Conf_Id
SciTegic.value.IntegerValue
54

@<SCITEGIC>MOL_PROPERTY
Delta U+W
SciTegic.value.DoubleValue
2.752

@<SCITEGIC>MOL_PROPERTY
U+W
SciTegic.value.DoubleValue
-33.525

@<SCITEGIC>MOL_PROPERTY
Grad RMS
SciTegic.value.DoubleValue
0.000000

@<SCITEGIC>MOL_PROPERTY
U
SciTegic.value.DoubleValue
24.337

@<SCITEGIC>MOL_PROPERTY
W
SciTegic.value.DoubleValue
-57.862

@<SCITEGIC>MOL_PROPERTY
W(PB)
SciTegic.value.DoubleValue
-59.764

@<SCITEGIC>MOL_PROPERTY
W(SA)
SciTegic.value.DoubleValue
1.901

@<SCITEGIC>MOL_PROPERTY
Valence
SciTegic.value.DoubleValue
3.593

@<SCITEGIC>MOL_PROPERTY
Coulomb
SciTegic.value.DoubleValue
20.067

@<SCITEGIC>MOL_PROPERTY
VdW
SciTegic.value.DoubleValue
0.677

@<SCITEGIC>MOL_PROPERTY
VdW6
SciTegic.value.DoubleValue
-5.466

@<SCITEGIC>MOL_PROPERTY
VdW12
SciTegic.value.DoubleValue
6.144

@<SCITEGIC>MOL_PROPERTY
Bond
SciTegic.value.DoubleValue
0.191

@<SCITEGIC>MOL_PROPERTY
Angle
SciTegic.value.DoubleValue
1.557

@<SCITEGIC>MOL_PROPERTY
Pdih
SciTegic.value.DoubleValue
1.845

@<SCITEGIC>MOL_PROPERTY
Idih
SciTegic.value.DoubleValue
0.000

@<SCITEGIC>MOL_PROPERTY
Tether
SciTegic.value.DoubleValue
0.000

@<TRIPOS>MOLECULE
guest-s10_confgen4.mol2 : confsearch ligand conformer 95
          20          19           1
SMALL
USER_CHARGES
 
@<TRIPOS>ATOM
       1    N1      19.081175   18.930405   20.744744 N.4        1 MOL1        -0.5937
       2    H1      18.905211   19.509681   19.919438 H          1 MOL1         0.3684
       3    H2      18.406642   18.160777   20.724973 H          1 MOL1         0.3684
       4    H3      20.013744   18.524548   20.639653 H          1 MOL1         0.3684
       5    C1      18.969629   19.731304   22.013603 C.3        1 MOL1         0.1270
       6    H4      17.952504   20.135373   22.028005 H          1 MOL1         0.0960
       7    C2      19.942170   20.924145   22.001916 C.3        1 MOL1        -0.2382
       8    H5      19.859065   21.504367   22.929228 H          1 MOL1         0.1009
       9    H6      19.712694   21.597815   21.167293 H          1 MOL1         0.1009
      10    H7      20.983266   20.598403   21.892128 H          1 MOL1         0.1009
      11    C3      19.133702   18.859212   23.281510 C.3        1 MOL1        -0.1392
      12    H8      18.952253   19.484450   24.165756 H          1 MOL1         0.0998
      13    H9      18.342573   18.097952   23.283791 H          1 MOL1         0.0998
      14    C4      20.511220   18.161374   23.422251 C.3        1 MOL1        -0.1302
      15    H10     21.313050   18.909977   23.473974 H          1 MOL1         0.0998
      16    H11     20.712751   17.538497   22.540451 H          1 MOL1         0.0998
      17    C5      20.571772   17.277519   24.686554 C.3        1 MOL1        -0.2317
      18    H12     21.552569   16.792246   24.773818 H          1 MOL1         0.1009
      19    H13     19.808329   16.489244   24.654944 H          1 MOL1         0.1009
      20    H14     20.409756   17.874012   25.593841 H          1 MOL1         0.1009
@<TRIPOS>BOND
    1     1     2    1
    2     1     3    1
    3     1     4    1
    4     1     5    1
    5     5     6    1
    6     5     7    1
    7     7     8    1
    8     7     9    1
    9     7    10    1
   10     5    11    1
   11    11    12    1
   12    11    13    1
   13    11    14    1
   14    14    15    1
   15    14    16    1
   16    14    17    1
   17    17    18    1
   18    17    19    1
   19    17    20    1
@<TRIPOS>SUBSTRUCTURE
       1 MOL1            1 RESIDUE      1      MOL     
@<SCITEGIC>MOL_PROPERTY
VConf Rank
SciTegic.value.IntegerValue
95

@<SCITEGIC>MOL_PROPERTY
Conf_Id
SciTegic.value.IntegerValue
63

@<SCITEGIC>MOL_PROPERTY
Delta U+W
SciTegic.value.DoubleValue
0.420

@<SCITEGIC>MOL_PROPERTY
U+W
SciTegic.value.DoubleValue
-35.856

@<SCITEGIC>MOL_PROPERTY
Grad RMS
SciTegic.value.DoubleValue
0.000000

@<SCITEGIC>MOL_PROPERTY
U
SciTegic.value.DoubleValue
22.625

@<SCITEGIC>MOL_PROPERTY
W
SciTegic.value.DoubleValue
-58.481

@<SCITEGIC>MOL_PROPERTY
W(PB)
SciTegic.value.DoubleValue
-60.400

@<SCITEGIC>MOL_PROPERTY
W(SA)
SciTegic.value.DoubleValue
1.919

@<SCITEGIC>MOL_PROPERTY
Valence
SciTegic.value.DoubleValue
2.404

@<SCITEGIC>MOL_PROPERTY
Coulomb
SciTegic.value.DoubleValue
19.464

@<SCITEGIC>MOL_PROPERTY
VdW
SciTegic.value.DoubleValue
0.757

@<SCITEGIC>MOL_PROPERTY
VdW6
SciTegic.value.DoubleValue
-5.074

@<SCITEGIC>MOL_PROPERTY
VdW12
SciTegic.value.DoubleValue
5.830

@<SCITEGIC>MOL_PROPERTY
Bond
SciTegic.value.DoubleValue
0.172

@<SCITEGIC>MOL_PROPERTY
Angle
SciTegic.value.DoubleValue
1.207

@<SCITEGIC>MOL_PROPERTY
Pdih
SciTegic.value.DoubleValue
1.025

@<SCITEGIC>MOL_PROPERTY
Idih
SciTegic.value.DoubleValue
0.000

@<SCITEGIC>MOL_PROPERTY
Tether
SciTegic.value.DoubleValue
0.000

@<TRIPOS>MOLECULE
guest-s10_confgen4.mol2 : confsearch ligand conformer 96
          20          19           1
SMALL
USER_CHARGES
 
@<TRIPOS>ATOM
       1    N1      19.046525   18.102804   24.162844 N.4        1 MOL1        -0.5937
       2    H1      19.709457   18.666650   24.700871 H          1 MOL1         0.3684
       3    H2      19.388289   17.138643   24.166356 H          1 MOL1         0.3684
       4    H3      18.156054   18.113600   24.667312 H          1 MOL1         0.3684
       5    C1      18.893332   18.628201   22.761178 C.3        1 MOL1         0.1270
       6    H4      18.524208   19.654492   22.848373 H          1 MOL1         0.0960
       7    C2      17.849282   17.808884   21.985168 C.3        1 MOL1        -0.2382
       8    H5      16.883949   17.816890   22.506038 H          1 MOL1         0.1009
       9    H6      18.167468   16.765066   21.871355 H          1 MOL1         0.1009
      10    H7      17.690187   18.228536   20.984067 H          1 MOL1         0.1009
      11    C3      20.233463   18.658957   21.991708 C.3        1 MOL1        -0.1392
      12    H8      20.612619   17.634527   21.879373 H          1 MOL1         0.0998
      13    H9      20.052988   19.032129   20.974801 H          1 MOL1         0.0998
      14    C4      21.326905   19.534155   22.655268 C.3        1 MOL1        -0.1302
      15    H10     22.236528   19.488307   22.040137 H          1 MOL1         0.0998
      16    H11     21.603662   19.119364   23.634002 H          1 MOL1         0.0998
      17    C5      20.905026   21.012548   22.815701 C.3        1 MOL1        -0.2317
      18    H12     20.623471   21.449570   21.848790 H          1 MOL1         0.1009
      19    H13     21.733477   21.606801   23.222641 H          1 MOL1         0.1009
      20    H14     20.054466   21.119010   23.500618 H          1 MOL1         0.1009
@<TRIPOS>BOND
    1     1     2    1
    2     1     3    1
    3     1     4    1
    4     1     5    1
    5     5     6    1
    6     5     7    1
    7     7     8    1
    8     7     9    1
    9     7    10    1
   10     5    11    1
   11    11    12    1
   12    11    13    1
   13    11    14    1
   14    14    15    1
   15    14    16    1
   16    14    17    1
   17    17    18    1
   18    17    19    1
   19    17    20    1
@<TRIPOS>SUBSTRUCTURE
       1 MOL1            1 RESIDUE      1      MOL     
@<SCITEGIC>MOL_PROPERTY
VConf Rank
SciTegic.value.IntegerValue
96

@<SCITEGIC>MOL_PROPERTY
Conf_Id
SciTegic.value.IntegerValue
50

@<SCITEGIC>MOL_PROPERTY
Delta U+W
SciTegic.value.DoubleValue
0.466

@<SCITEGIC>MOL_PROPERTY
U+W
SciTegic.value.DoubleValue
-35.811

@<SCITEGIC>MOL_PROPERTY
Grad RMS
SciTegic.value.DoubleValue
0.000000

@<SCITEGIC>MOL_PROPERTY
U
SciTegic.value.DoubleValue
22.369

@<SCITEGIC>MOL_PROPERTY
W
SciTegic.value.DoubleValue
-58.180

@<SCITEGIC>MOL_PROPERTY
W(PB)
SciTegic.value.DoubleValue
-60.103

@<SCITEGIC>MOL_PROPERTY
W(SA)
SciTegic.value.DoubleValue
1.923

@<SCITEGIC>MOL_PROPERTY
Valence
SciTegic.value.DoubleValue
2.168

@<SCITEGIC>MOL_PROPERTY
Coulomb
SciTegic.value.DoubleValue
19.636

@<SCITEGIC>MOL_PROPERTY
VdW
SciTegic.value.DoubleValue
0.566

@<SCITEGIC>MOL_PROPERTY
VdW6
SciTegic.value.DoubleValue
-5.263

@<SCITEGIC>MOL_PROPERTY
VdW12
SciTegic.value.DoubleValue
5.829

@<SCITEGIC>MOL_PROPERTY
Bond
SciTegic.value.DoubleValue
0.162

@<SCITEGIC>MOL_PROPERTY
Angle
SciTegic.value.DoubleValue
1.066

@<SCITEGIC>MOL_PROPERTY
Pdih
SciTegic.value.DoubleValue
0.939

@<SCITEGIC>MOL_PROPERTY
Idih
SciTegic.value.DoubleValue
0.000

@<SCITEGIC>MOL_PROPERTY
Tether
SciTegic.value.DoubleValue
0.000

@<TRIPOS>MOLECULE
guest-s10_confgen4.mol2 : confsearch ligand conformer 97
          20          19           1
SMALL
USER_CHARGES
 
@<TRIPOS>ATOM
       1    N1      21.876788   19.281406   23.411053 N.4        1 MOL1        -0.5937
       2    H1      22.304631   18.352167   23.449291 H          1 MOL1         0.3684
       3    H2      21.839212   19.641913   24.367867 H          1 MOL1         0.3684
       4    H3      22.512671   19.885342   22.883180 H          1 MOL1         0.3684
       5    C1      20.510123   19.237754   22.782639 C.3        1 MOL1         0.1270
       6    H4      20.651583   18.839589   21.773077 H          1 MOL1         0.0960
       7    C2      19.933839   20.661963   22.675451 C.3        1 MOL1        -0.2382
       8    H5      19.820035   21.117902   23.666831 H          1 MOL1         0.1009
       9    H6      18.951982   20.663852   22.189917 H          1 MOL1         0.1009
      10    H7      20.596899   21.303247   22.081958 H          1 MOL1         0.1009
      11    C3      19.553181   18.288543   23.545195 C.3        1 MOL1        -0.1392
      12    H8      20.144150   17.622927   24.188145 H          1 MOL1         0.0998
      13    H9      18.907759   18.859937   24.225601 H          1 MOL1         0.0998
      14    C4      18.691367   17.391257   22.621108 C.3        1 MOL1        -0.1302
      15    H10     18.106524   16.702609   23.246931 H          1 MOL1         0.0998
      16    H11     19.347864   16.760608   22.005174 H          1 MOL1         0.0998
      17    C5      17.724051   18.172452   21.704446 C.3        1 MOL1        -0.2317
      18    H12     17.081851   18.845242   22.287507 H          1 MOL1         0.1009
      19    H13     17.072334   17.479930   21.156068 H          1 MOL1         0.1009
      20    H14     18.268834   18.767406   20.960892 H          1 MOL1         0.1009
@<TRIPOS>BOND
    1     1     2    1
    2     1     3    1
    3     1     4    1
    4     1     5    1
    5     5     6    1
    6     5     7    1
    7     7     8    1
    8     7     9    1
    9     7    10    1
   10     5    11    1
   11    11    12    1
   12    11    13    1
   13    11    14    1
   14    14    15    1
   15    14    16    1
   16    14    17    1
   17    17    18    1
   18    17    19    1
   19    17    20    1
@<TRIPOS>SUBSTRUCTURE
       1 MOL1            1 RESIDUE      1      MOL     
@<SCITEGIC>MOL_PROPERTY
VConf Rank
SciTegic.value.IntegerValue
97

@<SCITEGIC>MOL_PROPERTY
Conf_Id
SciTegic.value.IntegerValue
3

@<SCITEGIC>MOL_PROPERTY
Delta U+W
SciTegic.value.DoubleValue
3.093

@<SCITEGIC>MOL_PROPERTY
U+W
SciTegic.value.DoubleValue
-33.184

@<SCITEGIC>MOL_PROPERTY
Grad RMS
SciTegic.value.DoubleValue
0.000000

@<SCITEGIC>MOL_PROPERTY
U
SciTegic.value.DoubleValue
25.256

@<SCITEGIC>MOL_PROPERTY
W
SciTegic.value.DoubleValue
-58.439

@<SCITEGIC>MOL_PROPERTY
W(PB)
SciTegic.value.DoubleValue
-60.337

@<SCITEGIC>MOL_PROPERTY
W(SA)
SciTegic.value.DoubleValue
1.898

@<SCITEGIC>MOL_PROPERTY
Valence
SciTegic.value.DoubleValue
4.963

@<SCITEGIC>MOL_PROPERTY
Coulomb
SciTegic.value.DoubleValue
19.511

@<SCITEGIC>MOL_PROPERTY
VdW
SciTegic.value.DoubleValue
0.782

@<SCITEGIC>MOL_PROPERTY
VdW6
SciTegic.value.DoubleValue
-5.429

@<SCITEGIC>MOL_PROPERTY
VdW12
SciTegic.value.DoubleValue
6.211

@<SCITEGIC>MOL_PROPERTY
Bond
SciTegic.value.DoubleValue
0.174

@<SCITEGIC>MOL_PROPERTY
Angle
SciTegic.value.DoubleValue
1.377

@<SCITEGIC>MOL_PROPERTY
Pdih
SciTegic.value.DoubleValue
3.412

@<SCITEGIC>MOL_PROPERTY
Idih
SciTegic.value.DoubleValue
0.000

@<SCITEGIC>MOL_PROPERTY
Tether
SciTegic.value.DoubleValue
0.000

@<TRIPOS>MOLECULE
guest-s10_confgen4.mol2 : confsearch ligand conformer 98
          20          19           1
SMALL
USER_CHARGES
 
@<TRIPOS>ATOM
       1    N1      19.809492   18.367439   24.967731 N.4        1 MOL1        -0.5937
       2    H1      18.985806   18.196806   25.550880 H          1 MOL1         0.3684
       3    H2      20.318202   19.151578   25.385066 H          1 MOL1         0.3684
       4    H3      20.408550   17.541139   25.038739 H          1 MOL1         0.3684
       5    C1      19.425525   18.650684   23.541294 C.3        1 MOL1         0.1270
       6    H4      18.788669   19.540007   23.566085 H          1 MOL1         0.0960
       7    C2      18.605948   17.481733   22.965145 C.3        1 MOL1        -0.2382
       8    H5      18.200129   17.729323   21.977448 H          1 MOL1         0.1009
       9    H6      17.754713   17.248276   23.616321 H          1 MOL1         0.1009
      10    H7      19.218604   16.576874   22.868333 H          1 MOL1         0.1009
      11    C3      20.670371   18.968264   22.678780 C.3        1 MOL1        -0.1392
      12    H8      21.254705   19.751056   23.180094 H          1 MOL1         0.0998
      13    H9      21.319280   18.083415   22.637626 H          1 MOL1         0.0998
      14    C4      20.363724   19.438799   21.233903 C.3        1 MOL1        -0.1302
      15    H10     19.895971   18.627834   20.659607 H          1 MOL1         0.0998
      16    H11     21.313580   19.656747   20.725856 H          1 MOL1         0.0998
      17    C5      19.468833   20.698092   21.183885 C.3        1 MOL1        -0.2317
      18    H12     19.915352   21.522868   21.754432 H          1 MOL1         0.1009
      19    H13     18.469814   20.499368   21.591969 H          1 MOL1         0.1009
      20    H14     19.341038   21.038163   20.148009 H          1 MOL1         0.1009
@<TRIPOS>BOND
    1     1     2    1
    2     1     3    1
    3     1     4    1
    4     1     5    1
    5     5     6    1
    6     5     7    1
    7     7     8    1
    8     7     9    1
    9     7    10    1
   10     5    11    1
   11    11    12    1
   12    11    13    1
   13    11    14    1
   14    14    15    1
   15    14    16    1
   16    14    17    1
   17    17    18    1
   18    17    19    1
   19    17    20    1
@<TRIPOS>SUBSTRUCTURE
       1 MOL1            1 RESIDUE      1      MOL     
@<SCITEGIC>MOL_PROPERTY
VConf Rank
SciTegic.value.IntegerValue
98

@<SCITEGIC>MOL_PROPERTY
Conf_Id
SciTegic.value.IntegerValue
64

@<SCITEGIC>MOL_PROPERTY
Delta U+W
SciTegic.value.DoubleValue
0.544

@<SCITEGIC>MOL_PROPERTY
U+W
SciTegic.value.DoubleValue
-35.732

@<SCITEGIC>MOL_PROPERTY
Grad RMS
SciTegic.value.DoubleValue
0.000000

@<SCITEGIC>MOL_PROPERTY
U
SciTegic.value.DoubleValue
22.800

@<SCITEGIC>MOL_PROPERTY
W
SciTegic.value.DoubleValue
-58.532

@<SCITEGIC>MOL_PROPERTY
W(PB)
SciTegic.value.DoubleValue
-60.437

@<SCITEGIC>MOL_PROPERTY
W(SA)
SciTegic.value.DoubleValue
1.905

@<SCITEGIC>MOL_PROPERTY
Valence
SciTegic.value.DoubleValue
2.662

@<SCITEGIC>MOL_PROPERTY
Coulomb
SciTegic.value.DoubleValue
19.485

@<SCITEGIC>MOL_PROPERTY
VdW
SciTegic.value.DoubleValue
0.653

@<SCITEGIC>MOL_PROPERTY
VdW6
SciTegic.value.DoubleValue
-5.460

@<SCITEGIC>MOL_PROPERTY
VdW12
SciTegic.value.DoubleValue
6.113

@<SCITEGIC>MOL_PROPERTY
Bond
SciTegic.value.DoubleValue
0.174

@<SCITEGIC>MOL_PROPERTY
Angle
SciTegic.value.DoubleValue
1.378

@<SCITEGIC>MOL_PROPERTY
Pdih
SciTegic.value.DoubleValue
1.109

@<SCITEGIC>MOL_PROPERTY
Idih
SciTegic.value.DoubleValue
0.000

@<SCITEGIC>MOL_PROPERTY
Tether
SciTegic.value.DoubleValue
0.000

@<TRIPOS>MOLECULE
guest-s10_confgen4.mol2 : confsearch ligand conformer 99
          20          19           1
SMALL
USER_CHARGES
 
@<TRIPOS>ATOM
       1    N1      21.489585   17.802225   22.146152 N.4        1 MOL1        -0.5937
       2    H1      21.861744   18.400414   22.887057 H          1 MOL1         0.3684
       3    H2      22.143739   17.846382   21.360184 H          1 MOL1         0.3684
       4    H3      21.498502   16.839877   22.494673 H          1 MOL1         0.3684
       5    C1      20.106283   18.229647   21.735521 C.3        1 MOL1         0.1270
       6    H4      19.804743   17.542020   20.939150 H          1 MOL1         0.0960
       7    C2      20.125208   19.645579   21.136771 C.3        1 MOL1        -0.2382
       8    H5      20.547440   20.373148   21.839673 H          1 MOL1         0.1009
       9    H6      19.112770   19.968724   20.864950 H          1 MOL1         0.1009
      10    H7      20.736959   19.668149   20.226704 H          1 MOL1         0.1009
      11    C3      19.075984   18.072126   22.882086 C.3        1 MOL1        -0.1392
      12    H8      18.063766   18.227119   22.485993 H          1 MOL1         0.0998
      13    H9      19.101562   17.022734   23.203959 H          1 MOL1         0.0998
      14    C4      19.295990   18.969852   24.131450 C.3        1 MOL1        -0.1302
      15    H10     20.364018   19.172418   24.285281 H          1 MOL1         0.0998
      16    H11     18.966350   18.413074   25.019886 H          1 MOL1         0.0998
      17    C5      18.503475   20.297479   24.085926 C.3        1 MOL1        -0.2317
      18    H12     18.808694   20.932940   23.247470 H          1 MOL1         0.1009
      19    H13     18.661793   20.870070   25.008986 H          1 MOL1         0.1009
      20    H14     17.426011   20.108969   23.993307 H          1 MOL1         0.1009
@<TRIPOS>BOND
    1     1     2    1
    2     1     3    1
    3     1     4    1
    4     1     5    1
    5     5     6    1
    6     5     7    1
    7     7     8    1
    8     7     9    1
    9     7    10    1
   10     5    11    1
   11    11    12    1
   12    11    13    1
   13    11    14    1
   14    14    15    1
   15    14    16    1
   16    14    17    1
   17    17    18    1
   18    17    19    1
   19    17    20    1
@<TRIPOS>SUBSTRUCTURE
       1 MOL1            1 RESIDUE      1      MOL     
@<SCITEGIC>MOL_PROPERTY
VConf Rank
SciTegic.value.IntegerValue
99

@<SCITEGIC>MOL_PROPERTY
Conf_Id
SciTegic.value.IntegerValue
35

@<SCITEGIC>MOL_PROPERTY
Delta U+W
SciTegic.value.DoubleValue
3.004

@<SCITEGIC>MOL_PROPERTY
U+W
SciTegic.value.DoubleValue
-33.272

@<SCITEGIC>MOL_PROPERTY
Grad RMS
SciTegic.value.DoubleValue
0.000000

@<SCITEGIC>MOL_PROPERTY
U
SciTegic.value.DoubleValue
25.367

@<SCITEGIC>MOL_PROPERTY
W
SciTegic.value.DoubleValue
-58.639

@<SCITEGIC>MOL_PROPERTY
W(PB)
SciTegic.value.DoubleValue
-60.512

@<SCITEGIC>MOL_PROPERTY
W(SA)
SciTegic.value.DoubleValue
1.873

@<SCITEGIC>MOL_PROPERTY
Valence
SciTegic.value.DoubleValue
4.943

@<SCITEGIC>MOL_PROPERTY
Coulomb
SciTegic.value.DoubleValue
19.661

@<SCITEGIC>MOL_PROPERTY
VdW
SciTegic.value.DoubleValue
0.764

@<SCITEGIC>MOL_PROPERTY
VdW6
SciTegic.value.DoubleValue
-5.871

@<SCITEGIC>MOL_PROPERTY
VdW12
SciTegic.value.DoubleValue
6.636

@<SCITEGIC>MOL_PROPERTY
Bond
SciTegic.value.DoubleValue
0.230

@<SCITEGIC>MOL_PROPERTY
Angle
SciTegic.value.DoubleValue
1.857

@<SCITEGIC>MOL_PROPERTY
Pdih
SciTegic.value.DoubleValue
2.855

@<SCITEGIC>MOL_PROPERTY
Idih
SciTegic.value.DoubleValue
0.000

@<SCITEGIC>MOL_PROPERTY
Tether
SciTegic.value.DoubleValue
0.000

@<TRIPOS>MOLECULE
guest-s10_confgen4.mol2 : confsearch ligand conformer 100
          20          19           1
SMALL
USER_CHARGES
 
@<TRIPOS>ATOM
       1    N1      20.830513   18.927422   24.154978 N.4        1 MOL1        -0.5937
       2    H1      21.327775   19.586209   24.760232 H          1 MOL1         0.3684
       3    H2      21.222516   17.998157   24.329278 H          1 MOL1         0.3684
       4    H3      19.853675   18.908378   24.454013 H          1 MOL1         0.3684
       5    C1      20.948814   19.312080   22.705665 C.3        1 MOL1         0.1270
       6    H4      22.019980   19.276956   22.483641 H          1 MOL1         0.0960
       7    C2      20.479069   20.758304   22.468420 C.3        1 MOL1        -0.2382
       8    H5      19.431019   20.896560   22.759577 H          1 MOL1         0.1009
       9    H6      20.581819   21.032042   21.411099 H          1 MOL1         0.1009
      10    H7      21.085223   21.460156   23.054039 H          1 MOL1         0.1009
      11    C3      20.260036   18.302984   21.751399 C.3        1 MOL1        -0.1392
      12    H8      20.653856   18.478610   20.741645 H          1 MOL1         0.0998
      13    H9      20.581518   17.287204   22.016080 H          1 MOL1         0.0998
      14    C4      18.708207   18.344297   21.669446 C.3        1 MOL1        -0.1302
      15    H10     18.388266   17.604713   20.922133 H          1 MOL1         0.0998
      16    H11     18.372835   19.316528   21.283537 H          1 MOL1         0.0998
      17    C5      17.983276   18.034674   22.998931 C.3        1 MOL1        -0.2317
      18    H12     18.360882   17.108948   23.452347 H          1 MOL1         0.1009
      19    H13     16.907512   17.903985   22.823370 H          1 MOL1         0.1009
      20    H14     18.093819   18.853335   23.719239 H          1 MOL1         0.1009
@<TRIPOS>BOND
    1     1     2    1
    2     1     3    1
    3     1     4    1
    4     1     5    1
    5     5     6    1
    6     5     7    1
    7     7     8    1
    8     7     9    1
    9     7    10    1
   10     5    11    1
   11    11    12    1
   12    11    13    1
   13    11    14    1
   14    14    15    1
   15    14    16    1
   16    14    17    1
   17    17    18    1
   18    17    19    1
   19    17    20    1
@<TRIPOS>SUBSTRUCTURE
       1 MOL1            1 RESIDUE      1      MOL     
@<SCITEGIC>MOL_PROPERTY
VConf Rank
SciTegic.value.IntegerValue
100

@<SCITEGIC>MOL_PROPERTY
Conf_Id
SciTegic.value.IntegerValue
55

@<SCITEGIC>MOL_PROPERTY
Delta U+W
SciTegic.value.DoubleValue
2.767

@<SCITEGIC>MOL_PROPERTY
U+W
SciTegic.value.DoubleValue
-33.509

@<SCITEGIC>MOL_PROPERTY
Grad RMS
SciTegic.value.DoubleValue
0.000000

@<SCITEGIC>MOL_PROPERTY
U
SciTegic.value.DoubleValue
24.552

@<SCITEGIC>MOL_PROPERTY
W
SciTegic.value.DoubleValue
-58.061

@<SCITEGIC>MOL_PROPERTY
W(PB)
SciTegic.value.DoubleValue
-59.930

@<SCITEGIC>MOL_PROPERTY
W(SA)
SciTegic.value.DoubleValue
1.869

@<SCITEGIC>MOL_PROPERTY
Valence
SciTegic.value.DoubleValue
3.726

@<SCITEGIC>MOL_PROPERTY
Coulomb
SciTegic.value.DoubleValue
20.219

@<SCITEGIC>MOL_PROPERTY
VdW
SciTegic.value.DoubleValue
0.606

@<SCITEGIC>MOL_PROPERTY
VdW6
SciTegic.value.DoubleValue
-6.395

@<SCITEGIC>MOL_PROPERTY
VdW12
SciTegic.value.DoubleValue
7.001

@<SCITEGIC>MOL_PROPERTY
Bond
SciTegic.value.DoubleValue
0.241

@<SCITEGIC>MOL_PROPERTY
Angle
SciTegic.value.DoubleValue
2.098

@<SCITEGIC>MOL_PROPERTY
Pdih
SciTegic.value.DoubleValue
1.387

@<SCITEGIC>MOL_PROPERTY
Idih
SciTegic.value.DoubleValue
0.000

@<SCITEGIC>MOL_PROPERTY
Tether
SciTegic.value.DoubleValue
0.000

@<TRIPOS>MOLECULE
guest-s10_confgen4.mol2 : confsearch ligand conformer 101
          20          19           1
SMALL
USER_CHARGES
 
@<TRIPOS>ATOM
       1    N1      18.432538   18.197461   23.978434 N.4        1 MOL1        -0.5937
       2    H1      18.852581   18.554899   24.840029 H          1 MOL1         0.3684
       3    H2      17.882671   17.370753   24.227146 H          1 MOL1         0.3684
       4    H3      17.778076   18.906320   23.638170 H          1 MOL1         0.3684
       5    C1      19.480038   17.872602   22.947769 C.3        1 MOL1         0.1270
       6    H4      18.949049   17.504044   22.064535 H          1 MOL1         0.0960
       7    C2      20.406652   16.754660   23.453301 C.3        1 MOL1        -0.2382
       8    H5      19.828899   15.859483   23.714303 H          1 MOL1         0.1009
       9    H6      20.964548   17.072735   24.342893 H          1 MOL1         0.1009
      10    H7      21.130770   16.468731   22.680296 H          1 MOL1         0.1009
      11    C3      20.307572   19.109055   22.532413 C.3        1 MOL1        -0.1392
      12    H8      20.833000   19.513472   23.407792 H          1 MOL1         0.0998
      13    H9      21.082291   18.793896   21.820688 H          1 MOL1         0.0998
      14    C4      19.450731   20.219254   21.877584 C.3        1 MOL1        -0.1302
      15    H10     18.702666   20.591845   22.590325 H          1 MOL1         0.0998
      16    H11     18.897484   19.804511   21.023097 H          1 MOL1         0.0998
      17    C5      20.319762   21.401743   21.398201 C.3        1 MOL1        -0.2317
      18    H12     20.863024   21.857817   22.236126 H          1 MOL1         0.1009
      19    H13     19.696448   22.179533   20.938192 H          1 MOL1         0.1009
      20    H14     21.055207   21.075112   20.651431 H          1 MOL1         0.1009
@<TRIPOS>BOND
    1     1     2    1
    2     1     3    1
    3     1     4    1
    4     1     5    1
    5     5     6    1
    6     5     7    1
    7     7     8    1
    8     7     9    1
    9     7    10    1
   10     5    11    1
   11    11    12    1
   12    11    13    1
   13    11    14    1
   14    14    15    1
   15    14    16    1
   16    14    17    1
   17    17    18    1
   18    17    19    1
   19    17    20    1
@<TRIPOS>SUBSTRUCTURE
       1 MOL1            1 RESIDUE      1      MOL     
@<SCITEGIC>MOL_PROPERTY
VConf Rank
SciTegic.value.IntegerValue
101

@<SCITEGIC>MOL_PROPERTY
Conf_Id
SciTegic.value.IntegerValue
74

@<SCITEGIC>MOL_PROPERTY
Delta U+W
SciTegic.value.DoubleValue
0.000

@<SCITEGIC>MOL_PROPERTY
U+W
SciTegic.value.DoubleValue
-36.276

@<SCITEGIC>MOL_PROPERTY
Grad RMS
SciTegic.value.DoubleValue
0.000000

@<SCITEGIC>MOL_PROPERTY
U
SciTegic.value.DoubleValue
22.080

@<SCITEGIC>MOL_PROPERTY
W
SciTegic.value.DoubleValue
-58.356

@<SCITEGIC>MOL_PROPERTY
W(PB)
SciTegic.value.DoubleValue
-60.289

@<SCITEGIC>MOL_PROPERTY
W(SA)
SciTegic.value.DoubleValue
1.932

@<SCITEGIC>MOL_PROPERTY
Valence
SciTegic.value.DoubleValue
1.885

@<SCITEGIC>MOL_PROPERTY
Coulomb
SciTegic.value.DoubleValue
19.559

@<SCITEGIC>MOL_PROPERTY
VdW
SciTegic.value.DoubleValue
0.637

@<SCITEGIC>MOL_PROPERTY
VdW6
SciTegic.value.DoubleValue
-4.482

@<SCITEGIC>MOL_PROPERTY
VdW12
SciTegic.value.DoubleValue
5.119

@<SCITEGIC>MOL_PROPERTY
Bond
SciTegic.value.DoubleValue
0.136

@<SCITEGIC>MOL_PROPERTY
Angle
SciTegic.value.DoubleValue
0.867

@<SCITEGIC>MOL_PROPERTY
Pdih
SciTegic.value.DoubleValue
0.882

@<SCITEGIC>MOL_PROPERTY
Idih
SciTegic.value.DoubleValue
0.000

@<SCITEGIC>MOL_PROPERTY
Tether
SciTegic.value.DoubleValue
0.000

@<TRIPOS>MOLECULE
guest-s10_confgen4.mol2 : confsearch ligand conformer 102
          20          19           1
SMALL
USER_CHARGES
 
@<TRIPOS>ATOM
       1    N1      21.650348   17.812359   23.621239 N.4        1 MOL1        -0.5937
       2    H1      21.497545   16.851338   23.303520 H          1 MOL1         0.3684
       3    H2      21.388423   17.853616   24.609378 H          1 MOL1         0.3684
       4    H3      22.656382   17.992555   23.565510 H          1 MOL1         0.3684
       5    C1      20.867581   18.800133   22.800235 C.3        1 MOL1         0.1270
       6    H4      21.214385   18.686481   21.768404 H          1 MOL1         0.0960
       7    C2      21.173060   20.237469   23.260177 C.3        1 MOL1        -0.2382
       8    H5      22.255026   20.417551   23.272112 H          1 MOL1         0.1009
       9    H6      20.786769   20.421853   24.270306 H          1 MOL1         0.1009
      10    H7      20.730183   20.976233   22.582451 H          1 MOL1         0.1009
      11    C3      19.354125   18.484805   22.839078 C.3        1 MOL1        -0.1392
      12    H8      19.214931   17.420714   22.606702 H          1 MOL1         0.0998
      13    H9      18.971600   18.632762   23.857720 H          1 MOL1         0.0998
      14    C4      18.515492   19.319504   21.840512 C.3        1 MOL1        -0.1302
      15    H10     18.936738   19.221502   20.830058 H          1 MOL1         0.0998
      16    H11     18.560235   20.384993   22.102486 H          1 MOL1         0.0998
      17    C5      17.037886   18.872182   21.824245 C.3        1 MOL1        -0.2317
      18    H12     16.945956   17.820268   21.523803 H          1 MOL1         0.1009
      19    H13     16.457757   19.476178   21.114508 H          1 MOL1         0.1009
      20    H14     16.580036   18.985742   22.815576 H          1 MOL1         0.1009
@<TRIPOS>BOND
    1     1     2    1
    2     1     3    1
    3     1     4    1
    4     1     5    1
    5     5     6    1
    6     5     7    1
    7     7     8    1
    8     7     9    1
    9     7    10    1
   10     5    11    1
   11    11    12    1
   12    11    13    1
   13    11    14    1
   14    14    15    1
   15    14    16    1
   16    14    17    1
   17    17    18    1
   18    17    19    1
   19    17    20    1
@<TRIPOS>SUBSTRUCTURE
       1 MOL1            1 RESIDUE      1      MOL     
@<SCITEGIC>MOL_PROPERTY
VConf Rank
SciTegic.value.IntegerValue
102

@<SCITEGIC>MOL_PROPERTY
Conf_Id
SciTegic.value.IntegerValue
80

@<SCITEGIC>MOL_PROPERTY
Delta U+W
SciTegic.value.DoubleValue
0.460

@<SCITEGIC>MOL_PROPERTY
U+W
SciTegic.value.DoubleValue
-35.817

@<SCITEGIC>MOL_PROPERTY
Grad RMS
SciTegic.value.DoubleValue
0.000000

@<SCITEGIC>MOL_PROPERTY
U
SciTegic.value.DoubleValue
22.495

@<SCITEGIC>MOL_PROPERTY
W
SciTegic.value.DoubleValue
-58.311

@<SCITEGIC>MOL_PROPERTY
W(PB)
SciTegic.value.DoubleValue
-60.259

@<SCITEGIC>MOL_PROPERTY
W(SA)
SciTegic.value.DoubleValue
1.948

@<SCITEGIC>MOL_PROPERTY
Valence
SciTegic.value.DoubleValue
2.419

@<SCITEGIC>MOL_PROPERTY
Coulomb
SciTegic.value.DoubleValue
19.304

@<SCITEGIC>MOL_PROPERTY
VdW
SciTegic.value.DoubleValue
0.772

@<SCITEGIC>MOL_PROPERTY
VdW6
SciTegic.value.DoubleValue
-4.635

@<SCITEGIC>MOL_PROPERTY
VdW12
SciTegic.value.DoubleValue
5.407

@<SCITEGIC>MOL_PROPERTY
Bond
SciTegic.value.DoubleValue
0.149

@<SCITEGIC>MOL_PROPERTY
Angle
SciTegic.value.DoubleValue
1.142

@<SCITEGIC>MOL_PROPERTY
Pdih
SciTegic.value.DoubleValue
1.129

@<SCITEGIC>MOL_PROPERTY
Idih
SciTegic.value.DoubleValue
0.000

@<SCITEGIC>MOL_PROPERTY
Tether
SciTegic.value.DoubleValue
0.000

@<TRIPOS>MOLECULE
guest-s10_confgen4.mol2 : confsearch ligand conformer 103
          20          19           1
SMALL
USER_CHARGES
 
@<TRIPOS>ATOM
       1    N1      18.459360   20.452192   21.449160 N.4        1 MOL1        -0.5937
       2    H1      17.464822   20.210403   21.464770 H          1 MOL1         0.3684
       3    H2      18.832529   20.156340   20.543674 H          1 MOL1         0.3684
       4    H3      18.522767   21.473117   21.485328 H          1 MOL1         0.3684
       5    C1      19.204806   19.813399   22.588899 C.3        1 MOL1         0.1270
       6    H4      18.743053   20.190845   23.506568 H          1 MOL1         0.0960
       7    C2      20.677493   20.257599   22.577226 C.3        1 MOL1        -0.2382
       8    H5      20.752319   21.349509   22.504584 H          1 MOL1         0.1009
       9    H6      21.218257   19.821591   21.728153 H          1 MOL1         0.1009
      10    H7      21.184014   19.962022   23.503011 H          1 MOL1         0.1009
      11    C3      19.040586   18.273956   22.566884 C.3        1 MOL1        -0.1392
      12    H8      17.964337   18.057999   22.539634 H          1 MOL1         0.0998
      13    H9      19.451120   17.861866   21.635556 H          1 MOL1         0.0998
      14    C4      19.639713   17.533185   23.791608 C.3        1 MOL1        -0.1302
      15    H10     18.980073   16.692726   24.049719 H          1 MOL1         0.0998
      16    H11     19.645636   18.191919   24.671381 H          1 MOL1         0.0998
      17    C5      21.055254   16.964734   23.534430 C.3        1 MOL1        -0.2317
      18    H12     21.044367   16.246838   22.703994 H          1 MOL1         0.1009
      19    H13     21.424907   16.437960   24.423727 H          1 MOL1         0.1009
      20    H14     21.778421   17.750859   23.290341 H          1 MOL1         0.1009
@<TRIPOS>BOND
    1     1     2    1
    2     1     3    1
    3     1     4    1
    4     1     5    1
    5     5     6    1
    6     5     7    1
    7     7     8    1
    8     7     9    1
    9     7    10    1
   10     5    11    1
   11    11    12    1
   12    11    13    1
   13    11    14    1
   14    14    15    1
   15    14    16    1
   16    14    17    1
   17    17    18    1
   18    17    19    1
   19    17    20    1
@<TRIPOS>SUBSTRUCTURE
       1 MOL1            1 RESIDUE      1      MOL     
@<SCITEGIC>MOL_PROPERTY
VConf Rank
SciTegic.value.IntegerValue
103

@<SCITEGIC>MOL_PROPERTY
Conf_Id
SciTegic.value.IntegerValue
52

@<SCITEGIC>MOL_PROPERTY
Delta U+W
SciTegic.value.DoubleValue
2.995

@<SCITEGIC>MOL_PROPERTY
U+W
SciTegic.value.DoubleValue
-33.282

@<SCITEGIC>MOL_PROPERTY
Grad RMS
SciTegic.value.DoubleValue
0.000000

@<SCITEGIC>MOL_PROPERTY
U
SciTegic.value.DoubleValue
25.224

@<SCITEGIC>MOL_PROPERTY
W
SciTegic.value.DoubleValue
-58.506

@<SCITEGIC>MOL_PROPERTY
W(PB)
SciTegic.value.DoubleValue
-60.411

@<SCITEGIC>MOL_PROPERTY
W(SA)
SciTegic.value.DoubleValue
1.905

@<SCITEGIC>MOL_PROPERTY
Valence
SciTegic.value.DoubleValue
4.945

@<SCITEGIC>MOL_PROPERTY
Coulomb
SciTegic.value.DoubleValue
19.467

@<SCITEGIC>MOL_PROPERTY
VdW
SciTegic.value.DoubleValue
0.813

@<SCITEGIC>MOL_PROPERTY
VdW6
SciTegic.value.DoubleValue
-5.458

@<SCITEGIC>MOL_PROPERTY
VdW12
SciTegic.value.DoubleValue
6.270

@<SCITEGIC>MOL_PROPERTY
Bond
SciTegic.value.DoubleValue
0.200

@<SCITEGIC>MOL_PROPERTY
Angle
SciTegic.value.DoubleValue
1.675

@<SCITEGIC>MOL_PROPERTY
Pdih
SciTegic.value.DoubleValue
3.070

@<SCITEGIC>MOL_PROPERTY
Idih
SciTegic.value.DoubleValue
0.000

@<SCITEGIC>MOL_PROPERTY
Tether
SciTegic.value.DoubleValue
0.000

@<TRIPOS>MOLECULE
guest-s10_confgen4.mol2 : confsearch ligand conformer 104
          20          19           1
SMALL
USER_CHARGES
 
@<TRIPOS>ATOM
       1    N1      18.832244   20.336202   22.542402 N.4        1 MOL1        -0.5937
       2    H1      19.486103   21.120206   22.607062 H          1 MOL1         0.3684
       3    H2      17.896210   20.701440   22.737570 H          1 MOL1         0.3684
       4    H3      18.840821   20.009857   21.573686 H          1 MOL1         0.3684
       5    C1      19.204096   19.231954   23.494039 C.3        1 MOL1         0.1270
       6    H4      18.437425   18.456289   23.402973 H          1 MOL1         0.0960
       7    C2      19.184732   19.759868   24.938577 C.3        1 MOL1        -0.2382
       8    H5      19.948916   20.532644   25.089240 H          1 MOL1         0.1009
       9    H6      19.372457   18.949404   25.653806 H          1 MOL1         0.1009
      10    H7      18.206920   20.194127   25.180731 H          1 MOL1         0.1009
      11    C3      20.577832   18.597964   23.169784 C.3        1 MOL1        -0.1392
      12    H8      21.323767   19.386055   23.002251 H          1 MOL1         0.0998
      13    H9      20.923076   18.041160   24.051181 H          1 MOL1         0.0998
      14    C4      20.571076   17.606363   21.976767 C.3        1 MOL1        -0.1302
      15    H10     19.856120   16.795128   22.173669 H          1 MOL1         0.0998
      16    H11     21.560323   17.130554   21.921789 H          1 MOL1         0.0998
      17    C5      20.261465   18.244699   20.603496 C.3        1 MOL1        -0.2317
      18    H12     20.472706   17.530009   19.797342 H          1 MOL1         0.1009
      19    H13     20.879561   19.134937   20.428136 H          1 MOL1         0.1009
      20    H14     19.204542   18.521409   20.515274 H          1 MOL1         0.1009
@<TRIPOS>BOND
    1     1     2    1
    2     1     3    1
    3     1     4    1
    4     1     5    1
    5     5     6    1
    6     5     7    1
    7     7     8    1
    8     7     9    1
    9     7    10    1
   10     5    11    1
   11    11    12    1
   12    11    13    1
   13    11    14    1
   14    14    15    1
   15    14    16    1
   16    14    17    1
   17    17    18    1
   18    17    19    1
   19    17    20    1
@<TRIPOS>SUBSTRUCTURE
       1 MOL1            1 RESIDUE      1      MOL     
@<SCITEGIC>MOL_PROPERTY
VConf Rank
SciTegic.value.IntegerValue
104

@<SCITEGIC>MOL_PROPERTY
Conf_Id
SciTegic.value.IntegerValue
54

@<SCITEGIC>MOL_PROPERTY
Delta U+W
SciTegic.value.DoubleValue
2.752

@<SCITEGIC>MOL_PROPERTY
U+W
SciTegic.value.DoubleValue
-33.525

@<SCITEGIC>MOL_PROPERTY
Grad RMS
SciTegic.value.DoubleValue
0.000000

@<SCITEGIC>MOL_PROPERTY
U
SciTegic.value.DoubleValue
24.337

@<SCITEGIC>MOL_PROPERTY
W
SciTegic.value.DoubleValue
-57.862

@<SCITEGIC>MOL_PROPERTY
W(PB)
SciTegic.value.DoubleValue
-59.764

@<SCITEGIC>MOL_PROPERTY
W(SA)
SciTegic.value.DoubleValue
1.901

@<SCITEGIC>MOL_PROPERTY
Valence
SciTegic.value.DoubleValue
3.593

@<SCITEGIC>MOL_PROPERTY
Coulomb
SciTegic.value.DoubleValue
20.067

@<SCITEGIC>MOL_PROPERTY
VdW
SciTegic.value.DoubleValue
0.677

@<SCITEGIC>MOL_PROPERTY
VdW6
SciTegic.value.DoubleValue
-5.466

@<SCITEGIC>MOL_PROPERTY
VdW12
SciTegic.value.DoubleValue
6.144

@<SCITEGIC>MOL_PROPERTY
Bond
SciTegic.value.DoubleValue
0.191

@<SCITEGIC>MOL_PROPERTY
Angle
SciTegic.value.DoubleValue
1.557

@<SCITEGIC>MOL_PROPERTY
Pdih
SciTegic.value.DoubleValue
1.845

@<SCITEGIC>MOL_PROPERTY
Idih
SciTegic.value.DoubleValue
0.000

@<SCITEGIC>MOL_PROPERTY
Tether
SciTegic.value.DoubleValue
0.000

@<TRIPOS>MOLECULE
guest-s10_confgen4.mol2 : confsearch ligand conformer 105
          20          19           1
SMALL
USER_CHARGES
 
@<TRIPOS>ATOM
       1    N1      18.041234   18.067255   21.964232 N.4        1 MOL1        -0.5937
       2    H1      17.173488   17.593198   22.228694 H          1 MOL1         0.3684
       3    H2      18.322440   17.698999   21.051531 H          1 MOL1         0.3684
       4    H3      17.822434   19.058482   21.841584 H          1 MOL1         0.3684
       5    C1      19.116158   17.864976   22.997435 C.3        1 MOL1         0.1270
       6    H4      19.266813   16.783258   23.069635 H          1 MOL1         0.0960
       7    C2      18.655524   18.362099   24.379291 C.3        1 MOL1        -0.2382
       8    H5      19.442471   18.214528   25.129230 H          1 MOL1         0.1009
       9    H6      17.771322   17.804859   24.712092 H          1 MOL1         0.1009
      10    H7      18.392768   19.426372   24.361289 H          1 MOL1         0.1009
      11    C3      20.468484   18.488344   22.575914 C.3        1 MOL1        -0.1392
      12    H8      21.226312   18.228061   23.326704 H          1 MOL1         0.0998
      13    H9      20.794111   18.011802   21.641954 H          1 MOL1         0.0998
      14    C4      20.447962   20.026579   22.381604 C.3        1 MOL1        -0.1302
      15    H10     20.174195   20.524790   23.321206 H          1 MOL1         0.0998
      16    H11     19.687681   20.305074   21.639597 H          1 MOL1         0.0998
      17    C5      21.821445   20.557156   21.917537 C.3        1 MOL1        -0.2317
      18    H12     21.792126   21.646663   21.786457 H          1 MOL1         0.1009
      19    H13     22.114190   20.110914   20.958168 H          1 MOL1         0.1009
      20    H14     22.602918   20.327894   22.653717 H          1 MOL1         0.1009
@<TRIPOS>BOND
    1     1     2    1
    2     1     3    1
    3     1     4    1
    4     1     5    1
    5     5     6    1
    6     5     7    1
    7     7     8    1
    8     7     9    1
    9     7    10    1
   10     5    11    1
   11    11    12    1
   12    11    13    1
   13    11    14    1
   14    14    15    1
   15    14    16    1
   16    14    17    1
   17    17    18    1
   18    17    19    1
   19    17    20    1
@<TRIPOS>SUBSTRUCTURE
       1 MOL1            1 RESIDUE      1      MOL     
@<SCITEGIC>MOL_PROPERTY
VConf Rank
SciTegic.value.IntegerValue
105

@<SCITEGIC>MOL_PROPERTY
Conf_Id
SciTegic.value.IntegerValue
63

@<SCITEGIC>MOL_PROPERTY
Delta U+W
SciTegic.value.DoubleValue
0.420

@<SCITEGIC>MOL_PROPERTY
U+W
SciTegic.value.DoubleValue
-35.856

@<SCITEGIC>MOL_PROPERTY
Grad RMS
SciTegic.value.DoubleValue
0.000000

@<SCITEGIC>MOL_PROPERTY
U
SciTegic.value.DoubleValue
22.625

@<SCITEGIC>MOL_PROPERTY
W
SciTegic.value.DoubleValue
-58.481

@<SCITEGIC>MOL_PROPERTY
W(PB)
SciTegic.value.DoubleValue
-60.400

@<SCITEGIC>MOL_PROPERTY
W(SA)
SciTegic.value.DoubleValue
1.919

@<SCITEGIC>MOL_PROPERTY
Valence
SciTegic.value.DoubleValue
2.404

@<SCITEGIC>MOL_PROPERTY
Coulomb
SciTegic.value.DoubleValue
19.464

@<SCITEGIC>MOL_PROPERTY
VdW
SciTegic.value.DoubleValue
0.757

@<SCITEGIC>MOL_PROPERTY
VdW6
SciTegic.value.DoubleValue
-5.074

@<SCITEGIC>MOL_PROPERTY
VdW12
SciTegic.value.DoubleValue
5.830

@<SCITEGIC>MOL_PROPERTY
Bond
SciTegic.value.DoubleValue
0.172

@<SCITEGIC>MOL_PROPERTY
Angle
SciTegic.value.DoubleValue
1.207

@<SCITEGIC>MOL_PROPERTY
Pdih
SciTegic.value.DoubleValue
1.025

@<SCITEGIC>MOL_PROPERTY
Idih
SciTegic.value.DoubleValue
0.000

@<SCITEGIC>MOL_PROPERTY
Tether
SciTegic.value.DoubleValue
0.000

@<TRIPOS>MOLECULE
guest-s10_confgen4.mol2 : confsearch ligand conformer 106
          20          19           1
SMALL
USER_CHARGES
 
@<TRIPOS>ATOM
       1    N1      20.090588   20.029951   24.128655 N.4        1 MOL1        -0.5937
       2    H1      20.691283   19.256715   24.425549 H          1 MOL1         0.3684
       3    H2      19.306933   20.080486   24.784209 H          1 MOL1         0.3684
       4    H3      20.630809   20.893279   24.230478 H          1 MOL1         0.3684
       5    C1      19.614396   19.840327   22.713924 C.3        1 MOL1         0.1270
       6    H4      20.507978   19.800004   22.083833 H          1 MOL1         0.0960
       7    C2      18.764246   21.038809   22.261818 C.3        1 MOL1        -0.2382
       8    H5      19.330540   21.973670   22.354459 H          1 MOL1         0.1009
       9    H6      17.852802   21.130167   22.865703 H          1 MOL1         0.1009
      10    H7      18.468321   20.932318   21.210766 H          1 MOL1         0.1009
      11    C3      18.829206   18.522290   22.526207 C.3        1 MOL1        -0.1392
      12    H8      17.918543   18.550308   23.139184 H          1 MOL1         0.0998
      13    H9      18.494195   18.451592   21.482801 H          1 MOL1         0.0998
      14    C4      19.636681   17.246602   22.876210 C.3        1 MOL1        -0.1302
      15    H10     18.995512   16.368495   22.715795 H          1 MOL1         0.0998
      16    H11     19.894158   17.240804   23.944029 H          1 MOL1         0.0998
      17    C5      20.920326   17.090637   22.029275 C.3        1 MOL1        -0.2317
      18    H12     20.687807   17.093551   20.956379 H          1 MOL1         0.1009
      19    H13     21.420449   16.141149   22.260399 H          1 MOL1         0.1009
      20    H14     21.636585   17.897980   22.226925 H          1 MOL1         0.1009
@<TRIPOS>BOND
    1     1     2    1
    2     1     3    1
    3     1     4    1
    4     1     5    1
    5     5     6    1
    6     5     7    1
    7     7     8    1
    8     7     9    1
    9     7    10    1
   10     5    11    1
   11    11    12    1
   12    11    13    1
   13    11    14    1
   14    14    15    1
   15    14    16    1
   16    14    17    1
   17    17    18    1
   18    17    19    1
   19    17    20    1
@<TRIPOS>SUBSTRUCTURE
       1 MOL1            1 RESIDUE      1      MOL     
@<SCITEGIC>MOL_PROPERTY
VConf Rank
SciTegic.value.IntegerValue
106

@<SCITEGIC>MOL_PROPERTY
Conf_Id
SciTegic.value.IntegerValue
50

@<SCITEGIC>MOL_PROPERTY
Delta U+W
SciTegic.value.DoubleValue
0.466

@<SCITEGIC>MOL_PROPERTY
U+W
SciTegic.value.DoubleValue
-35.811

@<SCITEGIC>MOL_PROPERTY
Grad RMS
SciTegic.value.DoubleValue
0.000000

@<SCITEGIC>MOL_PROPERTY
U
SciTegic.value.DoubleValue
22.369

@<SCITEGIC>MOL_PROPERTY
W
SciTegic.value.DoubleValue
-58.180

@<SCITEGIC>MOL_PROPERTY
W(PB)
SciTegic.value.DoubleValue
-60.103

@<SCITEGIC>MOL_PROPERTY
W(SA)
SciTegic.value.DoubleValue
1.923

@<SCITEGIC>MOL_PROPERTY
Valence
SciTegic.value.DoubleValue
2.168

@<SCITEGIC>MOL_PROPERTY
Coulomb
SciTegic.value.DoubleValue
19.636

@<SCITEGIC>MOL_PROPERTY
VdW
SciTegic.value.DoubleValue
0.566

@<SCITEGIC>MOL_PROPERTY
VdW6
SciTegic.value.DoubleValue
-5.263

@<SCITEGIC>MOL_PROPERTY
VdW12
SciTegic.value.DoubleValue
5.829

@<SCITEGIC>MOL_PROPERTY
Bond
SciTegic.value.DoubleValue
0.162

@<SCITEGIC>MOL_PROPERTY
Angle
SciTegic.value.DoubleValue
1.066

@<SCITEGIC>MOL_PROPERTY
Pdih
SciTegic.value.DoubleValue
0.939

@<SCITEGIC>MOL_PROPERTY
Idih
SciTegic.value.DoubleValue
0.000

@<SCITEGIC>MOL_PROPERTY
Tether
SciTegic.value.DoubleValue
0.000

@<TRIPOS>MOLECULE
guest-s10_confgen4.mol2 : confsearch ligand conformer 107
          20          19           1
SMALL
USER_CHARGES
 
@<TRIPOS>ATOM
       1    N1      18.064955   19.178251   24.372495 N.4        1 MOL1        -0.5937
       2    H1      18.000553   20.191996   24.499659 H          1 MOL1         0.3684
       3    H2      18.436561   18.782827   25.239916 H          1 MOL1         0.3684
       4    H3      17.110122   18.826283   24.262281 H          1 MOL1         0.3684
       5    C1      18.923639   18.820712   23.189528 C.3        1 MOL1         0.1270
       6    H4      18.451931   19.286569   22.318764 H          1 MOL1         0.0960
       7    C2      18.933432   17.293874   22.987948 C.3        1 MOL1        -0.2382
       8    H5      19.356539   16.782598   23.861585 H          1 MOL1         0.1009
       9    H6      19.524619   17.006927   22.111621 H          1 MOL1         0.1009
      10    H7      17.914279   16.917783   22.836254 H          1 MOL1         0.1009
      11    C3      20.357617   19.390065   23.322850 C.3        1 MOL1        -0.1392
      12    H8      20.361736   20.178224   24.087351 H          1 MOL1         0.0998
      13    H9      21.044577   18.616900   23.692059 H          1 MOL1         0.0998
      14    C4      20.909483   20.013027   22.015508 C.3        1 MOL1        -0.1302
      15    H10     21.892517   20.457064   22.226237 H          1 MOL1         0.0998
      16    H11     20.260889   20.843087   21.701809 H          1 MOL1         0.0998
      17    C5      21.057149   19.009672   20.850300 C.3        1 MOL1        -0.2317
      18    H12     21.666035   18.145501   21.146094 H          1 MOL1         0.1009
      19    H13     21.548843   19.487505   19.993004 H          1 MOL1         0.1009
      20    H14     20.080205   18.647180   20.507066 H          1 MOL1         0.1009
@<TRIPOS>BOND
    1     1     2    1
    2     1     3    1
    3     1     4    1
    4     1     5    1
    5     5     6    1
    6     5     7    1
    7     7     8    1
    8     7     9    1
    9     7    10    1
   10     5    11    1
   11    11    12    1
   12    11    13    1
   13    11    14    1
   14    14    15    1
   15    14    16    1
   16    14    17    1
   17    17    18    1
   18    17    19    1
   19    17    20    1
@<TRIPOS>SUBSTRUCTURE
       1 MOL1            1 RESIDUE      1      MOL     
@<SCITEGIC>MOL_PROPERTY
VConf Rank
SciTegic.value.IntegerValue
107

@<SCITEGIC>MOL_PROPERTY
Conf_Id
SciTegic.value.IntegerValue
3

@<SCITEGIC>MOL_PROPERTY
Delta U+W
SciTegic.value.DoubleValue
3.093

@<SCITEGIC>MOL_PROPERTY
U+W
SciTegic.value.DoubleValue
-33.184

@<SCITEGIC>MOL_PROPERTY
Grad RMS
SciTegic.value.DoubleValue
0.000000

@<SCITEGIC>MOL_PROPERTY
U
SciTegic.value.DoubleValue
25.256

@<SCITEGIC>MOL_PROPERTY
W
SciTegic.value.DoubleValue
-58.439

@<SCITEGIC>MOL_PROPERTY
W(PB)
SciTegic.value.DoubleValue
-60.337

@<SCITEGIC>MOL_PROPERTY
W(SA)
SciTegic.value.DoubleValue
1.898

@<SCITEGIC>MOL_PROPERTY
Valence
SciTegic.value.DoubleValue
4.963

@<SCITEGIC>MOL_PROPERTY
Coulomb
SciTegic.value.DoubleValue
19.511

@<SCITEGIC>MOL_PROPERTY
VdW
SciTegic.value.DoubleValue
0.782

@<SCITEGIC>MOL_PROPERTY
VdW6
SciTegic.value.DoubleValue
-5.429

@<SCITEGIC>MOL_PROPERTY
VdW12
SciTegic.value.DoubleValue
6.211

@<SCITEGIC>MOL_PROPERTY
Bond
SciTegic.value.DoubleValue
0.174

@<SCITEGIC>MOL_PROPERTY
Angle
SciTegic.value.DoubleValue
1.377

@<SCITEGIC>MOL_PROPERTY
Pdih
SciTegic.value.DoubleValue
3.412

@<SCITEGIC>MOL_PROPERTY
Idih
SciTegic.value.DoubleValue
0.000

@<SCITEGIC>MOL_PROPERTY
Tether
SciTegic.value.DoubleValue
0.000

@<TRIPOS>MOLECULE
guest-s10_confgen4.mol2 : confsearch ligand conformer 108
          20          19           1
SMALL
USER_CHARGES
 
@<TRIPOS>ATOM
       1    N1      19.615874   18.270176   20.583679 N.4        1 MOL1        -0.5937
       2    H1      19.574142   17.286991   20.302178 H          1 MOL1         0.3684
       3    H2      20.477600   18.660343   20.192492 H          1 MOL1         0.3684
       4    H3      18.831267   18.748580   20.134007 H          1 MOL1         0.3684
       5    C1      19.568684   18.417338   22.079840 C.3        1 MOL1         0.1270
       6    H4      20.435918   17.875296   22.468673 H          1 MOL1         0.0960
       7    C2      18.293923   17.762622   22.642362 C.3        1 MOL1        -0.2382
       8    H5      18.310314   17.737014   23.738086 H          1 MOL1         0.1009
       9    H6      18.206031   16.725925   22.294989 H          1 MOL1         0.1009
      10    H7      17.395195   18.305457   22.324392 H          1 MOL1         0.1009
      11    C3      19.694152   19.901068   22.500830 C.3        1 MOL1        -0.1392
      12    H8      20.574002   20.333353   22.006343 H          1 MOL1         0.0998
      13    H9      18.827697   20.460309   22.123682 H          1 MOL1         0.0998
      14    C4      19.825924   20.140325   24.026771 C.3        1 MOL1        -0.1302
      15    H10     18.903139   19.840208   24.541231 H          1 MOL1         0.0998
      16    H11     19.931598   21.219497   24.205822 H          1 MOL1         0.0998
      17    C5      21.034883   19.408313   24.652653 C.3        1 MOL1        -0.2317
      18    H12     21.970120   19.690790   24.151958 H          1 MOL1         0.1009
      19    H13     20.925119   18.318550   24.586073 H          1 MOL1         0.1009
      20    H14     21.132726   19.666310   25.715141 H          1 MOL1         0.1009
@<TRIPOS>BOND
    1     1     2    1
    2     1     3    1
    3     1     4    1
    4     1     5    1
    5     5     6    1
    6     5     7    1
    7     7     8    1
    8     7     9    1
    9     7    10    1
   10     5    11    1
   11    11    12    1
   12    11    13    1
   13    11    14    1
   14    14    15    1
   15    14    16    1
   16    14    17    1
   17    17    18    1
   18    17    19    1
   19    17    20    1
@<TRIPOS>SUBSTRUCTURE
       1 MOL1            1 RESIDUE      1      MOL     
@<SCITEGIC>MOL_PROPERTY
VConf Rank
SciTegic.value.IntegerValue
108

@<SCITEGIC>MOL_PROPERTY
Conf_Id
SciTegic.value.IntegerValue
64

@<SCITEGIC>MOL_PROPERTY
Delta U+W
SciTegic.value.DoubleValue
0.544

@<SCITEGIC>MOL_PROPERTY
U+W
SciTegic.value.DoubleValue
-35.732

@<SCITEGIC>MOL_PROPERTY
Grad RMS
SciTegic.value.DoubleValue
0.000000

@<SCITEGIC>MOL_PROPERTY
U
SciTegic.value.DoubleValue
22.800

@<SCITEGIC>MOL_PROPERTY
W
SciTegic.value.DoubleValue
-58.532

@<SCITEGIC>MOL_PROPERTY
W(PB)
SciTegic.value.DoubleValue
-60.437

@<SCITEGIC>MOL_PROPERTY
W(SA)
SciTegic.value.DoubleValue
1.905

@<SCITEGIC>MOL_PROPERTY
Valence
SciTegic.value.DoubleValue
2.662

@<SCITEGIC>MOL_PROPERTY
Coulomb
SciTegic.value.DoubleValue
19.485

@<SCITEGIC>MOL_PROPERTY
VdW
SciTegic.value.DoubleValue
0.653

@<SCITEGIC>MOL_PROPERTY
VdW6
SciTegic.value.DoubleValue
-5.460

@<SCITEGIC>MOL_PROPERTY
VdW12
SciTegic.value.DoubleValue
6.113

@<SCITEGIC>MOL_PROPERTY
Bond
SciTegic.value.DoubleValue
0.174

@<SCITEGIC>MOL_PROPERTY
Angle
SciTegic.value.DoubleValue
1.378

@<SCITEGIC>MOL_PROPERTY
Pdih
SciTegic.value.DoubleValue
1.109

@<SCITEGIC>MOL_PROPERTY
Idih
SciTegic.value.DoubleValue
0.000

@<SCITEGIC>MOL_PROPERTY
Tether
SciTegic.value.DoubleValue
0.000

@<TRIPOS>MOLECULE
guest-s10_confgen4.mol2 : confsearch ligand conformer 109
          20          19           1
SMALL
USER_CHARGES
 
@<TRIPOS>ATOM
       1    N1      18.273170   19.695796   21.443687 N.4        1 MOL1        -0.5937
       2    H1      19.096267   20.211530   21.124621 H          1 MOL1         0.3684
       3    H2      17.519234   20.375219   21.576275 H          1 MOL1         0.3684
       4    H3      17.988641   19.071093   20.684444 H          1 MOL1         0.3684
       5    C1      18.556856   18.934347   22.710395 C.3        1 MOL1         0.1270
       6    H4      17.621065   18.430959   22.972804 H          1 MOL1         0.0960
       7    C2      18.900455   19.893891   23.861455 C.3        1 MOL1        -0.2382
       8    H5      19.755447   20.532346   23.610310 H          1 MOL1         0.1009
       9    H6      19.136318   19.337615   24.777023 H          1 MOL1         0.1009
      10    H7      18.048674   20.549159   24.080688 H          1 MOL1         0.1009
      11    C3      19.622820   17.828304   22.507095 C.3        1 MOL1        -0.1392
      12    H8      19.665491   17.194591   23.402687 H          1 MOL1         0.0998
      13    H9      19.263281   17.169854   21.705437 H          1 MOL1         0.0998
      14    C4      21.052210   18.311889   22.135322 C.3        1 MOL1        -0.1302
      15    H10     21.012407   19.244138   21.556783 H          1 MOL1         0.0998
      16    H11     21.507441   17.565761   21.468959 H          1 MOL1         0.0998
      17    C5      21.984205   18.483419   23.357905 C.3        1 MOL1        -0.2317
      18    H12     21.619304   19.248113   24.052215 H          1 MOL1         0.1009
      19    H13     22.989268   18.783673   23.034392 H          1 MOL1         0.1009
      20    H14     22.082063   17.541246   23.912681 H          1 MOL1         0.1009
@<TRIPOS>BOND
    1     1     2    1
    2     1     3    1
    3     1     4    1
    4     1     5    1
    5     5     6    1
    6     5     7    1
    7     7     8    1
    8     7     9    1
    9     7    10    1
   10     5    11    1
   11    11    12    1
   12    11    13    1
   13    11    14    1
   14    14    15    1
   15    14    16    1
   16    14    17    1
   17    17    18    1
   18    17    19    1
   19    17    20    1
@<TRIPOS>SUBSTRUCTURE
       1 MOL1            1 RESIDUE      1      MOL     
@<SCITEGIC>MOL_PROPERTY
VConf Rank
SciTegic.value.IntegerValue
109

@<SCITEGIC>MOL_PROPERTY
Conf_Id
SciTegic.value.IntegerValue
35

@<SCITEGIC>MOL_PROPERTY
Delta U+W
SciTegic.value.DoubleValue
3.004

@<SCITEGIC>MOL_PROPERTY
U+W
SciTegic.value.DoubleValue
-33.272

@<SCITEGIC>MOL_PROPERTY
Grad RMS
SciTegic.value.DoubleValue
0.000000

@<SCITEGIC>MOL_PROPERTY
U
SciTegic.value.DoubleValue
25.367

@<SCITEGIC>MOL_PROPERTY
W
SciTegic.value.DoubleValue
-58.639

@<SCITEGIC>MOL_PROPERTY
W(PB)
SciTegic.value.DoubleValue
-60.512

@<SCITEGIC>MOL_PROPERTY
W(SA)
SciTegic.value.DoubleValue
1.873

@<SCITEGIC>MOL_PROPERTY
Valence
SciTegic.value.DoubleValue
4.943

@<SCITEGIC>MOL_PROPERTY
Coulomb
SciTegic.value.DoubleValue
19.661

@<SCITEGIC>MOL_PROPERTY
VdW
SciTegic.value.DoubleValue
0.764

@<SCITEGIC>MOL_PROPERTY
VdW6
SciTegic.value.DoubleValue
-5.871

@<SCITEGIC>MOL_PROPERTY
VdW12
SciTegic.value.DoubleValue
6.636

@<SCITEGIC>MOL_PROPERTY
Bond
SciTegic.value.DoubleValue
0.230

@<SCITEGIC>MOL_PROPERTY
Angle
SciTegic.value.DoubleValue
1.857

@<SCITEGIC>MOL_PROPERTY
Pdih
SciTegic.value.DoubleValue
2.855

@<SCITEGIC>MOL_PROPERTY
Idih
SciTegic.value.DoubleValue
0.000

@<SCITEGIC>MOL_PROPERTY
Tether
SciTegic.value.DoubleValue
0.000

@<TRIPOS>MOLECULE
guest-s10_confgen4.mol2 : confsearch ligand conformer 110
          20          19           1
SMALL
USER_CHARGES
 
@<TRIPOS>ATOM
       1    N1      21.196620   19.645753   21.813528 N.4        1 MOL1        -0.5937
       2    H1      21.383940   20.385387   21.131285 H          1 MOL1         0.3684
       3    H2      21.996214   19.007022   21.797575 H          1 MOL1         0.3684
       4    H3      21.168503   20.077635   22.739101 H          1 MOL1         0.3684
       5    C1      19.911101   18.926600   21.509027 C.3        1 MOL1         0.1270
       6    H4      20.055106   18.483699   20.518558 H          1 MOL1         0.0960
       7    C2      18.729969   19.907699   21.404711 C.3        1 MOL1        -0.2382
       8    H5      18.581369   20.463260   22.338288 H          1 MOL1         0.1009
       9    H6      17.800747   19.374040   21.169818 H          1 MOL1         0.1009
      10    H7      18.905842   20.637127   20.604729 H          1 MOL1         0.1009
      11    C3      19.623506   17.757219   22.485320 C.3        1 MOL1        -0.1392
      12    H8      18.867837   17.112275   22.017822 H          1 MOL1         0.0998
      13    H9      20.524160   17.135235   22.570030 H          1 MOL1         0.0998
      14    C4      19.118771   18.124670   23.908984 C.3        1 MOL1        -0.1302
      15    H10     18.921988   17.189083   24.450997 H          1 MOL1         0.0998
      16    H11     18.150098   18.639139   23.848764 H          1 MOL1         0.0998
      17    C5      20.105603   18.970800   24.745135 C.3        1 MOL1        -0.2317
      18    H12     21.107960   18.523160   24.751476 H          1 MOL1         0.1009
      19    H13     19.763499   19.034527   25.786324 H          1 MOL1         0.1009
      20    H14     20.177777   19.997214   24.367600 H          1 MOL1         0.1009
@<TRIPOS>BOND
    1     1     2    1
    2     1     3    1
    3     1     4    1
    4     1     5    1
    5     5     6    1
    6     5     7    1
    7     7     8    1
    8     7     9    1
    9     7    10    1
   10     5    11    1
   11    11    12    1
   12    11    13    1
   13    11    14    1
   14    14    15    1
   15    14    16    1
   16    14    17    1
   17    17    18    1
   18    17    19    1
   19    17    20    1
@<TRIPOS>SUBSTRUCTURE
       1 MOL1            1 RESIDUE      1      MOL     
@<SCITEGIC>MOL_PROPERTY
VConf Rank
SciTegic.value.IntegerValue
110

@<SCITEGIC>MOL_PROPERTY
Conf_Id
SciTegic.value.IntegerValue
55

@<SCITEGIC>MOL_PROPERTY
Delta U+W
SciTegic.value.DoubleValue
2.767

@<SCITEGIC>MOL_PROPERTY
U+W
SciTegic.value.DoubleValue
-33.509

@<SCITEGIC>MOL_PROPERTY
Grad RMS
SciTegic.value.DoubleValue
0.000000

@<SCITEGIC>MOL_PROPERTY
U
SciTegic.value.DoubleValue
24.552

@<SCITEGIC>MOL_PROPERTY
W
SciTegic.value.DoubleValue
-58.061

@<SCITEGIC>MOL_PROPERTY
W(PB)
SciTegic.value.DoubleValue
-59.930

@<SCITEGIC>MOL_PROPERTY
W(SA)
SciTegic.value.DoubleValue
1.869

@<SCITEGIC>MOL_PROPERTY
Valence
SciTegic.value.DoubleValue
3.726

@<SCITEGIC>MOL_PROPERTY
Coulomb
SciTegic.value.DoubleValue
20.219

@<SCITEGIC>MOL_PROPERTY
VdW
SciTegic.value.DoubleValue
0.606

@<SCITEGIC>MOL_PROPERTY
VdW6
SciTegic.value.DoubleValue
-6.395

@<SCITEGIC>MOL_PROPERTY
VdW12
SciTegic.value.DoubleValue
7.001

@<SCITEGIC>MOL_PROPERTY
Bond
SciTegic.value.DoubleValue
0.241

@<SCITEGIC>MOL_PROPERTY
Angle
SciTegic.value.DoubleValue
2.098

@<SCITEGIC>MOL_PROPERTY
Pdih
SciTegic.value.DoubleValue
1.387

@<SCITEGIC>MOL_PROPERTY
Idih
SciTegic.value.DoubleValue
0.000

@<SCITEGIC>MOL_PROPERTY
Tether
SciTegic.value.DoubleValue
0.000

@<TRIPOS>MOLECULE
guest-s10_confgen4.mol2 : confsearch ligand conformer 111
          20          19           1
SMALL
USER_CHARGES
 
@<TRIPOS>ATOM
       1    N1      19.413331   17.147754   22.004572 N.4        1 MOL1        -0.5937
       2    H1      20.362105   16.958966   21.671809 H          1 MOL1         0.3684
       3    H2      18.776305   16.560534   21.459570 H          1 MOL1         0.3684
       4    H3      19.359878   16.832942   22.976486 H          1 MOL1         0.3684
       5    C1      19.063886   18.605999   21.876233 C.3        1 MOL1         0.1270
       6    H4      18.043311   18.719697   22.254899 H          1 MOL1         0.0960
       7    C2      19.080316   19.037425   20.400573 C.3        1 MOL1        -0.2382
       8    H5      18.393676   18.420646   19.807805 H          1 MOL1         0.1009
       9    H6      20.084695   18.941319   19.969551 H          1 MOL1         0.1009
      10    H7      18.762426   20.082245   20.296001 H          1 MOL1         0.1009
      11    C3      19.992676   19.514650   22.711608 C.3        1 MOL1        -0.1392
      12    H8      21.029014   19.401256   22.366556 H          1 MOL1         0.0998
      13    H9      19.716652   20.562579   22.533500 H          1 MOL1         0.0998
      14    C4      19.912935   19.229243   24.230721 C.3        1 MOL1        -0.1302
      15    H10     20.238969   18.201834   24.441810 H          1 MOL1         0.0998
      16    H11     18.869721   19.307857   24.568017 H          1 MOL1         0.0998
      17    C5      20.787297   20.209770   25.041499 C.3        1 MOL1        -0.2317
      18    H12     21.842460   20.133216   24.748194 H          1 MOL1         0.1009
      19    H13     20.719991   19.992265   26.115392 H          1 MOL1         0.1009
      20    H14     20.464362   21.247730   24.887929 H          1 MOL1         0.1009
@<TRIPOS>BOND
    1     1     2    1
    2     1     3    1
    3     1     4    1
    4     1     5    1
    5     5     6    1
    6     5     7    1
    7     7     8    1
    8     7     9    1
    9     7    10    1
   10     5    11    1
   11    11    12    1
   12    11    13    1
   13    11    14    1
   14    14    15    1
   15    14    16    1
   16    14    17    1
   17    17    18    1
   18    17    19    1
   19    17    20    1
@<TRIPOS>SUBSTRUCTURE
       1 MOL1            1 RESIDUE      1      MOL     
@<SCITEGIC>MOL_PROPERTY
VConf Rank
SciTegic.value.IntegerValue
111

@<SCITEGIC>MOL_PROPERTY
Conf_Id
SciTegic.value.IntegerValue
74

@<SCITEGIC>MOL_PROPERTY
Delta U+W
SciTegic.value.DoubleValue
0.000

@<SCITEGIC>MOL_PROPERTY
U+W
SciTegic.value.DoubleValue
-36.276

@<SCITEGIC>MOL_PROPERTY
Grad RMS
SciTegic.value.DoubleValue
0.000000

@<SCITEGIC>MOL_PROPERTY
U
SciTegic.value.DoubleValue
22.080

@<SCITEGIC>MOL_PROPERTY
W
SciTegic.value.DoubleValue
-58.356

@<SCITEGIC>MOL_PROPERTY
W(PB)
SciTegic.value.DoubleValue
-60.289

@<SCITEGIC>MOL_PROPERTY
W(SA)
SciTegic.value.DoubleValue
1.932

@<SCITEGIC>MOL_PROPERTY
Valence
SciTegic.value.DoubleValue
1.885

@<SCITEGIC>MOL_PROPERTY
Coulomb
SciTegic.value.DoubleValue
19.559

@<SCITEGIC>MOL_PROPERTY
VdW
SciTegic.value.DoubleValue
0.637

@<SCITEGIC>MOL_PROPERTY
VdW6
SciTegic.value.DoubleValue
-4.482

@<SCITEGIC>MOL_PROPERTY
VdW12
SciTegic.value.DoubleValue
5.119

@<SCITEGIC>MOL_PROPERTY
Bond
SciTegic.value.DoubleValue
0.136

@<SCITEGIC>MOL_PROPERTY
Angle
SciTegic.value.DoubleValue
0.867

@<SCITEGIC>MOL_PROPERTY
Pdih
SciTegic.value.DoubleValue
0.882

@<SCITEGIC>MOL_PROPERTY
Idih
SciTegic.value.DoubleValue
0.000

@<SCITEGIC>MOL_PROPERTY
Tether
SciTegic.value.DoubleValue
0.000

@<TRIPOS>MOLECULE
guest-s10_confgen4.mol2 : confsearch ligand conformer 112
          20          19           1
SMALL
USER_CHARGES
 
@<TRIPOS>ATOM
       1    N1      19.693544   16.965737   24.078664 N.4        1 MOL1        -0.5937
       2    H1      20.688547   16.821519   24.271092 H          1 MOL1         0.3684
       3    H2      19.421697   16.297067   23.353609 H          1 MOL1         0.3684
       4    H3      19.182110   16.716380   24.929508 H          1 MOL1         0.3684
       5    C1      19.408176   18.381860   23.659586 C.3        1 MOL1         0.1270
       6    H4      19.725773   19.019086   24.490815 H          1 MOL1         0.0960
       7    C2      17.896527   18.580714   23.444703 C.3        1 MOL1        -0.2382
       8    H5      17.334079   18.248814   24.326018 H          1 MOL1         0.1009
       9    H6      17.539807   18.009119   22.578903 H          1 MOL1         0.1009
      10    H7      17.651541   19.636854   23.284161 H          1 MOL1         0.1009
      11    C3      20.231013   18.771880   22.409661 C.3        1 MOL1        -0.1392
      12    H8      21.281239   18.505800   22.588241 H          1 MOL1         0.0998
      13    H9      19.901508   18.174849   21.548947 H          1 MOL1         0.0998
      14    C4      20.158737   20.278006   22.058203 C.3        1 MOL1        -0.1302
      15    H10     20.427876   20.877570   22.939202 H          1 MOL1         0.0998
      16    H11     19.132465   20.556762   21.784415 H          1 MOL1         0.0998
      17    C5      21.100954   20.635941   20.888676 C.3        1 MOL1        -0.2317
      18    H12     22.146043   20.412019   21.139447 H          1 MOL1         0.1009
      19    H13     21.034376   21.705503   20.650576 H          1 MOL1         0.1009
      20    H14     20.838446   20.072758   19.983594 H          1 MOL1         0.1009
@<TRIPOS>BOND
    1     1     2    1
    2     1     3    1
    3     1     4    1
    4     1     5    1
    5     5     6    1
    6     5     7    1
    7     7     8    1
    8     7     9    1
    9     7    10    1
   10     5    11    1
   11    11    12    1
   12    11    13    1
   13    11    14    1
   14    14    15    1
   15    14    16    1
   16    14    17    1
   17    17    18    1
   18    17    19    1
   19    17    20    1
@<TRIPOS>SUBSTRUCTURE
       1 MOL1            1 RESIDUE      1      MOL     
@<SCITEGIC>MOL_PROPERTY
VConf Rank
SciTegic.value.IntegerValue
112

@<SCITEGIC>MOL_PROPERTY
Conf_Id
SciTegic.value.IntegerValue
80

@<SCITEGIC>MOL_PROPERTY
Delta U+W
SciTegic.value.DoubleValue
0.460

@<SCITEGIC>MOL_PROPERTY
U+W
SciTegic.value.DoubleValue
-35.817

@<SCITEGIC>MOL_PROPERTY
Grad RMS
SciTegic.value.DoubleValue
0.000000

@<SCITEGIC>MOL_PROPERTY
U
SciTegic.value.DoubleValue
22.495

@<SCITEGIC>MOL_PROPERTY
W
SciTegic.value.DoubleValue
-58.311

@<SCITEGIC>MOL_PROPERTY
W(PB)
SciTegic.value.DoubleValue
-60.259

@<SCITEGIC>MOL_PROPERTY
W(SA)
SciTegic.value.DoubleValue
1.948

@<SCITEGIC>MOL_PROPERTY
Valence
SciTegic.value.DoubleValue
2.419

@<SCITEGIC>MOL_PROPERTY
Coulomb
SciTegic.value.DoubleValue
19.304

@<SCITEGIC>MOL_PROPERTY
VdW
SciTegic.value.DoubleValue
0.772

@<SCITEGIC>MOL_PROPERTY
VdW6
SciTegic.value.DoubleValue
-4.635

@<SCITEGIC>MOL_PROPERTY
VdW12
SciTegic.value.DoubleValue
5.407

@<SCITEGIC>MOL_PROPERTY
Bond
SciTegic.value.DoubleValue
0.149

@<SCITEGIC>MOL_PROPERTY
Angle
SciTegic.value.DoubleValue
1.142

@<SCITEGIC>MOL_PROPERTY
Pdih
SciTegic.value.DoubleValue
1.129

@<SCITEGIC>MOL_PROPERTY
Idih
SciTegic.value.DoubleValue
0.000

@<SCITEGIC>MOL_PROPERTY
Tether
SciTegic.value.DoubleValue
0.000

@<TRIPOS>MOLECULE
guest-s10_confgen4.mol2 : confsearch ligand conformer 113
          20          19           1
SMALL
USER_CHARGES
 
@<TRIPOS>ATOM
       1    N1      20.575172   20.934764   23.672576 N.4        1 MOL1        -0.5937
       2    H1      20.766730   21.627542   22.943757 H          1 MOL1         0.3684
       3    H2      21.473289   20.542630   23.966354 H          1 MOL1         0.3684
       4    H3      20.186676   21.438925   24.474142 H          1 MOL1         0.3684
       5    C1      19.636821   19.863383   23.188437 C.3        1 MOL1         0.1270
       6    H4      18.710664   20.372844   22.904741 H          1 MOL1         0.0960
       7    C2      19.313224   18.883790   24.329463 C.3        1 MOL1        -0.2382
       8    H5      19.000620   19.427063   25.229617 H          1 MOL1         0.1009
       9    H6      20.185482   18.270425   24.587147 H          1 MOL1         0.1009
      10    H7      18.487488   18.218329   24.053184 H          1 MOL1         0.1009
      11    C3      20.200863   19.157315   21.931195 C.3        1 MOL1        -0.1392
      12    H8      20.433783   19.936000   21.192893 H          1 MOL1         0.0998
      13    H9      21.157907   18.672642   22.165478 H          1 MOL1         0.0998
      14    C4      19.236173   18.144083   21.260092 C.3        1 MOL1        -0.1302
      15    H10     19.363335   18.208475   20.170229 H          1 MOL1         0.0998
      16    H11     18.191482   18.422422   21.457863 H          1 MOL1         0.0998
      17    C5      19.492627   16.678252   21.682707 C.3        1 MOL1        -0.2317
      18    H12     20.512045   16.367202   21.419741 H          1 MOL1         0.1009
      19    H13     18.796519   16.002980   21.168484 H          1 MOL1         0.1009
      20    H14     19.362936   16.529994   22.760548 H          1 MOL1         0.1009
@<TRIPOS>BOND
    1     1     2    1
    2     1     3    1
    3     1     4    1
    4     1     5    1
    5     5     6    1
    6     5     7    1
    7     7     8    1
    8     7     9    1
    9     7    10    1
   10     5    11    1
   11    11    12    1
   12    11    13    1
   13    11    14    1
   14    14    15    1
   15    14    16    1
   16    14    17    1
   17    17    18    1
   18    17    19    1
   19    17    20    1
@<TRIPOS>SUBSTRUCTURE
       1 MOL1            1 RESIDUE      1      MOL     
@<SCITEGIC>MOL_PROPERTY
VConf Rank
SciTegic.value.IntegerValue
113

@<SCITEGIC>MOL_PROPERTY
Conf_Id
SciTegic.value.IntegerValue
52

@<SCITEGIC>MOL_PROPERTY
Delta U+W
SciTegic.value.DoubleValue
2.995

@<SCITEGIC>MOL_PROPERTY
U+W
SciTegic.value.DoubleValue
-33.282

@<SCITEGIC>MOL_PROPERTY
Grad RMS
SciTegic.value.DoubleValue
0.000000

@<SCITEGIC>MOL_PROPERTY
U
SciTegic.value.DoubleValue
25.224

@<SCITEGIC>MOL_PROPERTY
W
SciTegic.value.DoubleValue
-58.506

@<SCITEGIC>MOL_PROPERTY
W(PB)
SciTegic.value.DoubleValue
-60.411

@<SCITEGIC>MOL_PROPERTY
W(SA)
SciTegic.value.DoubleValue
1.905

@<SCITEGIC>MOL_PROPERTY
Valence
SciTegic.value.DoubleValue
4.945

@<SCITEGIC>MOL_PROPERTY
Coulomb
SciTegic.value.DoubleValue
19.467

@<SCITEGIC>MOL_PROPERTY
VdW
SciTegic.value.DoubleValue
0.813

@<SCITEGIC>MOL_PROPERTY
VdW6
SciTegic.value.DoubleValue
-5.458

@<SCITEGIC>MOL_PROPERTY
VdW12
SciTegic.value.DoubleValue
6.270

@<SCITEGIC>MOL_PROPERTY
Bond
SciTegic.value.DoubleValue
0.200

@<SCITEGIC>MOL_PROPERTY
Angle
SciTegic.value.DoubleValue
1.675

@<SCITEGIC>MOL_PROPERTY
Pdih
SciTegic.value.DoubleValue
3.070

@<SCITEGIC>MOL_PROPERTY
Idih
SciTegic.value.DoubleValue
0.000

@<SCITEGIC>MOL_PROPERTY
Tether
SciTegic.value.DoubleValue
0.000

@<TRIPOS>MOLECULE
guest-s10_confgen4.mol2 : confsearch ligand conformer 114
          20          19           1
SMALL
USER_CHARGES
 
@<TRIPOS>ATOM
       1    N1      21.230821   19.682824   22.727345 N.4        1 MOL1        -0.5937
       2    H1      21.148976   20.509077   23.324827 H          1 MOL1         0.3684
       3    H2      22.043271   19.823021   22.120783 H          1 MOL1         0.3684
       4    H3      21.432235   18.885252   23.334220 H          1 MOL1         0.3684
       5    C1      19.976511   19.457703   21.927797 C.3        1 MOL1         0.1270
       6    H4      20.156714   18.592399   21.282421 H          1 MOL1         0.0960
       7    C2      19.703485   20.677459   21.031464 C.3        1 MOL1        -0.2382
       8    H5      19.499836   21.573371   21.631236 H          1 MOL1         0.1009
       9    H6      18.839129   20.498486   20.379925 H          1 MOL1         0.1009
      10    H7      20.565668   20.886602   20.386301 H          1 MOL1         0.1009
      11    C3      18.745869   19.154201   22.815290 C.3        1 MOL1        -0.1392
      12    H8      18.690625   19.878022   23.639065 H          1 MOL1         0.0998
      13    H9      17.837153   19.309599   22.218491 H          1 MOL1         0.0998
      14    C4      18.685715   17.706976   23.370743 C.3        1 MOL1        -0.1302
      15    H10     18.693799   16.990049   22.537685 H          1 MOL1         0.0998
      16    H11     17.718004   17.573856   23.874569 H          1 MOL1         0.0998
      17    C5      19.808184   17.348087   24.370977 C.3        1 MOL1        -0.2317
      18    H12     19.583860   16.394044   24.865716 H          1 MOL1         0.1009
      19    H13     19.906069   18.112444   25.152959 H          1 MOL1         0.1009
      20    H14     20.774468   17.226799   23.867963 H          1 MOL1         0.1009
@<TRIPOS>BOND
    1     1     2    1
    2     1     3    1
    3     1     4    1
    4     1     5    1
    5     5     6    1
    6     5     7    1
    7     7     8    1
    8     7     9    1
    9     7    10    1
   10     5    11    1
   11    11    12    1
   12    11    13    1
   13    11    14    1
   14    14    15    1
   15    14    16    1
   16    14    17    1
   17    17    18    1
   18    17    19    1
   19    17    20    1
@<TRIPOS>SUBSTRUCTURE
       1 MOL1            1 RESIDUE      1      MOL     
@<SCITEGIC>MOL_PROPERTY
VConf Rank
SciTegic.value.IntegerValue
114

@<SCITEGIC>MOL_PROPERTY
Conf_Id
SciTegic.value.IntegerValue
54

@<SCITEGIC>MOL_PROPERTY
Delta U+W
SciTegic.value.DoubleValue
2.752

@<SCITEGIC>MOL_PROPERTY
U+W
SciTegic.value.DoubleValue
-33.525

@<SCITEGIC>MOL_PROPERTY
Grad RMS
SciTegic.value.DoubleValue
0.000000

@<SCITEGIC>MOL_PROPERTY
U
SciTegic.value.DoubleValue
24.337

@<SCITEGIC>MOL_PROPERTY
W
SciTegic.value.DoubleValue
-57.862

@<SCITEGIC>MOL_PROPERTY
W(PB)
SciTegic.value.DoubleValue
-59.764

@<SCITEGIC>MOL_PROPERTY
W(SA)
SciTegic.value.DoubleValue
1.901

@<SCITEGIC>MOL_PROPERTY
Valence
SciTegic.value.DoubleValue
3.593

@<SCITEGIC>MOL_PROPERTY
Coulomb
SciTegic.value.DoubleValue
20.067

@<SCITEGIC>MOL_PROPERTY
VdW
SciTegic.value.DoubleValue
0.677

@<SCITEGIC>MOL_PROPERTY
VdW6
SciTegic.value.DoubleValue
-5.466

@<SCITEGIC>MOL_PROPERTY
VdW12
SciTegic.value.DoubleValue
6.144

@<SCITEGIC>MOL_PROPERTY
Bond
SciTegic.value.DoubleValue
0.191

@<SCITEGIC>MOL_PROPERTY
Angle
SciTegic.value.DoubleValue
1.557

@<SCITEGIC>MOL_PROPERTY
Pdih
SciTegic.value.DoubleValue
1.845

@<SCITEGIC>MOL_PROPERTY
Idih
SciTegic.value.DoubleValue
0.000

@<SCITEGIC>MOL_PROPERTY
Tether
SciTegic.value.DoubleValue
0.000

@<TRIPOS>MOLECULE
guest-s10_confgen4.mol2 : confsearch ligand conformer 115
          20          19           1
SMALL
USER_CHARGES
 
@<TRIPOS>ATOM
       1    N1      20.892784   18.376062   24.322290 N.4        1 MOL1        -0.5937
       2    H1      21.089769   18.567377   25.308317 H          1 MOL1         0.3684
       3    H2      21.753351   18.010032   23.906168 H          1 MOL1         0.3684
       4    H3      20.194178   17.630184   24.289676 H          1 MOL1         0.3684
       5    C1      20.413757   19.610043   23.606950 C.3        1 MOL1         0.1270
       6    H4      21.213930   20.349663   23.710434 H          1 MOL1         0.0960
       7    C2      19.157680   20.188419   24.282667 C.3        1 MOL1        -0.2382
       8    H5      18.810626   21.086728   23.757246 H          1 MOL1         0.1009
       9    H6      19.376688   20.473870   25.318832 H          1 MOL1         0.1009
      10    H7      18.336254   19.462531   24.302342 H          1 MOL1         0.1009
      11    C3      20.202688   19.372934   22.092261 C.3        1 MOL1        -0.1392
      12    H8      19.942795   20.328741   21.618316 H          1 MOL1         0.0998
      13    H9      21.161427   19.069466   21.651655 H          1 MOL1         0.0998
      14    C4      19.123806   18.316685   21.739137 C.3        1 MOL1        -0.1302
      15    H10     18.145081   18.628498   22.127573 H          1 MOL1         0.0998
      16    H11     19.363975   17.355844   22.213757 H          1 MOL1         0.0998
      17    C5      19.011929   18.109678   20.213372 C.3        1 MOL1        -0.2317
      18    H12     18.243553   17.361566   19.978867 H          1 MOL1         0.1009
      19    H13     19.962632   17.758843   19.791116 H          1 MOL1         0.1009
      20    H14     18.737173   19.044138   19.706896 H          1 MOL1         0.1009
@<TRIPOS>BOND
    1     1     2    1
    2     1     3    1
    3     1     4    1
    4     1     5    1
    5     5     6    1
    6     5     7    1
    7     7     8    1
    8     7     9    1
    9     7    10    1
   10     5    11    1
   11    11    12    1
   12    11    13    1
   13    11    14    1
   14    14    15    1
   15    14    16    1
   16    14    17    1
   17    17    18    1
   18    17    19    1
   19    17    20    1
@<TRIPOS>SUBSTRUCTURE
       1 MOL1            1 RESIDUE      1      MOL     
@<SCITEGIC>MOL_PROPERTY
VConf Rank
SciTegic.value.IntegerValue
115

@<SCITEGIC>MOL_PROPERTY
Conf_Id
SciTegic.value.IntegerValue
63

@<SCITEGIC>MOL_PROPERTY
Delta U+W
SciTegic.value.DoubleValue
0.420

@<SCITEGIC>MOL_PROPERTY
U+W
SciTegic.value.DoubleValue
-35.856

@<SCITEGIC>MOL_PROPERTY
Grad RMS
SciTegic.value.DoubleValue
0.000000

@<SCITEGIC>MOL_PROPERTY
U
SciTegic.value.DoubleValue
22.625

@<SCITEGIC>MOL_PROPERTY
W
SciTegic.value.DoubleValue
-58.481

@<SCITEGIC>MOL_PROPERTY
W(PB)
SciTegic.value.DoubleValue
-60.400

@<SCITEGIC>MOL_PROPERTY
W(SA)
SciTegic.value.DoubleValue
1.919

@<SCITEGIC>MOL_PROPERTY
Valence
SciTegic.value.DoubleValue
2.404

@<SCITEGIC>MOL_PROPERTY
Coulomb
SciTegic.value.DoubleValue
19.464

@<SCITEGIC>MOL_PROPERTY
VdW
SciTegic.value.DoubleValue
0.757

@<SCITEGIC>MOL_PROPERTY
VdW6
SciTegic.value.DoubleValue
-5.074

@<SCITEGIC>MOL_PROPERTY
VdW12
SciTegic.value.DoubleValue
5.830

@<SCITEGIC>MOL_PROPERTY
Bond
SciTegic.value.DoubleValue
0.172

@<SCITEGIC>MOL_PROPERTY
Angle
SciTegic.value.DoubleValue
1.207

@<SCITEGIC>MOL_PROPERTY
Pdih
SciTegic.value.DoubleValue
1.025

@<SCITEGIC>MOL_PROPERTY
Idih
SciTegic.value.DoubleValue
0.000

@<SCITEGIC>MOL_PROPERTY
Tether
SciTegic.value.DoubleValue
0.000

@<TRIPOS>MOLECULE
guest-s10_confgen4.mol2 : confsearch ligand conformer 116
          20          19           1
SMALL
USER_CHARGES
 
@<TRIPOS>ATOM
       1    N1      20.257330   17.305048   22.862598 N.4        1 MOL1        -0.5937
       2    H1      20.915872   17.583055   22.130539 H          1 MOL1         0.3684
       3    H2      19.576848   16.669154   22.439507 H          1 MOL1         0.3684
       4    H3      20.782845   16.770957   23.559823 H          1 MOL1         0.3684
       5    C1      19.584789   18.502859   23.476692 C.3        1 MOL1         0.1270
       6    H4      20.377418   19.123570   23.905161 H          1 MOL1         0.0960
       7    C2      18.645259   18.073768   24.615410 C.3        1 MOL1        -0.2382
       8    H5      19.193261   17.507647   25.378586 H          1 MOL1         0.1009
       9    H6      17.829740   17.442242   24.241435 H          1 MOL1         0.1009
      10    H7      18.201877   18.949364   25.105681 H          1 MOL1         0.1009
      11    C3      18.816893   19.348187   22.435184 C.3        1 MOL1        -0.1392
      12    H8      18.005206   18.746695   22.004830 H          1 MOL1         0.0998
      13    H9      18.334999   20.192600   22.945746 H          1 MOL1         0.0998
      14    C4      19.701405   19.900232   21.288543 C.3        1 MOL1        -0.1302
      15    H10     19.067902   20.479688   20.602389 H          1 MOL1         0.0998
      16    H11     20.112285   19.073281   20.693652 H          1 MOL1         0.0998
      17    C5      20.851217   20.802853   21.791111 C.3        1 MOL1        -0.2317
      18    H12     20.464354   21.638127   22.389302 H          1 MOL1         0.1009
      19    H13     21.405505   21.226983   20.943794 H          1 MOL1         0.1009
      20    H14     21.566352   20.242823   22.406616 H          1 MOL1         0.1009
@<TRIPOS>BOND
    1     1     2    1
    2     1     3    1
    3     1     4    1
    4     1     5    1
    5     5     6    1
    6     5     7    1
    7     7     8    1
    8     7     9    1
    9     7    10    1
   10     5    11    1
   11    11    12    1
   12    11    13    1
   13    11    14    1
   14    14    15    1
   15    14    16    1
   16    14    17    1
   17    17    18    1
   18    17    19    1
   19    17    20    1
@<TRIPOS>SUBSTRUCTURE
       1 MOL1            1 RESIDUE      1      MOL     
@<SCITEGIC>MOL_PROPERTY
VConf Rank
SciTegic.value.IntegerValue
116

@<SCITEGIC>MOL_PROPERTY
Conf_Id
SciTegic.value.IntegerValue
50

@<SCITEGIC>MOL_PROPERTY
Delta U+W
SciTegic.value.DoubleValue
0.466

@<SCITEGIC>MOL_PROPERTY
U+W
SciTegic.value.DoubleValue
-35.811

@<SCITEGIC>MOL_PROPERTY
Grad RMS
SciTegic.value.DoubleValue
0.000000

@<SCITEGIC>MOL_PROPERTY
U
SciTegic.value.DoubleValue
22.369

@<SCITEGIC>MOL_PROPERTY
W
SciTegic.value.DoubleValue
-58.180

@<SCITEGIC>MOL_PROPERTY
W(PB)
SciTegic.value.DoubleValue
-60.103

@<SCITEGIC>MOL_PROPERTY
W(SA)
SciTegic.value.DoubleValue
1.923

@<SCITEGIC>MOL_PROPERTY
Valence
SciTegic.value.DoubleValue
2.168

@<SCITEGIC>MOL_PROPERTY
Coulomb
SciTegic.value.DoubleValue
19.636

@<SCITEGIC>MOL_PROPERTY
VdW
SciTegic.value.DoubleValue
0.566

@<SCITEGIC>MOL_PROPERTY
VdW6
SciTegic.value.DoubleValue
-5.263

@<SCITEGIC>MOL_PROPERTY
VdW12
SciTegic.value.DoubleValue
5.829

@<SCITEGIC>MOL_PROPERTY
Bond
SciTegic.value.DoubleValue
0.162

@<SCITEGIC>MOL_PROPERTY
Angle
SciTegic.value.DoubleValue
1.066

@<SCITEGIC>MOL_PROPERTY
Pdih
SciTegic.value.DoubleValue
0.939

@<SCITEGIC>MOL_PROPERTY
Idih
SciTegic.value.DoubleValue
0.000

@<SCITEGIC>MOL_PROPERTY
Tether
SciTegic.value.DoubleValue
0.000

@<TRIPOS>MOLECULE
guest-s10_confgen4.mol2 : confsearch ligand conformer 117
          20          19           1
SMALL
USER_CHARGES
 
@<TRIPOS>ATOM
       1    N1      21.927583   19.281049   22.315650 N.4        1 MOL1        -0.5937
       2    H1      22.300554   19.674391   23.184080 H          1 MOL1         0.3684
       3    H2      21.962666   20.016600   21.605294 H          1 MOL1         0.3684
       4    H3      22.569387   18.540870   22.019071 H          1 MOL1         0.3684
       5    C1      20.529209   18.756367   22.499599 C.3        1 MOL1         0.1270
       6    H4      20.592615   17.984760   23.273140 H          1 MOL1         0.0960
       7    C2      20.034182   18.106932   21.193787 C.3        1 MOL1        -0.2382
       8    H5      20.000827   18.838214   20.376609 H          1 MOL1         0.1009
       9    H6      19.029715   17.685530   21.308925 H          1 MOL1         0.1009
      10    H7      20.701810   17.291033   20.890950 H          1 MOL1         0.1009
      11    C3      19.559248   19.857077   22.995427 C.3        1 MOL1        -0.1392
      12    H8      20.142803   20.696364   23.396343 H          1 MOL1         0.0998
      13    H9      18.986309   20.270633   22.154757 H          1 MOL1         0.0998
      14    C4      18.597327   19.387435   24.116109 C.3        1 MOL1        -0.1302
      15    H10     18.006556   20.249830   24.455516 H          1 MOL1         0.0998
      16    H11     19.181199   19.056281   24.986460 H          1 MOL1         0.0998
      17    C5      17.630954   18.260637   23.688692 C.3        1 MOL1        -0.2317
      18    H12     17.062100   18.544537   22.793799 H          1 MOL1         0.1009
      19    H13     16.910716   18.049045   24.489646 H          1 MOL1         0.1009
      20    H14     18.169920   17.328459   23.478477 H          1 MOL1         0.1009
@<TRIPOS>BOND
    1     1     2    1
    2     1     3    1
    3     1     4    1
    4     1     5    1
    5     5     6    1
    6     5     7    1
    7     7     8    1
    8     7     9    1
    9     7    10    1
   10     5    11    1
   11    11    12    1
   12    11    13    1
   13    11    14    1
   14    14    15    1
   15    14    16    1
   16    14    17    1
   17    17    18    1
   18    17    19    1
   19    17    20    1
@<TRIPOS>SUBSTRUCTURE
       1 MOL1            1 RESIDUE      1      MOL     
@<SCITEGIC>MOL_PROPERTY
VConf Rank
SciTegic.value.IntegerValue
117

@<SCITEGIC>MOL_PROPERTY
Conf_Id
SciTegic.value.IntegerValue
3

@<SCITEGIC>MOL_PROPERTY
Delta U+W
SciTegic.value.DoubleValue
3.093

@<SCITEGIC>MOL_PROPERTY
U+W
SciTegic.value.DoubleValue
-33.184

@<SCITEGIC>MOL_PROPERTY
Grad RMS
SciTegic.value.DoubleValue
0.000000

@<SCITEGIC>MOL_PROPERTY
U
SciTegic.value.DoubleValue
25.256

@<SCITEGIC>MOL_PROPERTY
W
SciTegic.value.DoubleValue
-58.439

@<SCITEGIC>MOL_PROPERTY
W(PB)
SciTegic.value.DoubleValue
-60.337

@<SCITEGIC>MOL_PROPERTY
W(SA)
SciTegic.value.DoubleValue
1.898

@<SCITEGIC>MOL_PROPERTY
Valence
SciTegic.value.DoubleValue
4.963

@<SCITEGIC>MOL_PROPERTY
Coulomb
SciTegic.value.DoubleValue
19.511

@<SCITEGIC>MOL_PROPERTY
VdW
SciTegic.value.DoubleValue
0.782

@<SCITEGIC>MOL_PROPERTY
VdW6
SciTegic.value.DoubleValue
-5.429

@<SCITEGIC>MOL_PROPERTY
VdW12
SciTegic.value.DoubleValue
6.211

@<SCITEGIC>MOL_PROPERTY
Bond
SciTegic.value.DoubleValue
0.174

@<SCITEGIC>MOL_PROPERTY
Angle
SciTegic.value.DoubleValue
1.377

@<SCITEGIC>MOL_PROPERTY
Pdih
SciTegic.value.DoubleValue
3.412

@<SCITEGIC>MOL_PROPERTY
Idih
SciTegic.value.DoubleValue
0.000

@<SCITEGIC>MOL_PROPERTY
Tether
SciTegic.value.DoubleValue
0.000

@<TRIPOS>MOLECULE
guest-s10_confgen4.mol2 : confsearch ligand conformer 118
          20          19           1
SMALL
USER_CHARGES
 
@<TRIPOS>ATOM
       1    N1      19.839080   20.718847   24.179799 N.4        1 MOL1        -0.5937
       2    H1      20.319132   20.671979   25.082566 H          1 MOL1         0.3684
       3    H2      18.862605   20.960902   24.368836 H          1 MOL1         0.3684
       4    H3      20.251310   21.495230   23.656367 H          1 MOL1         0.3684
       5    C1      19.954021   19.421910   23.426723 C.3        1 MOL1         0.1270
       6    H4      19.494297   18.657658   24.060498 H          1 MOL1         0.0960
       7    C2      21.434101   19.053760   23.217127 C.3        1 MOL1        -0.2382
       8    H5      21.537685   18.047365   22.795258 H          1 MOL1         0.1009
       9    H6      21.973706   19.062265   24.172055 H          1 MOL1         0.1009
      10    H7      21.927757   19.762668   22.540930 H          1 MOL1         0.1009
      11    C3      19.174673   19.478909   22.091134 C.3        1 MOL1        -0.1392
      12    H8      18.152257   19.823094   22.295406 H          1 MOL1         0.0998
      13    H9      19.626608   20.237835   21.438813 H          1 MOL1         0.0998
      14    C4      19.092225   18.135086   21.322730 C.3        1 MOL1        -0.1302
      15    H10     20.090746   17.826767   20.984842 H          1 MOL1         0.0998
      16    H11     18.500539   18.287888   20.409276 H          1 MOL1         0.0998
      17    C5      18.448125   17.001195   22.152536 C.3        1 MOL1        -0.2317
      18    H12     17.448512   17.287975   22.504230 H          1 MOL1         0.1009
      19    H13     19.059293   16.744138   23.026870 H          1 MOL1         0.1009
      20    H14     18.341634   16.092995   21.545206 H          1 MOL1         0.1009
@<TRIPOS>BOND
    1     1     2    1
    2     1     3    1
    3     1     4    1
    4     1     5    1
    5     5     6    1
    6     5     7    1
    7     7     8    1
    8     7     9    1
    9     7    10    1
   10     5    11    1
   11    11    12    1
   12    11    13    1
   13    11    14    1
   14    14    15    1
   15    14    16    1
   16    14    17    1
   17    17    18    1
   18    17    19    1
   19    17    20    1
@<TRIPOS>SUBSTRUCTURE
       1 MOL1            1 RESIDUE      1      MOL     
@<SCITEGIC>MOL_PROPERTY
VConf Rank
SciTegic.value.IntegerValue
118

@<SCITEGIC>MOL_PROPERTY
Conf_Id
SciTegic.value.IntegerValue
64

@<SCITEGIC>MOL_PROPERTY
Delta U+W
SciTegic.value.DoubleValue
0.544

@<SCITEGIC>MOL_PROPERTY
U+W
SciTegic.value.DoubleValue
-35.732

@<SCITEGIC>MOL_PROPERTY
Grad RMS
SciTegic.value.DoubleValue
0.000000

@<SCITEGIC>MOL_PROPERTY
U
SciTegic.value.DoubleValue
22.800

@<SCITEGIC>MOL_PROPERTY
W
SciTegic.value.DoubleValue
-58.532

@<SCITEGIC>MOL_PROPERTY
W(PB)
SciTegic.value.DoubleValue
-60.437

@<SCITEGIC>MOL_PROPERTY
W(SA)
SciTegic.value.DoubleValue
1.905

@<SCITEGIC>MOL_PROPERTY
Valence
SciTegic.value.DoubleValue
2.662

@<SCITEGIC>MOL_PROPERTY
Coulomb
SciTegic.value.DoubleValue
19.485

@<SCITEGIC>MOL_PROPERTY
VdW
SciTegic.value.DoubleValue
0.653

@<SCITEGIC>MOL_PROPERTY
VdW6
SciTegic.value.DoubleValue
-5.460

@<SCITEGIC>MOL_PROPERTY
VdW12
SciTegic.value.DoubleValue
6.113

@<SCITEGIC>MOL_PROPERTY
Bond
SciTegic.value.DoubleValue
0.174

@<SCITEGIC>MOL_PROPERTY
Angle
SciTegic.value.DoubleValue
1.378

@<SCITEGIC>MOL_PROPERTY
Pdih
SciTegic.value.DoubleValue
1.109

@<SCITEGIC>MOL_PROPERTY
Idih
SciTegic.value.DoubleValue
0.000

@<SCITEGIC>MOL_PROPERTY
Tether
SciTegic.value.DoubleValue
0.000

@<TRIPOS>MOLECULE
guest-s10_confgen4.mol2 : confsearch ligand conformer 119
          20          19           1
SMALL
USER_CHARGES
 
@<TRIPOS>ATOM
       1    N1      21.700119   18.698187   21.836392 N.4        1 MOL1        -0.5937
       2    H1      21.100162   18.268116   21.129027 H          1 MOL1         0.3684
       3    H2      22.483669   18.060611   22.001189 H          1 MOL1         0.3684
       4    H3      22.086330   19.555370   21.431745 H          1 MOL1         0.3684
       5    C1      20.941850   18.977907   23.105886 C.3        1 MOL1         0.1270
       6    H4      21.666510   19.422016   23.795523 H          1 MOL1         0.0960
       7    C2      20.441143   17.671998   23.744334 C.3        1 MOL1        -0.2382
       8    H5      19.811459   17.101925   23.051352 H          1 MOL1         0.1009
       9    H6      19.863041   17.877856   24.653598 H          1 MOL1         0.1009
      10    H7      21.287975   17.034419   24.026007 H          1 MOL1         0.1009
      11    C3      19.814884   20.021525   22.901560 C.3        1 MOL1        -0.1392
      12    H8      19.412161   20.318710   23.878798 H          1 MOL1         0.0998
      13    H9      20.278617   20.929121   22.493268 H          1 MOL1         0.0998
      14    C4      18.653062   19.602166   21.958409 C.3        1 MOL1        -0.1302
      15    H10     19.010014   18.918649   21.176892 H          1 MOL1         0.0998
      16    H11     18.294833   20.497708   21.431475 H          1 MOL1         0.0998
      17    C5      17.448179   18.978527   22.701428 C.3        1 MOL1        -0.2317
      18    H12     17.716145   18.050725   23.218492 H          1 MOL1         0.1009
      19    H13     16.642738   18.741690   21.994222 H          1 MOL1         0.1009
      20    H14     17.041725   19.675718   23.445580 H          1 MOL1         0.1009
@<TRIPOS>BOND
    1     1     2    1
    2     1     3    1
    3     1     4    1
    4     1     5    1
    5     5     6    1
    6     5     7    1
    7     7     8    1
    8     7     9    1
    9     7    10    1
   10     5    11    1
   11    11    12    1
   12    11    13    1
   13    11    14    1
   14    14    15    1
   15    14    16    1
   16    14    17    1
   17    17    18    1
   18    17    19    1
   19    17    20    1
@<TRIPOS>SUBSTRUCTURE
       1 MOL1            1 RESIDUE      1      MOL     
@<SCITEGIC>MOL_PROPERTY
VConf Rank
SciTegic.value.IntegerValue
119

@<SCITEGIC>MOL_PROPERTY
Conf_Id
SciTegic.value.IntegerValue
35

@<SCITEGIC>MOL_PROPERTY
Delta U+W
SciTegic.value.DoubleValue
3.004

@<SCITEGIC>MOL_PROPERTY
U+W
SciTegic.value.DoubleValue
-33.272

@<SCITEGIC>MOL_PROPERTY
Grad RMS
SciTegic.value.DoubleValue
0.000000

@<SCITEGIC>MOL_PROPERTY
U
SciTegic.value.DoubleValue
25.367

@<SCITEGIC>MOL_PROPERTY
W
SciTegic.value.DoubleValue
-58.639

@<SCITEGIC>MOL_PROPERTY
W(PB)
SciTegic.value.DoubleValue
-60.512

@<SCITEGIC>MOL_PROPERTY
W(SA)
SciTegic.value.DoubleValue
1.873

@<SCITEGIC>MOL_PROPERTY
Valence
SciTegic.value.DoubleValue
4.943

@<SCITEGIC>MOL_PROPERTY
Coulomb
SciTegic.value.DoubleValue
19.661

@<SCITEGIC>MOL_PROPERTY
VdW
SciTegic.value.DoubleValue
0.764

@<SCITEGIC>MOL_PROPERTY
VdW6
SciTegic.value.DoubleValue
-5.871

@<SCITEGIC>MOL_PROPERTY
VdW12
SciTegic.value.DoubleValue
6.636

@<SCITEGIC>MOL_PROPERTY
Bond
SciTegic.value.DoubleValue
0.230

@<SCITEGIC>MOL_PROPERTY
Angle
SciTegic.value.DoubleValue
1.857

@<SCITEGIC>MOL_PROPERTY
Pdih
SciTegic.value.DoubleValue
2.855

@<SCITEGIC>MOL_PROPERTY
Idih
SciTegic.value.DoubleValue
0.000

@<SCITEGIC>MOL_PROPERTY
Tether
SciTegic.value.DoubleValue
0.000

@<TRIPOS>MOLECULE
guest-s10_confgen4.mol2 : confsearch ligand conformer 120
          20          19           1
SMALL
USER_CHARGES
 
@<TRIPOS>ATOM
       1    N1      19.344373   19.338997   21.015954 N.4        1 MOL1        -0.5937
       2    H1      19.705122   19.180432   20.071329 H          1 MOL1         0.3684
       3    H2      18.657272   20.095276   20.956643 H          1 MOL1         0.3684
       4    H3      18.845872   18.494618   21.303215 H          1 MOL1         0.3684
       5    C1      20.449523   19.673314   21.979977 C.3        1 MOL1         0.1270
       6    H4      20.896507   20.596705   21.598556 H          1 MOL1         0.0960
       7    C2      21.547694   18.595143   21.971033 C.3        1 MOL1        -0.2382
       8    H5      21.152464   17.612229   22.253820 H          1 MOL1         0.1009
       9    H6      22.354046   18.855601   22.667723 H          1 MOL1         0.1009
      10    H7      21.988756   18.504197   20.970953 H          1 MOL1         0.1009
      11    C3      19.935600   19.981495   23.409739 C.3        1 MOL1        -0.1392
      12    H8      20.737265   20.507406   23.944803 H          1 MOL1         0.0998
      13    H9      19.109691   20.701663   23.343027 H          1 MOL1         0.0998
      14    C4      19.493682   18.774565   24.284167 C.3        1 MOL1        -0.1302
      15    H10     19.203967   19.159501   25.271949 H          1 MOL1         0.0998
      16    H11     20.344957   18.104958   24.467437 H          1 MOL1         0.0998
      17    C5      18.308126   17.963774   23.713204 C.3        1 MOL1        -0.2317
      18    H12     17.471609   18.620036   23.439891 H          1 MOL1         0.1009
      19    H13     17.940042   17.250623   24.462270 H          1 MOL1         0.1009
      20    H14     18.604038   17.381009   22.833381 H          1 MOL1         0.1009
@<TRIPOS>BOND
    1     1     2    1
    2     1     3    1
    3     1     4    1
    4     1     5    1
    5     5     6    1
    6     5     7    1
    7     7     8    1
    8     7     9    1
    9     7    10    1
   10     5    11    1
   11    11    12    1
   12    11    13    1
   13    11    14    1
   14    14    15    1
   15    14    16    1
   16    14    17    1
   17    17    18    1
   18    17    19    1
   19    17    20    1
@<TRIPOS>SUBSTRUCTURE
       1 MOL1            1 RESIDUE      1      MOL     
@<SCITEGIC>MOL_PROPERTY
VConf Rank
SciTegic.value.IntegerValue
120

@<SCITEGIC>MOL_PROPERTY
Conf_Id
SciTegic.value.IntegerValue
55

@<SCITEGIC>MOL_PROPERTY
Delta U+W
SciTegic.value.DoubleValue
2.767

@<SCITEGIC>MOL_PROPERTY
U+W
SciTegic.value.DoubleValue
-33.509

@<SCITEGIC>MOL_PROPERTY
Grad RMS
SciTegic.value.DoubleValue
0.000000

@<SCITEGIC>MOL_PROPERTY
U
SciTegic.value.DoubleValue
24.552

@<SCITEGIC>MOL_PROPERTY
W
SciTegic.value.DoubleValue
-58.061

@<SCITEGIC>MOL_PROPERTY
W(PB)
SciTegic.value.DoubleValue
-59.930

@<SCITEGIC>MOL_PROPERTY
W(SA)
SciTegic.value.DoubleValue
1.869

@<SCITEGIC>MOL_PROPERTY
Valence
SciTegic.value.DoubleValue
3.726

@<SCITEGIC>MOL_PROPERTY
Coulomb
SciTegic.value.DoubleValue
20.219

@<SCITEGIC>MOL_PROPERTY
VdW
SciTegic.value.DoubleValue
0.606

@<SCITEGIC>MOL_PROPERTY
VdW6
SciTegic.value.DoubleValue
-6.395

@<SCITEGIC>MOL_PROPERTY
VdW12
SciTegic.value.DoubleValue
7.001

@<SCITEGIC>MOL_PROPERTY
Bond
SciTegic.value.DoubleValue
0.241

@<SCITEGIC>MOL_PROPERTY
Angle
SciTegic.value.DoubleValue
2.098

@<SCITEGIC>MOL_PROPERTY
Pdih
SciTegic.value.DoubleValue
1.387

@<SCITEGIC>MOL_PROPERTY
Idih
SciTegic.value.DoubleValue
0.000

@<SCITEGIC>MOL_PROPERTY
Tether
SciTegic.value.DoubleValue
0.000

@<TRIPOS>MOLECULE
guest-s10_confgen4.mol2 : confsearch ligand conformer 121
          20          19           1
SMALL
USER_CHARGES
 
@<TRIPOS>ATOM
       1    N1      18.512712   17.930242   23.865312 N.4        1 MOL1        -0.5937
       2    H1      19.175910   17.712604   24.613208 H          1 MOL1         0.3684
       3    H2      17.781081   17.214815   23.888492 H          1 MOL1         0.3684
       4    H3      18.071115   18.823718   24.096121 H          1 MOL1         0.3684
       5    C1      19.191949   17.980144   22.523221 C.3        1 MOL1         0.1270
       6    H4      18.418167   18.220667   21.787492 H          1 MOL1         0.0960
       7    C2      19.784681   16.607036   22.166551 C.3        1 MOL1        -0.2382
       8    H5      19.007328   15.833195   22.179050 H          1 MOL1         0.1009
       9    H6      20.568340   16.315728   22.877052 H          1 MOL1         0.1009
      10    H7      20.223352   16.620721   21.161057 H          1 MOL1         0.1009
      11    C3      20.283023   19.071200   22.450409 C.3        1 MOL1        -0.1392
      12    H8      21.061763   18.865850   23.196943 H          1 MOL1         0.0998
      13    H9      20.770491   19.019532   21.467672 H          1 MOL1         0.0998
      14    C4      19.725238   20.500251   22.655861 C.3        1 MOL1        -0.1302
      15    H10     19.281227   20.594541   23.656055 H          1 MOL1         0.0998
      16    H11     18.921162   20.691646   21.931242 H          1 MOL1         0.0998
      17    C5      20.825721   21.570543   22.492418 C.3        1 MOL1        -0.2317
      18    H12     21.630816   21.424187   23.224305 H          1 MOL1         0.1009
      19    H13     20.413335   22.576756   22.642619 H          1 MOL1         0.1009
      20    H14     21.266596   21.534551   21.487646 H          1 MOL1         0.1009
@<TRIPOS>BOND
    1     1     2    1
    2     1     3    1
    3     1     4    1
    4     1     5    1
    5     5     6    1
    6     5     7    1
    7     7     8    1
    8     7     9    1
    9     7    10    1
   10     5    11    1
   11    11    12    1
   12    11    13    1
   13    11    14    1
   14    14    15    1
   15    14    16    1
   16    14    17    1
   17    17    18    1
   18    17    19    1
   19    17    20    1
@<TRIPOS>SUBSTRUCTURE
       1 MOL1            1 RESIDUE      1      MOL     
@<SCITEGIC>MOL_PROPERTY
VConf Rank
SciTegic.value.IntegerValue
121

@<SCITEGIC>MOL_PROPERTY
Conf_Id
SciTegic.value.IntegerValue
74

@<SCITEGIC>MOL_PROPERTY
Delta U+W
SciTegic.value.DoubleValue
0.000

@<SCITEGIC>MOL_PROPERTY
U+W
SciTegic.value.DoubleValue
-36.276

@<SCITEGIC>MOL_PROPERTY
Grad RMS
SciTegic.value.DoubleValue
0.000000

@<SCITEGIC>MOL_PROPERTY
U
SciTegic.value.DoubleValue
22.080

@<SCITEGIC>MOL_PROPERTY
W
SciTegic.value.DoubleValue
-58.356

@<SCITEGIC>MOL_PROPERTY
W(PB)
SciTegic.value.DoubleValue
-60.289

@<SCITEGIC>MOL_PROPERTY
W(SA)
SciTegic.value.DoubleValue
1.932

@<SCITEGIC>MOL_PROPERTY
Valence
SciTegic.value.DoubleValue
1.885

@<SCITEGIC>MOL_PROPERTY
Coulomb
SciTegic.value.DoubleValue
19.559

@<SCITEGIC>MOL_PROPERTY
VdW
SciTegic.value.DoubleValue
0.637

@<SCITEGIC>MOL_PROPERTY
VdW6
SciTegic.value.DoubleValue
-4.482

@<SCITEGIC>MOL_PROPERTY
VdW12
SciTegic.value.DoubleValue
5.119

@<SCITEGIC>MOL_PROPERTY
Bond
SciTegic.value.DoubleValue
0.136

@<SCITEGIC>MOL_PROPERTY
Angle
SciTegic.value.DoubleValue
0.867

@<SCITEGIC>MOL_PROPERTY
Pdih
SciTegic.value.DoubleValue
0.882

@<SCITEGIC>MOL_PROPERTY
Idih
SciTegic.value.DoubleValue
0.000

@<SCITEGIC>MOL_PROPERTY
Tether
SciTegic.value.DoubleValue
0.000

@<TRIPOS>MOLECULE
guest-s10_confgen4.mol2 : confsearch ligand conformer 122
          20          19           1
SMALL
USER_CHARGES
 
@<TRIPOS>ATOM
       1    N1      21.902871   19.085986   23.728503 N.4        1 MOL1        -0.5937
       2    H1      21.723171   19.717717   24.513666 H          1 MOL1         0.3684
       3    H2      22.364509   19.631181   22.996124 H          1 MOL1         0.3684
       4    H3      22.573126   18.383789   24.053089 H          1 MOL1         0.3684
       5    C1      20.636201   18.448116   23.227369 C.3        1 MOL1         0.1270
       6    H4      20.218210   17.889276   24.070487 H          1 MOL1         0.0960
       7    C2      20.950960   17.454627   22.093920 C.3        1 MOL1        -0.2382
       8    H5      21.721787   16.740640   22.408992 H          1 MOL1         0.1009
       9    H6      21.315074   17.974956   21.199349 H          1 MOL1         0.1009
      10    H7      20.065196   16.871933   21.816227 H          1 MOL1         0.1009
      11    C3      19.604491   19.516463   22.796441 C.3        1 MOL1        -0.1392
      12    H8      19.507057   20.251756   23.606078 H          1 MOL1         0.0998
      13    H9      19.982480   20.064503   21.923156 H          1 MOL1         0.0998
      14    C4      18.201516   18.940949   22.484023 C.3        1 MOL1        -0.1302
      15    H10     17.849782   18.339636   23.334185 H          1 MOL1         0.0998
      16    H11     18.249533   18.269131   21.616696 H          1 MOL1         0.0998
      17    C5      17.178964   20.060035   22.191248 C.3        1 MOL1        -0.2317
      18    H12     17.068816   20.731087   23.053103 H          1 MOL1         0.1009
      19    H13     16.191817   19.634617   21.968426 H          1 MOL1         0.1009
      20    H14     17.488898   20.661842   21.326940 H          1 MOL1         0.1009
@<TRIPOS>BOND
    1     1     2    1
    2     1     3    1
    3     1     4    1
    4     1     5    1
    5     5     6    1
    6     5     7    1
    7     7     8    1
    8     7     9    1
    9     7    10    1
   10     5    11    1
   11    11    12    1
   12    11    13    1
   13    11    14    1
   14    14    15    1
   15    14    16    1
   16    14    17    1
   17    17    18    1
   18    17    19    1
   19    17    20    1
@<TRIPOS>SUBSTRUCTURE
       1 MOL1            1 RESIDUE      1      MOL     
@<SCITEGIC>MOL_PROPERTY
VConf Rank
SciTegic.value.IntegerValue
122

@<SCITEGIC>MOL_PROPERTY
Conf_Id
SciTegic.value.IntegerValue
80

@<SCITEGIC>MOL_PROPERTY
Delta U+W
SciTegic.value.DoubleValue
0.460

@<SCITEGIC>MOL_PROPERTY
U+W
SciTegic.value.DoubleValue
-35.817

@<SCITEGIC>MOL_PROPERTY
Grad RMS
SciTegic.value.DoubleValue
0.000000

@<SCITEGIC>MOL_PROPERTY
U
SciTegic.value.DoubleValue
22.495

@<SCITEGIC>MOL_PROPERTY
W
SciTegic.value.DoubleValue
-58.311

@<SCITEGIC>MOL_PROPERTY
W(PB)
SciTegic.value.DoubleValue
-60.259

@<SCITEGIC>MOL_PROPERTY
W(SA)
SciTegic.value.DoubleValue
1.948

@<SCITEGIC>MOL_PROPERTY
Valence
SciTegic.value.DoubleValue
2.419

@<SCITEGIC>MOL_PROPERTY
Coulomb
SciTegic.value.DoubleValue
19.304

@<SCITEGIC>MOL_PROPERTY
VdW
SciTegic.value.DoubleValue
0.772

@<SCITEGIC>MOL_PROPERTY
VdW6
SciTegic.value.DoubleValue
-4.635

@<SCITEGIC>MOL_PROPERTY
VdW12
SciTegic.value.DoubleValue
5.407

@<SCITEGIC>MOL_PROPERTY
Bond
SciTegic.value.DoubleValue
0.149

@<SCITEGIC>MOL_PROPERTY
Angle
SciTegic.value.DoubleValue
1.142

@<SCITEGIC>MOL_PROPERTY
Pdih
SciTegic.value.DoubleValue
1.129

@<SCITEGIC>MOL_PROPERTY
Idih
SciTegic.value.DoubleValue
0.000

@<SCITEGIC>MOL_PROPERTY
Tether
SciTegic.value.DoubleValue
0.000

@<TRIPOS>MOLECULE
guest-s10_confgen4.mol2 : confsearch ligand conformer 123
          20          19           1
SMALL
USER_CHARGES
 
@<TRIPOS>ATOM
       1    N1      17.900838   20.211337   23.485476 N.4        1 MOL1        -0.5937
       2    H1      17.934919   21.154907   23.090096 H          1 MOL1         0.3684
       3    H2      18.226487   20.272667   24.453401 H          1 MOL1         0.3684
       4    H3      16.916971   19.930496   23.512842 H          1 MOL1         0.3684
       5    C1      18.727930   19.242879   22.685002 C.3        1 MOL1         0.1270
       6    H4      18.304936   19.240353   21.675612 H          1 MOL1         0.0960
       7    C2      18.593704   17.823670   23.263004 C.3        1 MOL1        -0.2382
       8    H5      17.537958   17.558522   23.398054 H          1 MOL1         0.1009
       9    H6      19.093121   17.741157   24.236260 H          1 MOL1         0.1009
      10    H7      19.026946   17.080630   22.583886 H          1 MOL1         0.1009
      11    C3      20.198918   19.716280   22.587929 C.3        1 MOL1        -0.1392
      12    H8      20.189166   20.744455   22.202632 H          1 MOL1         0.0998
      13    H9      20.644732   19.777363   23.589551 H          1 MOL1         0.0998
      14    C4      21.099605   18.869429   21.650246 C.3        1 MOL1        -0.1302
      15    H10     21.798207   19.542645   21.133668 H          1 MOL1         0.0998
      16    H11     20.495349   18.400133   20.861195 H          1 MOL1         0.0998
      17    C5      21.933216   17.801849   22.397507 C.3        1 MOL1        -0.2317
      18    H12     22.596489   18.269384   23.136829 H          1 MOL1         0.1009
      19    H13     22.563004   17.243796   21.692576 H          1 MOL1         0.1009
      20    H14     21.301338   17.077106   22.922882 H          1 MOL1         0.1009
@<TRIPOS>BOND
    1     1     2    1
    2     1     3    1
    3     1     4    1
    4     1     5    1
    5     5     6    1
    6     5     7    1
    7     7     8    1
    8     7     9    1
    9     7    10    1
   10     5    11    1
   11    11    12    1
   12    11    13    1
   13    11    14    1
   14    14    15    1
   15    14    16    1
   16    14    17    1
   17    17    18    1
   18    17    19    1
   19    17    20    1
@<TRIPOS>SUBSTRUCTURE
       1 MOL1            1 RESIDUE      1      MOL     
@<SCITEGIC>MOL_PROPERTY
VConf Rank
SciTegic.value.IntegerValue
123

@<SCITEGIC>MOL_PROPERTY
Conf_Id
SciTegic.value.IntegerValue
52

@<SCITEGIC>MOL_PROPERTY
Delta U+W
SciTegic.value.DoubleValue
2.995

@<SCITEGIC>MOL_PROPERTY
U+W
SciTegic.value.DoubleValue
-33.282

@<SCITEGIC>MOL_PROPERTY
Grad RMS
SciTegic.value.DoubleValue
0.000000

@<SCITEGIC>MOL_PROPERTY
U
SciTegic.value.DoubleValue
25.224

@<SCITEGIC>MOL_PROPERTY
W
SciTegic.value.DoubleValue
-58.506

@<SCITEGIC>MOL_PROPERTY
W(PB)
SciTegic.value.DoubleValue
-60.411

@<SCITEGIC>MOL_PROPERTY
W(SA)
SciTegic.value.DoubleValue
1.905

@<SCITEGIC>MOL_PROPERTY
Valence
SciTegic.value.DoubleValue
4.945

@<SCITEGIC>MOL_PROPERTY
Coulomb
SciTegic.value.DoubleValue
19.467

@<SCITEGIC>MOL_PROPERTY
VdW
SciTegic.value.DoubleValue
0.813

@<SCITEGIC>MOL_PROPERTY
VdW6
SciTegic.value.DoubleValue
-5.458

@<SCITEGIC>MOL_PROPERTY
VdW12
SciTegic.value.DoubleValue
6.270

@<SCITEGIC>MOL_PROPERTY
Bond
SciTegic.value.DoubleValue
0.200

@<SCITEGIC>MOL_PROPERTY
Angle
SciTegic.value.DoubleValue
1.675

@<SCITEGIC>MOL_PROPERTY
Pdih
SciTegic.value.DoubleValue
3.070

@<SCITEGIC>MOL_PROPERTY
Idih
SciTegic.value.DoubleValue
0.000

@<SCITEGIC>MOL_PROPERTY
Tether
SciTegic.value.DoubleValue
0.000

@<TRIPOS>MOLECULE
guest-s10_confgen4.mol2 : confsearch ligand conformer 124
          20          19           1
SMALL
USER_CHARGES
 
@<TRIPOS>ATOM
       1    N1      21.061692   18.089925   22.487599 N.4        1 MOL1        -0.5937
       2    H1      21.731273   18.384354   23.202687 H          1 MOL1         0.3684
       3    H2      21.592907   17.637942   21.738487 H          1 MOL1         0.3684
       4    H3      20.456688   17.381415   22.908275 H          1 MOL1         0.3684
       5    C1      20.261673   19.255140   21.972336 C.3        1 MOL1         0.1270
       6    H4      19.607222   18.872752   21.182901 H          1 MOL1         0.0960
       7    C2      21.203634   20.300651   21.351549 C.3        1 MOL1        -0.2382
       8    H5      21.873931   20.729493   22.106966 H          1 MOL1         0.1009
       9    H6      20.633181   21.119730   20.896204 H          1 MOL1         0.1009
      10    H7      21.819943   19.849742   20.564035 H          1 MOL1         0.1009
      11    C3      19.378176   19.905476   23.063542 C.3        1 MOL1        -0.1392
      12    H8      19.968054   20.068003   23.975246 H          1 MOL1         0.0998
      13    H9      19.076144   20.903949   22.720159 H          1 MOL1         0.0998
      14    C4      18.079779   19.125652   23.399173 C.3        1 MOL1        -0.1302
      15    H10     17.472863   19.008503   22.490348 H          1 MOL1         0.0998
      16    H11     17.480018   19.739297   24.086015 H          1 MOL1         0.0998
      17    C5      18.303329   17.742489   24.051931 C.3        1 MOL1        -0.2317
      18    H12     17.354543   17.348634   24.439193 H          1 MOL1         0.1009
      19    H13     19.004458   17.806754   24.894311 H          1 MOL1         0.1009
      20    H14     18.680885   17.010372   23.328816 H          1 MOL1         0.1009
@<TRIPOS>BOND
    1     1     2    1
    2     1     3    1
    3     1     4    1
    4     1     5    1
    5     5     6    1
    6     5     7    1
    7     7     8    1
    8     7     9    1
    9     7    10    1
   10     5    11    1
   11    11    12    1
   12    11    13    1
   13    11    14    1
   14    14    15    1
   15    14    16    1
   16    14    17    1
   17    17    18    1
   18    17    19    1
   19    17    20    1
@<TRIPOS>SUBSTRUCTURE
       1 MOL1            1 RESIDUE      1      MOL     
@<SCITEGIC>MOL_PROPERTY
VConf Rank
SciTegic.value.IntegerValue
124

@<SCITEGIC>MOL_PROPERTY
Conf_Id
SciTegic.value.IntegerValue
54

@<SCITEGIC>MOL_PROPERTY
Delta U+W
SciTegic.value.DoubleValue
2.752

@<SCITEGIC>MOL_PROPERTY
U+W
SciTegic.value.DoubleValue
-33.525

@<SCITEGIC>MOL_PROPERTY
Grad RMS
SciTegic.value.DoubleValue
0.000000

@<SCITEGIC>MOL_PROPERTY
U
SciTegic.value.DoubleValue
24.337

@<SCITEGIC>MOL_PROPERTY
W
SciTegic.value.DoubleValue
-57.862

@<SCITEGIC>MOL_PROPERTY
W(PB)
SciTegic.value.DoubleValue
-59.764

@<SCITEGIC>MOL_PROPERTY
W(SA)
SciTegic.value.DoubleValue
1.901

@<SCITEGIC>MOL_PROPERTY
Valence
SciTegic.value.DoubleValue
3.593

@<SCITEGIC>MOL_PROPERTY
Coulomb
SciTegic.value.DoubleValue
20.067

@<SCITEGIC>MOL_PROPERTY
VdW
SciTegic.value.DoubleValue
0.677

@<SCITEGIC>MOL_PROPERTY
VdW6
SciTegic.value.DoubleValue
-5.466

@<SCITEGIC>MOL_PROPERTY
VdW12
SciTegic.value.DoubleValue
6.144

@<SCITEGIC>MOL_PROPERTY
Bond
SciTegic.value.DoubleValue
0.191

@<SCITEGIC>MOL_PROPERTY
Angle
SciTegic.value.DoubleValue
1.557

@<SCITEGIC>MOL_PROPERTY
Pdih
SciTegic.value.DoubleValue
1.845

@<SCITEGIC>MOL_PROPERTY
Idih
SciTegic.value.DoubleValue
0.000

@<SCITEGIC>MOL_PROPERTY
Tether
SciTegic.value.DoubleValue
0.000

@<TRIPOS>MOLECULE
guest-s10_confgen4.mol2 : confsearch ligand conformer 125
          20          19           1
SMALL
USER_CHARGES
 
@<TRIPOS>ATOM
       1    N1      18.671261   20.306325   21.572729 N.4        1 MOL1        -0.5937
       2    H1      18.264858   21.245724   21.568099 H          1 MOL1         0.3684
       3    H2      18.082379   19.717761   20.977311 H          1 MOL1         0.3684
       4    H3      19.590605   20.369240   21.129676 H          1 MOL1         0.3684
       5    C1      18.770350   19.756091   22.969623 C.3        1 MOL1         0.1270
       6    H4      17.749011   19.743218   23.362972 H          1 MOL1         0.0960
       7    C2      19.602896   20.684372   23.871844 C.3        1 MOL1        -0.2382
       8    H5      19.674240   20.278920   24.888698 H          1 MOL1         0.1009
       9    H6      19.133840   21.673446   23.941155 H          1 MOL1         0.1009
      10    H7      20.619244   20.822728   23.484626 H          1 MOL1         0.1009
      11    C3      19.289899   18.298574   22.997241 C.3        1 MOL1        -0.1392
      12    H8      19.252114   17.930010   24.030908 H          1 MOL1         0.0998
      13    H9      18.591923   17.670570   22.428164 H          1 MOL1         0.0998
      14    C4      20.722348   18.103519   22.436539 C.3        1 MOL1        -0.1302
      15    H10     21.443817   18.684535   23.026383 H          1 MOL1         0.0998
      16    H11     20.779957   18.476216   21.405065 H          1 MOL1         0.0998
      17    C5      21.141665   16.617914   22.458452 C.3        1 MOL1        -0.2317
      18    H12     22.157649   16.495864   22.061027 H          1 MOL1         0.1009
      19    H13     20.465546   16.007083   21.846106 H          1 MOL1         0.1009
      20    H14     21.130474   16.219193   23.481252 H          1 MOL1         0.1009
@<TRIPOS>BOND
    1     1     2    1
    2     1     3    1
    3     1     4    1
    4     1     5    1
    5     5     6    1
    6     5     7    1
    7     7     8    1
    8     7     9    1
    9     7    10    1
   10     5    11    1
   11    11    12    1
   12    11    13    1
   13    11    14    1
   14    14    15    1
   15    14    16    1
   16    14    17    1
   17    17    18    1
   18    17    19    1
   19    17    20    1
@<TRIPOS>SUBSTRUCTURE
       1 MOL1            1 RESIDUE      1      MOL     
@<SCITEGIC>MOL_PROPERTY
VConf Rank
SciTegic.value.IntegerValue
125

@<SCITEGIC>MOL_PROPERTY
Conf_Id
SciTegic.value.IntegerValue
63

@<SCITEGIC>MOL_PROPERTY
Delta U+W
SciTegic.value.DoubleValue
0.420

@<SCITEGIC>MOL_PROPERTY
U+W
SciTegic.value.DoubleValue
-35.856

@<SCITEGIC>MOL_PROPERTY
Grad RMS
SciTegic.value.DoubleValue
0.000000

@<SCITEGIC>MOL_PROPERTY
U
SciTegic.value.DoubleValue
22.625

@<SCITEGIC>MOL_PROPERTY
W
SciTegic.value.DoubleValue
-58.481

@<SCITEGIC>MOL_PROPERTY
W(PB)
SciTegic.value.DoubleValue
-60.400

@<SCITEGIC>MOL_PROPERTY
W(SA)
SciTegic.value.DoubleValue
1.919

@<SCITEGIC>MOL_PROPERTY
Valence
SciTegic.value.DoubleValue
2.404

@<SCITEGIC>MOL_PROPERTY
Coulomb
SciTegic.value.DoubleValue
19.464

@<SCITEGIC>MOL_PROPERTY
VdW
SciTegic.value.DoubleValue
0.757

@<SCITEGIC>MOL_PROPERTY
VdW6
SciTegic.value.DoubleValue
-5.074

@<SCITEGIC>MOL_PROPERTY
VdW12
SciTegic.value.DoubleValue
5.830

@<SCITEGIC>MOL_PROPERTY
Bond
SciTegic.value.DoubleValue
0.172

@<SCITEGIC>MOL_PROPERTY
Angle
SciTegic.value.DoubleValue
1.207

@<SCITEGIC>MOL_PROPERTY
Pdih
SciTegic.value.DoubleValue
1.025

@<SCITEGIC>MOL_PROPERTY
Idih
SciTegic.value.DoubleValue
0.000

@<SCITEGIC>MOL_PROPERTY
Tether
SciTegic.value.DoubleValue
0.000

@<TRIPOS>MOLECULE
guest-s10_confgen4.mol2 : confsearch ligand conformer 126
          20          19           1
SMALL
USER_CHARGES
 
@<TRIPOS>ATOM
       1    N1      20.973176   20.194124   22.703875 N.4        1 MOL1        -0.5937
       2    H1      21.014755   19.969419   21.706552 H          1 MOL1         0.3684
       3    H2      21.825397   19.830491   23.137362 H          1 MOL1         0.3684
       4    H3      20.997809   21.213790   22.788820 H          1 MOL1         0.3684
       5    C1      19.739733   19.616522   23.343540 C.3        1 MOL1         0.1270
       6    H4      18.881668   20.056668   22.826698 H          1 MOL1         0.0960
       7    C2      19.660100   20.014075   24.826484 C.3        1 MOL1        -0.2382
       8    H5      19.675242   21.105269   24.937408 H          1 MOL1         0.1009
       9    H6      20.502946   19.601148   25.394688 H          1 MOL1         0.1009
      10    H7      18.730561   19.646930   25.279015 H          1 MOL1         0.1009
      11    C3      19.660132   18.080272   23.193269 C.3        1 MOL1        -0.1392
      12    H8      20.505548   17.618403   23.720321 H          1 MOL1         0.0998
      13    H9      18.752278   17.718913   23.694417 H          1 MOL1         0.0998
      14    C4      19.647189   17.585592   21.724589 C.3        1 MOL1        -0.1302
      15    H10     19.593809   16.487844   21.722823 H          1 MOL1         0.0998
      16    H11     20.593172   17.842179   21.228760 H          1 MOL1         0.0998
      17    C5      18.461010   18.145812   20.906970 C.3        1 MOL1        -0.2317
      18    H12     17.502852   17.901376   21.383796 H          1 MOL1         0.1009
      19    H13     18.451869   17.714253   19.897642 H          1 MOL1         0.1009
      20    H14     18.522111   19.236055   20.799572 H          1 MOL1         0.1009
@<TRIPOS>BOND
    1     1     2    1
    2     1     3    1
    3     1     4    1
    4     1     5    1
    5     5     6    1
    6     5     7    1
    7     7     8    1
    8     7     9    1
    9     7    10    1
   10     5    11    1
   11    11    12    1
   12    11    13    1
   13    11    14    1
   14    14    15    1
   15    14    16    1
   16    14    17    1
   17    17    18    1
   18    17    19    1
   19    17    20    1
@<TRIPOS>SUBSTRUCTURE
       1 MOL1            1 RESIDUE      1      MOL     
@<SCITEGIC>MOL_PROPERTY
VConf Rank
SciTegic.value.IntegerValue
126

@<SCITEGIC>MOL_PROPERTY
Conf_Id
SciTegic.value.IntegerValue
50

@<SCITEGIC>MOL_PROPERTY
Delta U+W
SciTegic.value.DoubleValue
0.466

@<SCITEGIC>MOL_PROPERTY
U+W
SciTegic.value.DoubleValue
-35.811

@<SCITEGIC>MOL_PROPERTY
Grad RMS
SciTegic.value.DoubleValue
0.000000

@<SCITEGIC>MOL_PROPERTY
U
SciTegic.value.DoubleValue
22.369

@<SCITEGIC>MOL_PROPERTY
W
SciTegic.value.DoubleValue
-58.180

@<SCITEGIC>MOL_PROPERTY
W(PB)
SciTegic.value.DoubleValue
-60.103

@<SCITEGIC>MOL_PROPERTY
W(SA)
SciTegic.value.DoubleValue
1.923

@<SCITEGIC>MOL_PROPERTY
Valence
SciTegic.value.DoubleValue
2.168

@<SCITEGIC>MOL_PROPERTY
Coulomb
SciTegic.value.DoubleValue
19.636

@<SCITEGIC>MOL_PROPERTY
VdW
SciTegic.value.DoubleValue
0.566

@<SCITEGIC>MOL_PROPERTY
VdW6
SciTegic.value.DoubleValue
-5.263

@<SCITEGIC>MOL_PROPERTY
VdW12
SciTegic.value.DoubleValue
5.829

@<SCITEGIC>MOL_PROPERTY
Bond
SciTegic.value.DoubleValue
0.162

@<SCITEGIC>MOL_PROPERTY
Angle
SciTegic.value.DoubleValue
1.066

@<SCITEGIC>MOL_PROPERTY
Pdih
SciTegic.value.DoubleValue
0.939

@<SCITEGIC>MOL_PROPERTY
Idih
SciTegic.value.DoubleValue
0.000

@<SCITEGIC>MOL_PROPERTY
Tether
SciTegic.value.DoubleValue
0.000

@<TRIPOS>MOLECULE
guest-s10_confgen4.mol2 : confsearch ligand conformer 127
          20          19           1
SMALL
USER_CHARGES
 
@<TRIPOS>ATOM
       1    N1      19.566041   16.714874   22.006469 N.4        1 MOL1        -0.5937
       2    H1      20.315587   16.635972   21.313685 H          1 MOL1         0.3684
       3    H2      18.676687   16.628134   21.508074 H          1 MOL1         0.3684
       4    H3      19.645085   15.907334   22.630461 H          1 MOL1         0.3684
       5    C1      19.648697   18.009854   22.768557 C.3        1 MOL1         0.1270
       6    H4      20.626377   18.012050   23.260389 H          1 MOL1         0.0960
       7    C2      18.552274   18.056107   23.849150 C.3        1 MOL1        -0.2382
       8    H5      17.552459   18.007877   23.400029 H          1 MOL1         0.1009
       9    H6      18.610108   18.974824   24.442786 H          1 MOL1         0.1009
      10    H7      18.654485   17.209915   24.539541 H          1 MOL1         0.1009
      11    C3      19.579225   19.239015   21.829106 C.3        1 MOL1        -0.1392
      12    H8      19.790040   18.917609   20.800550 H          1 MOL1         0.0998
      13    H9      18.560415   19.648378   21.807653 H          1 MOL1         0.0998
      14    C4      20.594888   20.355583   22.180514 C.3        1 MOL1        -0.1302
      15    H10     20.525865   21.144942   21.418884 H          1 MOL1         0.0998
      16    H11     21.616900   19.956588   22.114373 H          1 MOL1         0.0998
      17    C5      20.381342   20.989024   23.573133 C.3        1 MOL1        -0.2317
      18    H12     19.354406   21.359891   23.686660 H          1 MOL1         0.1009
      19    H13     21.061504   21.838717   23.716111 H          1 MOL1         0.1009
      20    H14     20.583291   20.269358   24.376207 H          1 MOL1         0.1009
@<TRIPOS>BOND
    1     1     2    1
    2     1     3    1
    3     1     4    1
    4     1     5    1
    5     5     6    1
    6     5     7    1
    7     7     8    1
    8     7     9    1
    9     7    10    1
   10     5    11    1
   11    11    12    1
   12    11    13    1
   13    11    14    1
   14    14    15    1
   15    14    16    1
   16    14    17    1
   17    17    18    1
   18    17    19    1
   19    17    20    1
@<TRIPOS>SUBSTRUCTURE
       1 MOL1            1 RESIDUE      1      MOL     
@<SCITEGIC>MOL_PROPERTY
VConf Rank
SciTegic.value.IntegerValue
127

@<SCITEGIC>MOL_PROPERTY
Conf_Id
SciTegic.value.IntegerValue
3

@<SCITEGIC>MOL_PROPERTY
Delta U+W
SciTegic.value.DoubleValue
3.093

@<SCITEGIC>MOL_PROPERTY
U+W
SciTegic.value.DoubleValue
-33.184

@<SCITEGIC>MOL_PROPERTY
Grad RMS
SciTegic.value.DoubleValue
0.000000

@<SCITEGIC>MOL_PROPERTY
U
SciTegic.value.DoubleValue
25.256

@<SCITEGIC>MOL_PROPERTY
W
SciTegic.value.DoubleValue
-58.439

@<SCITEGIC>MOL_PROPERTY
W(PB)
SciTegic.value.DoubleValue
-60.337

@<SCITEGIC>MOL_PROPERTY
W(SA)
SciTegic.value.DoubleValue
1.898

@<SCITEGIC>MOL_PROPERTY
Valence
SciTegic.value.DoubleValue
4.963

@<SCITEGIC>MOL_PROPERTY
Coulomb
SciTegic.value.DoubleValue
19.511

@<SCITEGIC>MOL_PROPERTY
VdW
SciTegic.value.DoubleValue
0.782

@<SCITEGIC>MOL_PROPERTY
VdW6
SciTegic.value.DoubleValue
-5.429

@<SCITEGIC>MOL_PROPERTY
VdW12
SciTegic.value.DoubleValue
6.211

@<SCITEGIC>MOL_PROPERTY
Bond
SciTegic.value.DoubleValue
0.174

@<SCITEGIC>MOL_PROPERTY
Angle
SciTegic.value.DoubleValue
1.377

@<SCITEGIC>MOL_PROPERTY
Pdih
SciTegic.value.DoubleValue
3.412

@<SCITEGIC>MOL_PROPERTY
Idih
SciTegic.value.DoubleValue
0.000

@<SCITEGIC>MOL_PROPERTY
Tether
SciTegic.value.DoubleValue
0.000

@<TRIPOS>MOLECULE
guest-s10_confgen4.mol2 : confsearch ligand conformer 128
          20          19           1
SMALL
USER_CHARGES
 
@<TRIPOS>ATOM
       1    N1      21.091085   20.429072   23.752892 N.4        1 MOL1        -0.5937
       2    H1      21.962162   20.151178   24.212931 H          1 MOL1         0.3684
       3    H2      20.504439   20.877423   24.461876 H          1 MOL1         0.3684
       4    H3      21.328461   21.140568   23.057111 H          1 MOL1         0.3684
       5    C1      20.399704   19.250417   23.124286 C.3        1 MOL1         0.1270
       6    H4      20.191077   18.548192   23.936968 H          1 MOL1         0.0960
       7    C2      21.332055   18.559829   22.112402 C.3        1 MOL1        -0.2382
       8    H5      20.898628   17.620991   21.748728 H          1 MOL1         0.1009
       9    H6      22.294119   18.313881   22.578317 H          1 MOL1         0.1009
      10    H7      21.527949   19.205938   21.247730 H          1 MOL1         0.1009
      11    C3      19.053823   19.666665   22.484151 C.3        1 MOL1        -0.1392
      12    H8      18.468004   20.222503   23.228050 H          1 MOL1         0.0998
      13    H9      19.244446   20.368047   21.661070 H          1 MOL1         0.0998
      14    C4      18.187353   18.493383   21.959039 C.3        1 MOL1        -0.1302
      15    H10     18.688858   17.994895   21.118637 H          1 MOL1         0.0998
      16    H11     17.252375   18.901853   21.550620 H          1 MOL1         0.0998
      17    C5      17.844898   17.456263   23.052775 C.3        1 MOL1        -0.2317
      18    H12     17.344451   17.932564   23.905915 H          1 MOL1         0.1009
      19    H13     18.744376   16.947805   23.422195 H          1 MOL1         0.1009
      20    H14     17.170043   16.686998   22.655509 H          1 MOL1         0.1009
@<TRIPOS>BOND
    1     1     2    1
    2     1     3    1
    3     1     4    1
    4     1     5    1
    5     5     6    1
    6     5     7    1
    7     7     8    1
    8     7     9    1
    9     7    10    1
   10     5    11    1
   11    11    12    1
   12    11    13    1
   13    11    14    1
   14    14    15    1
   15    14    16    1
   16    14    17    1
   17    17    18    1
   18    17    19    1
   19    17    20    1
@<TRIPOS>SUBSTRUCTURE
       1 MOL1            1 RESIDUE      1      MOL     
@<SCITEGIC>MOL_PROPERTY
VConf Rank
SciTegic.value.IntegerValue
128

@<SCITEGIC>MOL_PROPERTY
Conf_Id
SciTegic.value.IntegerValue
64

@<SCITEGIC>MOL_PROPERTY
Delta U+W
SciTegic.value.DoubleValue
0.544

@<SCITEGIC>MOL_PROPERTY
U+W
SciTegic.value.DoubleValue
-35.732

@<SCITEGIC>MOL_PROPERTY
Grad RMS
SciTegic.value.DoubleValue
0.000000

@<SCITEGIC>MOL_PROPERTY
U
SciTegic.value.DoubleValue
22.800

@<SCITEGIC>MOL_PROPERTY
W
SciTegic.value.DoubleValue
-58.532

@<SCITEGIC>MOL_PROPERTY
W(PB)
SciTegic.value.DoubleValue
-60.437

@<SCITEGIC>MOL_PROPERTY
W(SA)
SciTegic.value.DoubleValue
1.905

@<SCITEGIC>MOL_PROPERTY
Valence
SciTegic.value.DoubleValue
2.662

@<SCITEGIC>MOL_PROPERTY
Coulomb
SciTegic.value.DoubleValue
19.485

@<SCITEGIC>MOL_PROPERTY
VdW
SciTegic.value.DoubleValue
0.653

@<SCITEGIC>MOL_PROPERTY
VdW6
SciTegic.value.DoubleValue
-5.460

@<SCITEGIC>MOL_PROPERTY
VdW12
SciTegic.value.DoubleValue
6.113

@<SCITEGIC>MOL_PROPERTY
Bond
SciTegic.value.DoubleValue
0.174

@<SCITEGIC>MOL_PROPERTY
Angle
SciTegic.value.DoubleValue
1.378

@<SCITEGIC>MOL_PROPERTY
Pdih
SciTegic.value.DoubleValue
1.109

@<SCITEGIC>MOL_PROPERTY
Idih
SciTegic.value.DoubleValue
0.000

@<SCITEGIC>MOL_PROPERTY
Tether
SciTegic.value.DoubleValue
0.000

@<TRIPOS>MOLECULE
guest-s10_confgen4.mol2 : confsearch ligand conformer 129
          20          19           1
SMALL
USER_CHARGES
 
@<TRIPOS>ATOM
       1    N1      21.851145   18.510154   22.852032 N.4        1 MOL1        -0.5937
       2    H1      21.526805   18.312468   23.801240 H          1 MOL1         0.3684
       3    H2      22.687385   19.095108   22.930411 H          1 MOL1         0.3684
       4    H3      22.140529   17.621390   22.434880 H          1 MOL1         0.3684
       5    C1      20.782853   19.184056   22.033839 C.3        1 MOL1         0.1270
       6    H4      21.227271   19.361537   21.049483 H          1 MOL1         0.0960
       7    C2      20.420513   20.555001   22.627930 C.3        1 MOL1        -0.2382
       8    H5      20.092498   20.466924   23.670215 H          1 MOL1         0.1009
       9    H6      19.620909   21.033114   22.048810 H          1 MOL1         0.1009
      10    H7      21.290364   21.222781   22.607950 H          1 MOL1         0.1009
      11    C3      19.547373   18.275075   21.814104 C.3        1 MOL1        -0.1392
      12    H8      18.881141   18.738538   21.074622 H          1 MOL1         0.0998
      13    H9      19.901402   17.349104   21.342169 H          1 MOL1         0.0998
      14    C4      18.739339   17.894904   23.086022 C.3        1 MOL1        -0.1302
      15    H10     19.394350   17.843621   23.965630 H          1 MOL1         0.0998
      16    H11     18.339616   16.879973   22.951410 H          1 MOL1         0.0998
      17    C5      17.545960   18.838645   23.365209 C.3        1 MOL1        -0.2317
      18    H12     17.868363   19.868131   23.555454 H          1 MOL1         0.1009
      19    H13     16.987218   18.499267   24.247022 H          1 MOL1         0.1009
      20    H14     16.849583   18.853152   22.516745 H          1 MOL1         0.1009
@<TRIPOS>BOND
    1     1     2    1
    2     1     3    1
    3     1     4    1
    4     1     5    1
    5     5     6    1
    6     5     7    1
    7     7     8    1
    8     7     9    1
    9     7    10    1
   10     5    11    1
   11    11    12    1
   12    11    13    1
   13    11    14    1
   14    14    15    1
   15    14    16    1
   16    14    17    1
   17    17    18    1
   18    17    19    1
   19    17    20    1
@<TRIPOS>SUBSTRUCTURE
       1 MOL1            1 RESIDUE      1      MOL     
@<SCITEGIC>MOL_PROPERTY
VConf Rank
SciTegic.value.IntegerValue
129

@<SCITEGIC>MOL_PROPERTY
Conf_Id
SciTegic.value.IntegerValue
35

@<SCITEGIC>MOL_PROPERTY
Delta U+W
SciTegic.value.DoubleValue
3.004

@<SCITEGIC>MOL_PROPERTY
U+W
SciTegic.value.DoubleValue
-33.272

@<SCITEGIC>MOL_PROPERTY
Grad RMS
SciTegic.value.DoubleValue
0.000000

@<SCITEGIC>MOL_PROPERTY
U
SciTegic.value.DoubleValue
25.367

@<SCITEGIC>MOL_PROPERTY
W
SciTegic.value.DoubleValue
-58.639

@<SCITEGIC>MOL_PROPERTY
W(PB)
SciTegic.value.DoubleValue
-60.512

@<SCITEGIC>MOL_PROPERTY
W(SA)
SciTegic.value.DoubleValue
1.873

@<SCITEGIC>MOL_PROPERTY
Valence
SciTegic.value.DoubleValue
4.943

@<SCITEGIC>MOL_PROPERTY
Coulomb
SciTegic.value.DoubleValue
19.661

@<SCITEGIC>MOL_PROPERTY
VdW
SciTegic.value.DoubleValue
0.764

@<SCITEGIC>MOL_PROPERTY
VdW6
SciTegic.value.DoubleValue
-5.871

@<SCITEGIC>MOL_PROPERTY
VdW12
SciTegic.value.DoubleValue
6.636

@<SCITEGIC>MOL_PROPERTY
Bond
SciTegic.value.DoubleValue
0.230

@<SCITEGIC>MOL_PROPERTY
Angle
SciTegic.value.DoubleValue
1.857

@<SCITEGIC>MOL_PROPERTY
Pdih
SciTegic.value.DoubleValue
2.855

@<SCITEGIC>MOL_PROPERTY
Idih
SciTegic.value.DoubleValue
0.000

@<SCITEGIC>MOL_PROPERTY
Tether
SciTegic.value.DoubleValue
0.000

@<TRIPOS>MOLECULE
guest-s10_confgen4.mol2 : confsearch ligand conformer 130
          20          19           1
SMALL
USER_CHARGES
 
@<TRIPOS>ATOM
       1    N1      20.013232   17.199904   22.652819 N.4        1 MOL1        -0.5937
       2    H1      19.430693   16.362387   22.570260 H          1 MOL1         0.3684
       3    H2      20.920561   16.904554   23.023093 H          1 MOL1         0.3684
       4    H3      20.170630   17.562171   21.710489 H          1 MOL1         0.3684
       5    C1      19.369546   18.235365   23.533700 C.3        1 MOL1         0.1270
       6    H4      19.270572   17.759625   24.514415 H          1 MOL1         0.0960
       7    C2      17.951139   18.582600   23.047841 C.3        1 MOL1        -0.2382
       8    H5      17.959200   18.980797   22.026240 H          1 MOL1         0.1009
       9    H6      17.486850   19.328569   23.704641 H          1 MOL1         0.1009
      10    H7      17.313340   17.690339   23.054988 H          1 MOL1         0.1009
      11    C3      20.250638   19.495138   23.733603 C.3        1 MOL1        -0.1392
      12    H8      19.865354   20.034601   24.608861 H          1 MOL1         0.0998
      13    H9      21.264956   19.179204   24.010301 H          1 MOL1         0.0998
      14    C4      20.332061   20.502999   22.552848 C.3        1 MOL1        -0.1302
      15    H10     20.953108   21.351226   22.873217 H          1 MOL1         0.0998
      16    H11     19.340228   20.926668   22.344514 H          1 MOL1         0.0998
      17    C5      20.934331   19.925513   21.251809 C.3        1 MOL1        -0.2317
      18    H12     21.888797   19.418858   21.445296 H          1 MOL1         0.1009
      19    H13     21.125976   20.731597   20.531621 H          1 MOL1         0.1009
      20    H14     20.249398   19.219426   20.768513 H          1 MOL1         0.1009
@<TRIPOS>BOND
    1     1     2    1
    2     1     3    1
    3     1     4    1
    4     1     5    1
    5     5     6    1
    6     5     7    1
    7     7     8    1
    8     7     9    1
    9     7    10    1
   10     5    11    1
   11    11    12    1
   12    11    13    1
   13    11    14    1
   14    14    15    1
   15    14    16    1
   16    14    17    1
   17    17    18    1
   18    17    19    1
   19    17    20    1
@<TRIPOS>SUBSTRUCTURE
       1 MOL1            1 RESIDUE      1      MOL     
@<SCITEGIC>MOL_PROPERTY
VConf Rank
SciTegic.value.IntegerValue
130

@<SCITEGIC>MOL_PROPERTY
Conf_Id
SciTegic.value.IntegerValue
55

@<SCITEGIC>MOL_PROPERTY
Delta U+W
SciTegic.value.DoubleValue
2.767

@<SCITEGIC>MOL_PROPERTY
U+W
SciTegic.value.DoubleValue
-33.509

@<SCITEGIC>MOL_PROPERTY
Grad RMS
SciTegic.value.DoubleValue
0.000000

@<SCITEGIC>MOL_PROPERTY
U
SciTegic.value.DoubleValue
24.552

@<SCITEGIC>MOL_PROPERTY
W
SciTegic.value.DoubleValue
-58.061

@<SCITEGIC>MOL_PROPERTY
W(PB)
SciTegic.value.DoubleValue
-59.930

@<SCITEGIC>MOL_PROPERTY
W(SA)
SciTegic.value.DoubleValue
1.869

@<SCITEGIC>MOL_PROPERTY
Valence
SciTegic.value.DoubleValue
3.726

@<SCITEGIC>MOL_PROPERTY
Coulomb
SciTegic.value.DoubleValue
20.219

@<SCITEGIC>MOL_PROPERTY
VdW
SciTegic.value.DoubleValue
0.606

@<SCITEGIC>MOL_PROPERTY
VdW6
SciTegic.value.DoubleValue
-6.395

@<SCITEGIC>MOL_PROPERTY
VdW12
SciTegic.value.DoubleValue
7.001

@<SCITEGIC>MOL_PROPERTY
Bond
SciTegic.value.DoubleValue
0.241

@<SCITEGIC>MOL_PROPERTY
Angle
SciTegic.value.DoubleValue
2.098

@<SCITEGIC>MOL_PROPERTY
Pdih
SciTegic.value.DoubleValue
1.387

@<SCITEGIC>MOL_PROPERTY
Idih
SciTegic.value.DoubleValue
0.000

@<SCITEGIC>MOL_PROPERTY
Tether
SciTegic.value.DoubleValue
0.000

@<TRIPOS>MOLECULE
guest-s10_confgen4.mol2 : confsearch ligand conformer 131
          20          19           1
SMALL
USER_CHARGES
 
@<TRIPOS>ATOM
       1    N1      18.761432   17.308589   23.172508 N.4        1 MOL1        -0.5937
       2    H1      18.042259   17.740119   23.758270 H          1 MOL1         0.3684
       3    H2      18.843316   16.329969   23.461050 H          1 MOL1         0.3684
       4    H3      18.417200   17.313314   22.209148 H          1 MOL1         0.3684
       5    C1      20.076711   18.030155   23.292690 C.3        1 MOL1         0.1270
       6    H4      20.781997   17.510503   22.636625 H          1 MOL1         0.0960
       7    C2      20.608648   17.947057   24.732866 C.3        1 MOL1        -0.2382
       8    H5      20.709517   16.901845   25.050074 H          1 MOL1         0.1009
       9    H6      19.935099   18.453863   25.435199 H          1 MOL1         0.1009
      10    H7      21.598051   18.414635   24.810916 H          1 MOL1         0.1009
      11    C3      19.989231   19.503487   22.836851 C.3        1 MOL1        -0.1392
      12    H8      19.268437   20.042957   23.465616 H          1 MOL1         0.0998
      13    H9      20.964350   19.982416   22.997589 H          1 MOL1         0.0998
      14    C4      19.599173   19.654321   21.346675 C.3        1 MOL1        -0.1302
      15    H10     18.600512   19.232205   21.170834 H          1 MOL1         0.0998
      16    H11     20.300424   19.084411   20.720822 H          1 MOL1         0.0998
      17    C5      19.604184   21.133009   20.903098 C.3        1 MOL1        -0.2317
      18    H12     18.889642   21.724060   21.490758 H          1 MOL1         0.1009
      19    H13     19.324273   21.221439   19.845310 H          1 MOL1         0.1009
      20    H14     20.599549   21.579572   21.025826 H          1 MOL1         0.1009
@<TRIPOS>BOND
    1     1     2    1
    2     1     3    1
    3     1     4    1
    4     1     5    1
    5     5     6    1
    6     5     7    1
    7     7     8    1
    8     7     9    1
    9     7    10    1
   10     5    11    1
   11    11    12    1
   12    11    13    1
   13    11    14    1
   14    14    15    1
   15    14    16    1
   16    14    17    1
   17    17    18    1
   18    17    19    1
   19    17    20    1
@<TRIPOS>SUBSTRUCTURE
       1 MOL1            1 RESIDUE      1      MOL     
@<SCITEGIC>MOL_PROPERTY
VConf Rank
SciTegic.value.IntegerValue
131

@<SCITEGIC>MOL_PROPERTY
Conf_Id
SciTegic.value.IntegerValue
74

@<SCITEGIC>MOL_PROPERTY
Delta U+W
SciTegic.value.DoubleValue
0.000

@<SCITEGIC>MOL_PROPERTY
U+W
SciTegic.value.DoubleValue
-36.276

@<SCITEGIC>MOL_PROPERTY
Grad RMS
SciTegic.value.DoubleValue
0.000000

@<SCITEGIC>MOL_PROPERTY
U
SciTegic.value.DoubleValue
22.080

@<SCITEGIC>MOL_PROPERTY
W
SciTegic.value.DoubleValue
-58.356

@<SCITEGIC>MOL_PROPERTY
W(PB)
SciTegic.value.DoubleValue
-60.289

@<SCITEGIC>MOL_PROPERTY
W(SA)
SciTegic.value.DoubleValue
1.932

@<SCITEGIC>MOL_PROPERTY
Valence
SciTegic.value.DoubleValue
1.885

@<SCITEGIC>MOL_PROPERTY
Coulomb
SciTegic.value.DoubleValue
19.559

@<SCITEGIC>MOL_PROPERTY
VdW
SciTegic.value.DoubleValue
0.637

@<SCITEGIC>MOL_PROPERTY
VdW6
SciTegic.value.DoubleValue
-4.482

@<SCITEGIC>MOL_PROPERTY
VdW12
SciTegic.value.DoubleValue
5.119

@<SCITEGIC>MOL_PROPERTY
Bond
SciTegic.value.DoubleValue
0.136

@<SCITEGIC>MOL_PROPERTY
Angle
SciTegic.value.DoubleValue
0.867

@<SCITEGIC>MOL_PROPERTY
Pdih
SciTegic.value.DoubleValue
0.882

@<SCITEGIC>MOL_PROPERTY
Idih
SciTegic.value.DoubleValue
0.000

@<SCITEGIC>MOL_PROPERTY
Tether
SciTegic.value.DoubleValue
0.000

@<TRIPOS>MOLECULE
guest-s10_confgen4.mol2 : confsearch ligand conformer 132
          20          19           1
SMALL
USER_CHARGES
 
@<TRIPOS>ATOM
       1    N1      18.110871   18.380231   21.059200 N.4        1 MOL1        -0.5937
       2    H1      18.524035   17.547317   20.630941 H          1 MOL1         0.3684
       3    H2      18.279167   19.165865   20.425810 H          1 MOL1         0.3684
       4    H3      17.098973   18.230598   21.095960 H          1 MOL1         0.3684
       5    C1      18.679029   18.641616   22.427170 C.3        1 MOL1         0.1270
       6    H4      18.450332   17.757157   23.029909 H          1 MOL1         0.0960
       7    C2      17.987989   19.858918   23.068606 C.3        1 MOL1        -0.2382
       8    H5      16.897783   19.739564   23.047964 H          1 MOL1         0.1009
       9    H6      18.238608   20.784485   22.535601 H          1 MOL1         0.1009
      10    H7      18.280136   19.976701   24.118369 H          1 MOL1         0.1009
      11    C3      20.215817   18.805313   22.372633 C.3        1 MOL1        -0.1392
      12    H8      20.635401   17.960522   21.810547 H          1 MOL1         0.0998
      13    H9      20.471334   19.711633   21.807704 H          1 MOL1         0.0998
      14    C4      20.889719   18.851604   23.765785 C.3        1 MOL1        -0.1302
      15    H10     20.583652   17.975633   24.354910 H          1 MOL1         0.0998
      16    H11     20.558701   19.739919   24.320064 H          1 MOL1         0.0998
      17    C5      22.429273   18.879751   23.653251 C.3        1 MOL1        -0.2317
      18    H12     22.805286   17.984193   23.141560 H          1 MOL1         0.1009
      19    H13     22.890177   18.916180   24.648906 H          1 MOL1         0.1009
      20    H14     22.768175   19.761039   23.093129 H          1 MOL1         0.1009
@<TRIPOS>BOND
    1     1     2    1
    2     1     3    1
    3     1     4    1
    4     1     5    1
    5     5     6    1
    6     5     7    1
    7     7     8    1
    8     7     9    1
    9     7    10    1
   10     5    11    1
   11    11    12    1
   12    11    13    1
   13    11    14    1
   14    14    15    1
   15    14    16    1
   16    14    17    1
   17    17    18    1
   18    17    19    1
   19    17    20    1
@<TRIPOS>SUBSTRUCTURE
       1 MOL1            1 RESIDUE      1      MOL     
@<SCITEGIC>MOL_PROPERTY
VConf Rank
SciTegic.value.IntegerValue
132

@<SCITEGIC>MOL_PROPERTY
Conf_Id
SciTegic.value.IntegerValue
80

@<SCITEGIC>MOL_PROPERTY
Delta U+W
SciTegic.value.DoubleValue
0.460

@<SCITEGIC>MOL_PROPERTY
U+W
SciTegic.value.DoubleValue
-35.817

@<SCITEGIC>MOL_PROPERTY
Grad RMS
SciTegic.value.DoubleValue
0.000000

@<SCITEGIC>MOL_PROPERTY
U
SciTegic.value.DoubleValue
22.495

@<SCITEGIC>MOL_PROPERTY
W
SciTegic.value.DoubleValue
-58.311

@<SCITEGIC>MOL_PROPERTY
W(PB)
SciTegic.value.DoubleValue
-60.259

@<SCITEGIC>MOL_PROPERTY
W(SA)
SciTegic.value.DoubleValue
1.948

@<SCITEGIC>MOL_PROPERTY
Valence
SciTegic.value.DoubleValue
2.419

@<SCITEGIC>MOL_PROPERTY
Coulomb
SciTegic.value.DoubleValue
19.304

@<SCITEGIC>MOL_PROPERTY
VdW
SciTegic.value.DoubleValue
0.772

@<SCITEGIC>MOL_PROPERTY
VdW6
SciTegic.value.DoubleValue
-4.635

@<SCITEGIC>MOL_PROPERTY
VdW12
SciTegic.value.DoubleValue
5.407

@<SCITEGIC>MOL_PROPERTY
Bond
SciTegic.value.DoubleValue
0.149

@<SCITEGIC>MOL_PROPERTY
Angle
SciTegic.value.DoubleValue
1.142

@<SCITEGIC>MOL_PROPERTY
Pdih
SciTegic.value.DoubleValue
1.129

@<SCITEGIC>MOL_PROPERTY
Idih
SciTegic.value.DoubleValue
0.000

@<SCITEGIC>MOL_PROPERTY
Tether
SciTegic.value.DoubleValue
0.000

@<TRIPOS>MOLECULE
guest-s10_confgen4.mol2 : confsearch ligand conformer 133
          20          19           1
SMALL
USER_CHARGES
 
@<TRIPOS>ATOM
       1    N1      18.384950   17.841334   24.402484 N.4        1 MOL1        -0.5937
       2    H1      17.431979   17.690975   24.060357 H          1 MOL1         0.3684
       3    H2      18.363893   18.657021   25.019655 H          1 MOL1         0.3684
       4    H3      18.630938   17.031143   24.977545 H          1 MOL1         0.3684
       5    C1      19.358509   18.029808   23.271374 C.3        1 MOL1         0.1270
       6    H4      19.316106   17.113145   22.674942 H          1 MOL1         0.0960
       7    C2      20.788384   18.178065   23.818854 C.3        1 MOL1        -0.2382
       8    H5      21.019286   17.369745   24.523444 H          1 MOL1         0.1009
       9    H6      20.917417   19.133605   24.342063 H          1 MOL1         0.1009
      10    H7      21.526190   18.119883   23.010606 H          1 MOL1         0.1009
      11    C3      18.935621   19.212051   22.365393 C.3        1 MOL1        -0.1392
      12    H8      17.896859   19.035071   22.056614 H          1 MOL1         0.0998
      13    H9      18.920121   20.145905   22.942804 H          1 MOL1         0.0998
      14    C4      19.786309   19.389833   21.079948 C.3        1 MOL1        -0.1302
      15    H10     19.123710   19.707685   20.262604 H          1 MOL1         0.0998
      16    H11     20.210146   18.425679   20.765728 H          1 MOL1         0.0998
      17    C5      20.904698   20.448806   21.224223 C.3        1 MOL1        -0.2317
      18    H12     20.483275   21.433676   21.464120 H          1 MOL1         0.1009
      19    H13     21.464020   20.547006   20.284809 H          1 MOL1         0.1009
      20    H14     21.621424   20.188620   22.011083 H          1 MOL1         0.1009
@<TRIPOS>BOND
    1     1     2    1
    2     1     3    1
    3     1     4    1
    4     1     5    1
    5     5     6    1
    6     5     7    1
    7     7     8    1
    8     7     9    1
    9     7    10    1
   10     5    11    1
   11    11    12    1
   12    11    13    1
   13    11    14    1
   14    14    15    1
   15    14    16    1
   16    14    17    1
   17    17    18    1
   18    17    19    1
   19    17    20    1
@<TRIPOS>SUBSTRUCTURE
       1 MOL1            1 RESIDUE      1      MOL     
@<SCITEGIC>MOL_PROPERTY
VConf Rank
SciTegic.value.IntegerValue
133

@<SCITEGIC>MOL_PROPERTY
Conf_Id
SciTegic.value.IntegerValue
52

@<SCITEGIC>MOL_PROPERTY
Delta U+W
SciTegic.value.DoubleValue
2.995

@<SCITEGIC>MOL_PROPERTY
U+W
SciTegic.value.DoubleValue
-33.282

@<SCITEGIC>MOL_PROPERTY
Grad RMS
SciTegic.value.DoubleValue
0.000000

@<SCITEGIC>MOL_PROPERTY
U
SciTegic.value.DoubleValue
25.224

@<SCITEGIC>MOL_PROPERTY
W
SciTegic.value.DoubleValue
-58.506

@<SCITEGIC>MOL_PROPERTY
W(PB)
SciTegic.value.DoubleValue
-60.411

@<SCITEGIC>MOL_PROPERTY
W(SA)
SciTegic.value.DoubleValue
1.905

@<SCITEGIC>MOL_PROPERTY
Valence
SciTegic.value.DoubleValue
4.945

@<SCITEGIC>MOL_PROPERTY
Coulomb
SciTegic.value.DoubleValue
19.467

@<SCITEGIC>MOL_PROPERTY
VdW
SciTegic.value.DoubleValue
0.813

@<SCITEGIC>MOL_PROPERTY
VdW6
SciTegic.value.DoubleValue
-5.458

@<SCITEGIC>MOL_PROPERTY
VdW12
SciTegic.value.DoubleValue
6.270

@<SCITEGIC>MOL_PROPERTY
Bond
SciTegic.value.DoubleValue
0.200

@<SCITEGIC>MOL_PROPERTY
Angle
SciTegic.value.DoubleValue
1.675

@<SCITEGIC>MOL_PROPERTY
Pdih
SciTegic.value.DoubleValue
3.070

@<SCITEGIC>MOL_PROPERTY
Idih
SciTegic.value.DoubleValue
0.000

@<SCITEGIC>MOL_PROPERTY
Tether
SciTegic.value.DoubleValue
0.000

@<TRIPOS>MOLECULE
guest-s10_confgen4.mol2 : confsearch ligand conformer 134
          20          19           1
SMALL
USER_CHARGES
 
@<TRIPOS>ATOM
       1    N1      20.906923   19.562656   21.743192 N.4        1 MOL1        -0.5937
       2    H1      20.788037   20.578648   21.741079 H          1 MOL1         0.3684
       3    H2      21.419583   19.312738   20.893269 H          1 MOL1         0.3684
       4    H3      21.498961   19.325637   22.542128 H          1 MOL1         0.3684
       5    C1      19.581159   18.855443   21.816999 C.3        1 MOL1         0.1270
       6    H4      19.785543   17.781498   21.765964 H          1 MOL1         0.0960
       7    C2      18.717403   19.238690   20.603406 C.3        1 MOL1        -0.2382
       8    H5      18.469104   20.307374   20.614316 H          1 MOL1         0.1009
       9    H6      17.779329   18.669830   20.595635 H          1 MOL1         0.1009
      10    H7      19.244248   19.019614   19.666509 H          1 MOL1         0.1009
      11    C3      18.820225   19.143369   23.133173 C.3        1 MOL1        -0.1392
      12    H8      18.823904   20.221769   23.339604 H          1 MOL1         0.0998
      13    H9      17.765987   18.868336   22.995250 H          1 MOL1         0.0998
      14    C4      19.338596   18.361139   24.368493 C.3        1 MOL1        -0.1302
      15    H10     19.287234   17.281125   24.171094 H          1 MOL1         0.0998
      16    H11     18.650975   18.548402   25.205235 H          1 MOL1         0.0998
      17    C5      20.768439   18.735322   24.820976 C.3        1 MOL1        -0.2317
      18    H12     20.981922   18.295489   25.803962 H          1 MOL1         0.1009
      19    H13     20.887253   19.823004   24.911235 H          1 MOL1         0.1009
      20    H14     21.525569   18.350186   24.128254 H          1 MOL1         0.1009
@<TRIPOS>BOND
    1     1     2    1
    2     1     3    1
    3     1     4    1
    4     1     5    1
    5     5     6    1
    6     5     7    1
    7     7     8    1
    8     7     9    1
    9     7    10    1
   10     5    11    1
   11    11    12    1
   12    11    13    1
   13    11    14    1
   14    14    15    1
   15    14    16    1
   16    14    17    1
   17    17    18    1
   18    17    19    1
   19    17    20    1
@<TRIPOS>SUBSTRUCTURE
       1 MOL1            1 RESIDUE      1      MOL     
@<SCITEGIC>MOL_PROPERTY
VConf Rank
SciTegic.value.IntegerValue
134

@<SCITEGIC>MOL_PROPERTY
Conf_Id
SciTegic.value.IntegerValue
54

@<SCITEGIC>MOL_PROPERTY
Delta U+W
SciTegic.value.DoubleValue
2.752

@<SCITEGIC>MOL_PROPERTY
U+W
SciTegic.value.DoubleValue
-33.525

@<SCITEGIC>MOL_PROPERTY
Grad RMS
SciTegic.value.DoubleValue
0.000000

@<SCITEGIC>MOL_PROPERTY
U
SciTegic.value.DoubleValue
24.337

@<SCITEGIC>MOL_PROPERTY
W
SciTegic.value.DoubleValue
-57.862

@<SCITEGIC>MOL_PROPERTY
W(PB)
SciTegic.value.DoubleValue
-59.764

@<SCITEGIC>MOL_PROPERTY
W(SA)
SciTegic.value.DoubleValue
1.901

@<SCITEGIC>MOL_PROPERTY
Valence
SciTegic.value.DoubleValue
3.593

@<SCITEGIC>MOL_PROPERTY
Coulomb
SciTegic.value.DoubleValue
20.067

@<SCITEGIC>MOL_PROPERTY
VdW
SciTegic.value.DoubleValue
0.677

@<SCITEGIC>MOL_PROPERTY
VdW6
SciTegic.value.DoubleValue
-5.466

@<SCITEGIC>MOL_PROPERTY
VdW12
SciTegic.value.DoubleValue
6.144

@<SCITEGIC>MOL_PROPERTY
Bond
SciTegic.value.DoubleValue
0.191

@<SCITEGIC>MOL_PROPERTY
Angle
SciTegic.value.DoubleValue
1.557

@<SCITEGIC>MOL_PROPERTY
Pdih
SciTegic.value.DoubleValue
1.845

@<SCITEGIC>MOL_PROPERTY
Idih
SciTegic.value.DoubleValue
0.000

@<SCITEGIC>MOL_PROPERTY
Tether
SciTegic.value.DoubleValue
0.000

@<TRIPOS>MOLECULE
guest-s10_confgen4.mol2 : confsearch ligand conformer 135
          20          19           1
SMALL
USER_CHARGES
 
@<TRIPOS>ATOM
       1    N1      19.902420   17.186518   21.639141 N.4        1 MOL1        -0.5937
       2    H1      19.687836   16.185942   21.660500 H          1 MOL1         0.3684
       3    H2      20.748017   17.303751   21.074398 H          1 MOL1         0.3684
       4    H3      19.136948   17.652462   21.146803 H          1 MOL1         0.3684
       5    C1      20.082373   17.740839   23.026307 C.3        1 MOL1         0.1270
       6    H4      20.903836   17.173312   23.474787 H          1 MOL1         0.0960
       7    C2      18.828515   17.498890   23.885458 C.3        1 MOL1        -0.2382
       8    H5      18.963002   17.905949   24.895254 H          1 MOL1         0.1009
       9    H6      18.632931   16.424148   23.984270 H          1 MOL1         0.1009
      10    H7      17.938017   17.961561   23.443880 H          1 MOL1         0.1009
      11    C3      20.504718   19.229675   23.019632 C.3        1 MOL1        -0.1392
      12    H8      20.705831   19.544055   24.052325 H          1 MOL1         0.0998
      13    H9      21.460814   19.316736   22.486989 H          1 MOL1         0.0998
      14    C4      19.476678   20.198863   22.380763 C.3        1 MOL1        -0.1302
      15    H10     18.527876   20.164401   22.932670 H          1 MOL1         0.0998
      16    H11     19.256953   19.892680   21.349194 H          1 MOL1         0.0998
      17    C5      19.997076   21.652295   22.373751 C.3        1 MOL1        -0.2317
      18    H12     19.258455   22.326444   21.920950 H          1 MOL1         0.1009
      19    H13     20.927253   21.736523   21.796780 H          1 MOL1         0.1009
      20    H14     20.194525   22.006260   23.394019 H          1 MOL1         0.1009
@<TRIPOS>BOND
    1     1     2    1
    2     1     3    1
    3     1     4    1
    4     1     5    1
    5     5     6    1
    6     5     7    1
    7     7     8    1
    8     7     9    1
    9     7    10    1
   10     5    11    1
   11    11    12    1
   12    11    13    1
   13    11    14    1
   14    14    15    1
   15    14    16    1
   16    14    17    1
   17    17    18    1
   18    17    19    1
   19    17    20    1
@<TRIPOS>SUBSTRUCTURE
       1 MOL1            1 RESIDUE      1      MOL     
@<SCITEGIC>MOL_PROPERTY
VConf Rank
SciTegic.value.IntegerValue
135

@<SCITEGIC>MOL_PROPERTY
Conf_Id
SciTegic.value.IntegerValue
63

@<SCITEGIC>MOL_PROPERTY
Delta U+W
SciTegic.value.DoubleValue
0.420

@<SCITEGIC>MOL_PROPERTY
U+W
SciTegic.value.DoubleValue
-35.856

@<SCITEGIC>MOL_PROPERTY
Grad RMS
SciTegic.value.DoubleValue
0.000000

@<SCITEGIC>MOL_PROPERTY
U
SciTegic.value.DoubleValue
22.625

@<SCITEGIC>MOL_PROPERTY
W
SciTegic.value.DoubleValue
-58.481

@<SCITEGIC>MOL_PROPERTY
W(PB)
SciTegic.value.DoubleValue
-60.400

@<SCITEGIC>MOL_PROPERTY
W(SA)
SciTegic.value.DoubleValue
1.919

@<SCITEGIC>MOL_PROPERTY
Valence
SciTegic.value.DoubleValue
2.404

@<SCITEGIC>MOL_PROPERTY
Coulomb
SciTegic.value.DoubleValue
19.464

@<SCITEGIC>MOL_PROPERTY
VdW
SciTegic.value.DoubleValue
0.757

@<SCITEGIC>MOL_PROPERTY
VdW6
SciTegic.value.DoubleValue
-5.074

@<SCITEGIC>MOL_PROPERTY
VdW12
SciTegic.value.DoubleValue
5.830

@<SCITEGIC>MOL_PROPERTY
Bond
SciTegic.value.DoubleValue
0.172

@<SCITEGIC>MOL_PROPERTY
Angle
SciTegic.value.DoubleValue
1.207

@<SCITEGIC>MOL_PROPERTY
Pdih
SciTegic.value.DoubleValue
1.025

@<SCITEGIC>MOL_PROPERTY
Idih
SciTegic.value.DoubleValue
0.000

@<SCITEGIC>MOL_PROPERTY
Tether
SciTegic.value.DoubleValue
0.000

@<TRIPOS>MOLECULE
guest-s10_confgen4.mol2 : confsearch ligand conformer 136
          20          19           1
SMALL
USER_CHARGES
 
@<TRIPOS>ATOM
       1    N1      21.148836   19.968070   22.626815 N.4        1 MOL1        -0.5937
       2    H1      21.242720   19.539392   21.702534 H          1 MOL1         0.3684
       3    H2      21.891064   19.588146   23.219417 H          1 MOL1         0.3684
       4    H3      21.326575   20.970181   22.518537 H          1 MOL1         0.3684
       5    C1      19.787821   19.709088   23.213964 C.3        1 MOL1         0.1270
       6    H4      19.059326   20.146796   22.524879 H          1 MOL1         0.0960
       7    C2      19.640728   20.410405   24.574122 C.3        1 MOL1        -0.2382
       8    H5      19.818125   21.488470   24.476431 H          1 MOL1         0.1009
       9    H6      20.353998   20.011728   25.306281 H          1 MOL1         0.1009
      10    H7      18.628432   20.275184   24.974863 H          1 MOL1         0.1009
      11    C3      19.480228   18.200523   23.350339 C.3        1 MOL1        -0.1392
      12    H8      20.191946   17.745602   24.052007 H          1 MOL1         0.0998
      13    H9      18.485859   18.077941   23.799929 H          1 MOL1         0.0998
      14    C4      19.519671   17.420717   22.011591 C.3        1 MOL1        -0.1302
      15    H10     19.293949   16.364008   22.212381 H          1 MOL1         0.0998
      16    H11     20.534518   17.437649   21.591634 H          1 MOL1         0.0998
      17    C5      18.514141   17.957837   20.967666 C.3        1 MOL1        -0.2317
      18    H12     17.490925   17.950437   21.365350 H          1 MOL1         0.1009
      19    H13     18.526538   17.333209   20.065029 H          1 MOL1         0.1009
      20    H14     18.755957   18.983751   20.662832 H          1 MOL1         0.1009
@<TRIPOS>BOND
    1     1     2    1
    2     1     3    1
    3     1     4    1
    4     1     5    1
    5     5     6    1
    6     5     7    1
    7     7     8    1
    8     7     9    1
    9     7    10    1
   10     5    11    1
   11    11    12    1
   12    11    13    1
   13    11    14    1
   14    14    15    1
   15    14    16    1
   16    14    17    1
   17    17    18    1
   18    17    19    1
   19    17    20    1
@<TRIPOS>SUBSTRUCTURE
       1 MOL1            1 RESIDUE      1      MOL     
@<SCITEGIC>MOL_PROPERTY
VConf Rank
SciTegic.value.IntegerValue
136

@<SCITEGIC>MOL_PROPERTY
Conf_Id
SciTegic.value.IntegerValue
50

@<SCITEGIC>MOL_PROPERTY
Delta U+W
SciTegic.value.DoubleValue
0.466

@<SCITEGIC>MOL_PROPERTY
U+W
SciTegic.value.DoubleValue
-35.811

@<SCITEGIC>MOL_PROPERTY
Grad RMS
SciTegic.value.DoubleValue
0.000000

@<SCITEGIC>MOL_PROPERTY
U
SciTegic.value.DoubleValue
22.369

@<SCITEGIC>MOL_PROPERTY
W
SciTegic.value.DoubleValue
-58.180

@<SCITEGIC>MOL_PROPERTY
W(PB)
SciTegic.value.DoubleValue
-60.103

@<SCITEGIC>MOL_PROPERTY
W(SA)
SciTegic.value.DoubleValue
1.923

@<SCITEGIC>MOL_PROPERTY
Valence
SciTegic.value.DoubleValue
2.168

@<SCITEGIC>MOL_PROPERTY
Coulomb
SciTegic.value.DoubleValue
19.636

@<SCITEGIC>MOL_PROPERTY
VdW
SciTegic.value.DoubleValue
0.566

@<SCITEGIC>MOL_PROPERTY
VdW6
SciTegic.value.DoubleValue
-5.263

@<SCITEGIC>MOL_PROPERTY
VdW12
SciTegic.value.DoubleValue
5.829

@<SCITEGIC>MOL_PROPERTY
Bond
SciTegic.value.DoubleValue
0.162

@<SCITEGIC>MOL_PROPERTY
Angle
SciTegic.value.DoubleValue
1.066

@<SCITEGIC>MOL_PROPERTY
Pdih
SciTegic.value.DoubleValue
0.939

@<SCITEGIC>MOL_PROPERTY
Idih
SciTegic.value.DoubleValue
0.000

@<SCITEGIC>MOL_PROPERTY
Tether
SciTegic.value.DoubleValue
0.000

@<TRIPOS>MOLECULE
guest-s10_confgen4.mol2 : confsearch ligand conformer 137
          20          19           1
SMALL
USER_CHARGES
 
@<TRIPOS>ATOM
       1    N1      20.321055   20.917430   21.841058 N.4        1 MOL1        -0.5937
       2    H1      21.320289   20.998113   22.048470 H          1 MOL1         0.3684
       3    H2      19.837102   21.645024   22.373287 H          1 MOL1         0.3684
       4    H3      20.199968   21.135320   20.848285 H          1 MOL1         0.3684
       5    C1      19.794296   19.547271   22.172372 C.3        1 MOL1         0.1270
       6    H4      20.369865   18.843936   21.562615 H          1 MOL1         0.0960
       7    C2      18.309535   19.443757   21.776478 C.3        1 MOL1        -0.2382
       8    H5      17.700906   20.167846   22.332294 H          1 MOL1         0.1009
       9    H6      17.908159   18.444247   21.975642 H          1 MOL1         0.1009
      10    H7      18.180426   19.644097   20.705813 H          1 MOL1         0.1009
      11    C3      20.016321   19.187134   23.662083 C.3        1 MOL1        -0.1392
      12    H8      20.770219   19.863126   24.086753 H          1 MOL1         0.0998
      13    H9      19.100129   19.365750   24.240617 H          1 MOL1         0.0998
      14    C4      20.516186   17.737936   23.889550 C.3        1 MOL1        -0.1302
      15    H10     20.718787   17.600879   24.961044 H          1 MOL1         0.0998
      16    H11     21.478038   17.596407   23.376820 H          1 MOL1         0.0998
      17    C5      19.524301   16.647307   23.428109 C.3        1 MOL1        -0.2317
      18    H12     18.538675   16.786436   23.890940 H          1 MOL1         0.1009
      19    H13     19.889683   15.651906   23.712213 H          1 MOL1         0.1009
      20    H14     19.401739   16.652125   22.337887 H          1 MOL1         0.1009
@<TRIPOS>BOND
    1     1     2    1
    2     1     3    1
    3     1     4    1
    4     1     5    1
    5     5     6    1
    6     5     7    1
    7     7     8    1
    8     7     9    1
    9     7    10    1
   10     5    11    1
   11    11    12    1
   12    11    13    1
   13    11    14    1
   14    14    15    1
   15    14    16    1
   16    14    17    1
   17    17    18    1
   18    17    19    1
   19    17    20    1
@<TRIPOS>SUBSTRUCTURE
       1 MOL1            1 RESIDUE      1      MOL     
@<SCITEGIC>MOL_PROPERTY
VConf Rank
SciTegic.value.IntegerValue
137

@<SCITEGIC>MOL_PROPERTY
Conf_Id
SciTegic.value.IntegerValue
3

@<SCITEGIC>MOL_PROPERTY
Delta U+W
SciTegic.value.DoubleValue
3.093

@<SCITEGIC>MOL_PROPERTY
U+W
SciTegic.value.DoubleValue
-33.184

@<SCITEGIC>MOL_PROPERTY
Grad RMS
SciTegic.value.DoubleValue
0.000000

@<SCITEGIC>MOL_PROPERTY
U
SciTegic.value.DoubleValue
25.256

@<SCITEGIC>MOL_PROPERTY
W
SciTegic.value.DoubleValue
-58.439

@<SCITEGIC>MOL_PROPERTY
W(PB)
SciTegic.value.DoubleValue
-60.337

@<SCITEGIC>MOL_PROPERTY
W(SA)
SciTegic.value.DoubleValue
1.898

@<SCITEGIC>MOL_PROPERTY
Valence
SciTegic.value.DoubleValue
4.963

@<SCITEGIC>MOL_PROPERTY
Coulomb
SciTegic.value.DoubleValue
19.511

@<SCITEGIC>MOL_PROPERTY
VdW
SciTegic.value.DoubleValue
0.782

@<SCITEGIC>MOL_PROPERTY
VdW6
SciTegic.value.DoubleValue
-5.429

@<SCITEGIC>MOL_PROPERTY
VdW12
SciTegic.value.DoubleValue
6.211

@<SCITEGIC>MOL_PROPERTY
Bond
SciTegic.value.DoubleValue
0.174

@<SCITEGIC>MOL_PROPERTY
Angle
SciTegic.value.DoubleValue
1.377

@<SCITEGIC>MOL_PROPERTY
Pdih
SciTegic.value.DoubleValue
3.412

@<SCITEGIC>MOL_PROPERTY
Idih
SciTegic.value.DoubleValue
0.000

@<SCITEGIC>MOL_PROPERTY
Tether
SciTegic.value.DoubleValue
0.000

@<TRIPOS>MOLECULE
guest-s10_confgen4.mol2 : confsearch ligand conformer 138
          20          19           1
SMALL
USER_CHARGES
 
@<TRIPOS>ATOM
       1    N1      21.306829   17.360075   22.534057 N.4        1 MOL1        -0.5937
       2    H1      21.746500   16.891731   23.330912 H          1 MOL1         0.3684
       3    H2      22.046474   17.855553   22.028827 H          1 MOL1         0.3684
       4    H3      20.947515   16.630585   21.913233 H          1 MOL1         0.3684
       5    C1      20.215294   18.294838   22.978075 C.3        1 MOL1         0.1270
       6    H4      20.689807   19.030343   23.634555 H          1 MOL1         0.0960
       7    C2      19.153922   17.531112   23.790672 C.3        1 MOL1        -0.2382
       8    H5      18.426491   18.217580   24.239159 H          1 MOL1         0.1009
       9    H6      19.622230   16.973532   24.610993 H          1 MOL1         0.1009
      10    H7      18.609649   16.816687   23.160709 H          1 MOL1         0.1009
      11    C3      19.596669   19.045252   21.774493 C.3        1 MOL1        -0.1392
      12    H8      20.407044   19.501100   21.190522 H          1 MOL1         0.0998
      13    H9      19.109896   18.322179   21.106694 H          1 MOL1         0.0998
      14    C4      18.580075   20.154894   22.146424 C.3        1 MOL1        -0.1302
      15    H10     17.689910   19.715154   22.616005 H          1 MOL1         0.0998
      16    H11     18.226415   20.632261   21.221824 H          1 MOL1         0.0998
      17    C5      19.177872   21.238647   23.072313 C.3        1 MOL1        -0.2317
      18    H12     20.072052   21.691402   22.624415 H          1 MOL1         0.1009
      19    H13     19.455196   20.825367   24.050247 H          1 MOL1         0.1009
      20    H14     18.448467   22.040173   23.247070 H          1 MOL1         0.1009
@<TRIPOS>BOND
    1     1     2    1
    2     1     3    1
    3     1     4    1
    4     1     5    1
    5     5     6    1
    6     5     7    1
    7     7     8    1
    8     7     9    1
    9     7    10    1
   10     5    11    1
   11    11    12    1
   12    11    13    1
   13    11    14    1
   14    14    15    1
   15    14    16    1
   16    14    17    1
   17    17    18    1
   18    17    19    1
   19    17    20    1
@<TRIPOS>SUBSTRUCTURE
       1 MOL1            1 RESIDUE      1      MOL     
@<SCITEGIC>MOL_PROPERTY
VConf Rank
SciTegic.value.IntegerValue
138

@<SCITEGIC>MOL_PROPERTY
Conf_Id
SciTegic.value.IntegerValue
64

@<SCITEGIC>MOL_PROPERTY
Delta U+W
SciTegic.value.DoubleValue
0.544

@<SCITEGIC>MOL_PROPERTY
U+W
SciTegic.value.DoubleValue
-35.732

@<SCITEGIC>MOL_PROPERTY
Grad RMS
SciTegic.value.DoubleValue
0.000000

@<SCITEGIC>MOL_PROPERTY
U
SciTegic.value.DoubleValue
22.800

@<SCITEGIC>MOL_PROPERTY
W
SciTegic.value.DoubleValue
-58.532

@<SCITEGIC>MOL_PROPERTY
W(PB)
SciTegic.value.DoubleValue
-60.437

@<SCITEGIC>MOL_PROPERTY
W(SA)
SciTegic.value.DoubleValue
1.905

@<SCITEGIC>MOL_PROPERTY
Valence
SciTegic.value.DoubleValue
2.662

@<SCITEGIC>MOL_PROPERTY
Coulomb
SciTegic.value.DoubleValue
19.485

@<SCITEGIC>MOL_PROPERTY
VdW
SciTegic.value.DoubleValue
0.653

@<SCITEGIC>MOL_PROPERTY
VdW6
SciTegic.value.DoubleValue
-5.460

@<SCITEGIC>MOL_PROPERTY
VdW12
SciTegic.value.DoubleValue
6.113

@<SCITEGIC>MOL_PROPERTY
Bond
SciTegic.value.DoubleValue
0.174

@<SCITEGIC>MOL_PROPERTY
Angle
SciTegic.value.DoubleValue
1.378

@<SCITEGIC>MOL_PROPERTY
Pdih
SciTegic.value.DoubleValue
1.109

@<SCITEGIC>MOL_PROPERTY
Idih
SciTegic.value.DoubleValue
0.000

@<SCITEGIC>MOL_PROPERTY
Tether
SciTegic.value.DoubleValue
0.000

@<TRIPOS>MOLECULE
guest-s10_confgen4.mol2 : confsearch ligand conformer 139
          20          19           1
SMALL
USER_CHARGES
 
@<TRIPOS>ATOM
       1    N1      21.541403   19.183825   21.555854 N.4        1 MOL1        -0.5937
       2    H1      21.567808   18.181032   21.753292 H          1 MOL1         0.3684
       3    H2      22.471317   19.559963   21.759308 H          1 MOL1         0.3684
       4    H3      21.382307   19.295019   20.550874 H          1 MOL1         0.3684
       5    C1      20.478346   19.876902   22.364796 C.3        1 MOL1         0.1270
       6    H4      20.538011   20.935418   22.092863 H          1 MOL1         0.0960
       7    C2      20.778421   19.771685   23.868993 C.3        1 MOL1        -0.2382
       8    H5      20.868641   18.726884   24.188307 H          1 MOL1         0.1009
       9    H6      19.988158   20.251009   24.459816 H          1 MOL1         0.1009
      10    H7      21.723259   20.275308   24.106931 H          1 MOL1         0.1009
      11    C3      19.051602   19.396352   21.998171 C.3        1 MOL1        -0.1392
      12    H8      18.312231   20.048009   22.482082 H          1 MOL1         0.0998
      13    H9      18.917517   19.559362   20.920707 H          1 MOL1         0.0998
      14    C4      18.726601   17.908837   22.309458 C.3        1 MOL1        -0.1302
      15    H10     19.627068   17.285871   22.229130 H          1 MOL1         0.0998
      16    H11     18.036245   17.537073   21.539275 H          1 MOL1         0.0998
      17    C5      18.054551   17.698090   23.686658 C.3        1 MOL1        -0.2317
      18    H12     18.702685   18.005316   24.514614 H          1 MOL1         0.1009
      19    H13     17.809040   16.638532   23.835077 H          1 MOL1         0.1009
      20    H14     17.119406   18.268456   23.758971 H          1 MOL1         0.1009
@<TRIPOS>BOND
    1     1     2    1
    2     1     3    1
    3     1     4    1
    4     1     5    1
    5     5     6    1
    6     5     7    1
    7     7     8    1
    8     7     9    1
    9     7    10    1
   10     5    11    1
   11    11    12    1
   12    11    13    1
   13    11    14    1
   14    14    15    1
   15    14    16    1
   16    14    17    1
   17    17    18    1
   18    17    19    1
   19    17    20    1
@<TRIPOS>SUBSTRUCTURE
       1 MOL1            1 RESIDUE      1      MOL     
@<SCITEGIC>MOL_PROPERTY
VConf Rank
SciTegic.value.IntegerValue
139

@<SCITEGIC>MOL_PROPERTY
Conf_Id
SciTegic.value.IntegerValue
35

@<SCITEGIC>MOL_PROPERTY
Delta U+W
SciTegic.value.DoubleValue
3.004

@<SCITEGIC>MOL_PROPERTY
U+W
SciTegic.value.DoubleValue
-33.272

@<SCITEGIC>MOL_PROPERTY
Grad RMS
SciTegic.value.DoubleValue
0.000000

@<SCITEGIC>MOL_PROPERTY
U
SciTegic.value.DoubleValue
25.367

@<SCITEGIC>MOL_PROPERTY
W
SciTegic.value.DoubleValue
-58.639

@<SCITEGIC>MOL_PROPERTY
W(PB)
SciTegic.value.DoubleValue
-60.512

@<SCITEGIC>MOL_PROPERTY
W(SA)
SciTegic.value.DoubleValue
1.873

@<SCITEGIC>MOL_PROPERTY
Valence
SciTegic.value.DoubleValue
4.943

@<SCITEGIC>MOL_PROPERTY
Coulomb
SciTegic.value.DoubleValue
19.661

@<SCITEGIC>MOL_PROPERTY
VdW
SciTegic.value.DoubleValue
0.764

@<SCITEGIC>MOL_PROPERTY
VdW6
SciTegic.value.DoubleValue
-5.871

@<SCITEGIC>MOL_PROPERTY
VdW12
SciTegic.value.DoubleValue
6.636

@<SCITEGIC>MOL_PROPERTY
Bond
SciTegic.value.DoubleValue
0.230

@<SCITEGIC>MOL_PROPERTY
Angle
SciTegic.value.DoubleValue
1.857

@<SCITEGIC>MOL_PROPERTY
Pdih
SciTegic.value.DoubleValue
2.855

@<SCITEGIC>MOL_PROPERTY
Idih
SciTegic.value.DoubleValue
0.000

@<SCITEGIC>MOL_PROPERTY
Tether
SciTegic.value.DoubleValue
0.000

@<TRIPOS>MOLECULE
guest-s10_confgen4.mol2 : confsearch ligand conformer 140
          20          19           1
SMALL
USER_CHARGES
 
@<TRIPOS>ATOM
       1    N1      18.417369   20.004675   23.124208 N.4        1 MOL1        -0.5937
       2    H1      17.657097   20.499189   22.649820 H          1 MOL1         0.3684
       3    H2      18.504093   20.406676   24.061468 H          1 MOL1         0.3684
       4    H3      18.131747   19.029886   23.234670 H          1 MOL1         0.3684
       5    C1      19.707412   20.110525   22.358017 C.3        1 MOL1         0.1270
       6    H4      19.933994   21.180625   22.319618 H          1 MOL1         0.0960
       7    C2      19.540154   19.625417   20.907084 C.3        1 MOL1        -0.2382
       8    H5      19.219029   18.577853   20.864838 H          1 MOL1         0.1009
       9    H6      20.483211   19.719150   20.354565 H          1 MOL1         0.1009
      10    H7      18.787385   20.228282   20.384724 H          1 MOL1         0.1009
      11    C3      20.898330   19.425789   23.076462 C.3        1 MOL1        -0.1392
      12    H8      21.823272   19.811807   22.628114 H          1 MOL1         0.0998
      13    H9      20.921442   19.758654   24.122351 H          1 MOL1         0.0998
      14    C4      20.961017   17.873168   23.031353 C.3        1 MOL1        -0.1302
      15    H10     21.880549   17.555889   23.542840 H          1 MOL1         0.0998
      16    H11     21.066368   17.526106   21.994492 H          1 MOL1         0.0998
      17    C5      19.763904   17.159281   23.699341 C.3        1 MOL1        -0.2317
      18    H12     19.581063   17.548532   24.709387 H          1 MOL1         0.1009
      19    H13     19.965026   16.083791   23.789014 H          1 MOL1         0.1009
      20    H14     18.848148   17.266249   23.106705 H          1 MOL1         0.1009
@<TRIPOS>BOND
    1     1     2    1
    2     1     3    1
    3     1     4    1
    4     1     5    1
    5     5     6    1
    6     5     7    1
    7     7     8    1
    8     7     9    1
    9     7    10    1
   10     5    11    1
   11    11    12    1
   12    11    13    1
   13    11    14    1
   14    14    15    1
   15    14    16    1
   16    14    17    1
   17    17    18    1
   18    17    19    1
   19    17    20    1
@<TRIPOS>SUBSTRUCTURE
       1 MOL1            1 RESIDUE      1      MOL     
@<SCITEGIC>MOL_PROPERTY
VConf Rank
SciTegic.value.IntegerValue
140

@<SCITEGIC>MOL_PROPERTY
Conf_Id
SciTegic.value.IntegerValue
55

@<SCITEGIC>MOL_PROPERTY
Delta U+W
SciTegic.value.DoubleValue
2.767

@<SCITEGIC>MOL_PROPERTY
U+W
SciTegic.value.DoubleValue
-33.509

@<SCITEGIC>MOL_PROPERTY
Grad RMS
SciTegic.value.DoubleValue
0.000000

@<SCITEGIC>MOL_PROPERTY
U
SciTegic.value.DoubleValue
24.552

@<SCITEGIC>MOL_PROPERTY
W
SciTegic.value.DoubleValue
-58.061

@<SCITEGIC>MOL_PROPERTY
W(PB)
SciTegic.value.DoubleValue
-59.930

@<SCITEGIC>MOL_PROPERTY
W(SA)
SciTegic.value.DoubleValue
1.869

@<SCITEGIC>MOL_PROPERTY
Valence
SciTegic.value.DoubleValue
3.726

@<SCITEGIC>MOL_PROPERTY
Coulomb
SciTegic.value.DoubleValue
20.219

@<SCITEGIC>MOL_PROPERTY
VdW
SciTegic.value.DoubleValue
0.606

@<SCITEGIC>MOL_PROPERTY
VdW6
SciTegic.value.DoubleValue
-6.395

@<SCITEGIC>MOL_PROPERTY
VdW12
SciTegic.value.DoubleValue
7.001

@<SCITEGIC>MOL_PROPERTY
Bond
SciTegic.value.DoubleValue
0.241

@<SCITEGIC>MOL_PROPERTY
Angle
SciTegic.value.DoubleValue
2.098

@<SCITEGIC>MOL_PROPERTY
Pdih
SciTegic.value.DoubleValue
1.387

@<SCITEGIC>MOL_PROPERTY
Idih
SciTegic.value.DoubleValue
0.000

@<SCITEGIC>MOL_PROPERTY
Tether
SciTegic.value.DoubleValue
0.000

@<TRIPOS>MOLECULE
guest-s10_confgen4.mol2 : confsearch ligand conformer 141
          20          19           1
SMALL
USER_CHARGES
 
@<TRIPOS>ATOM
       1    N1      20.543936   17.410612   21.788796 N.4        1 MOL1        -0.5937
       2    H1      20.627726   17.839801   20.863960 H          1 MOL1         0.3684
       3    H2      20.505642   16.396907   21.652443 H          1 MOL1         0.3684
       4    H3      21.404735   17.615616   22.302196 H          1 MOL1         0.3684
       5    C1      19.330024   17.913934   22.522380 C.3        1 MOL1         0.1270
       6    H4      19.319042   17.411662   23.494743 H          1 MOL1         0.0960
       7    C2      18.045992   17.530726   21.768469 C.3        1 MOL1        -0.2382
       8    H5      17.989359   16.444744   21.624591 H          1 MOL1         0.1009
       9    H6      18.006837   18.008700   20.781656 H          1 MOL1         0.1009
      10    H7      17.156245   17.837776   22.332126 H          1 MOL1         0.1009
      11    C3      19.374196   19.438500   22.767117 C.3        1 MOL1        -0.1392
      12    H8      19.409794   19.966624   21.804966 H          1 MOL1         0.0998
      13    H9      18.441050   19.745546   23.258064 H          1 MOL1         0.0998
      14    C4      20.568806   19.876095   23.648557 C.3        1 MOL1        -0.1302
      15    H10     21.517260   19.630252   23.152149 H          1 MOL1         0.0998
      16    H11     20.552412   19.320474   24.596849 H          1 MOL1         0.0998
      17    C5      20.534684   21.391086   23.943415 C.3        1 MOL1        -0.2317
      18    H12     20.580572   21.975269   23.015040 H          1 MOL1         0.1009
      19    H13     21.388828   21.683911   24.567736 H          1 MOL1         0.1009
      20    H14     19.616865   21.669693   24.477473 H          1 MOL1         0.1009
@<TRIPOS>BOND
    1     1     2    1
    2     1     3    1
    3     1     4    1
    4     1     5    1
    5     5     6    1
    6     5     7    1
    7     7     8    1
    8     7     9    1
    9     7    10    1
   10     5    11    1
   11    11    12    1
   12    11    13    1
   13    11    14    1
   14    14    15    1
   15    14    16    1
   16    14    17    1
   17    17    18    1
   18    17    19    1
   19    17    20    1
@<TRIPOS>SUBSTRUCTURE
       1 MOL1            1 RESIDUE      1      MOL     
@<SCITEGIC>MOL_PROPERTY
VConf Rank
SciTegic.value.IntegerValue
141

@<SCITEGIC>MOL_PROPERTY
Conf_Id
SciTegic.value.IntegerValue
74

@<SCITEGIC>MOL_PROPERTY
Delta U+W
SciTegic.value.DoubleValue
0.000

@<SCITEGIC>MOL_PROPERTY
U+W
SciTegic.value.DoubleValue
-36.276

@<SCITEGIC>MOL_PROPERTY
Grad RMS
SciTegic.value.DoubleValue
0.000000

@<SCITEGIC>MOL_PROPERTY
U
SciTegic.value.DoubleValue
22.080

@<SCITEGIC>MOL_PROPERTY
W
SciTegic.value.DoubleValue
-58.356

@<SCITEGIC>MOL_PROPERTY
W(PB)
SciTegic.value.DoubleValue
-60.289

@<SCITEGIC>MOL_PROPERTY
W(SA)
SciTegic.value.DoubleValue
1.932

@<SCITEGIC>MOL_PROPERTY
Valence
SciTegic.value.DoubleValue
1.885

@<SCITEGIC>MOL_PROPERTY
Coulomb
SciTegic.value.DoubleValue
19.559

@<SCITEGIC>MOL_PROPERTY
VdW
SciTegic.value.DoubleValue
0.637

@<SCITEGIC>MOL_PROPERTY
VdW6
SciTegic.value.DoubleValue
-4.482

@<SCITEGIC>MOL_PROPERTY
VdW12
SciTegic.value.DoubleValue
5.119

@<SCITEGIC>MOL_PROPERTY
Bond
SciTegic.value.DoubleValue
0.136

@<SCITEGIC>MOL_PROPERTY
Angle
SciTegic.value.DoubleValue
0.867

@<SCITEGIC>MOL_PROPERTY
Pdih
SciTegic.value.DoubleValue
0.882

@<SCITEGIC>MOL_PROPERTY
Idih
SciTegic.value.DoubleValue
0.000

@<SCITEGIC>MOL_PROPERTY
Tether
SciTegic.value.DoubleValue
0.000

@<TRIPOS>MOLECULE
guest-s10_confgen4.mol2 : confsearch ligand conformer 142
          20          19           1
SMALL
USER_CHARGES
 
@<TRIPOS>ATOM
       1    N1      21.227986   18.327689   24.491538 N.4        1 MOL1        -0.5937
       2    H1      21.475917   19.242605   24.877953 H          1 MOL1         0.3684
       3    H2      22.014609   18.014317   23.917300 H          1 MOL1         0.3684
       4    H3      21.148740   17.678628   25.279015 H          1 MOL1         0.3684
       5    C1      19.952514   18.387394   23.696508 C.3        1 MOL1         0.1270
       6    H4      19.174327   18.726200   24.387521 H          1 MOL1         0.0960
       7    C2      19.573962   16.984077   23.188373 C.3        1 MOL1        -0.2382
       8    H5      19.556294   16.265066   24.016583 H          1 MOL1         0.1009
       9    H6      20.292903   16.624672   22.441693 H          1 MOL1         0.1009
      10    H7      18.576060   16.979230   22.735172 H          1 MOL1         0.1009
      11    C3      20.058214   19.415209   22.545895 C.3        1 MOL1        -0.1392
      12    H8      20.434529   20.360742   22.958225 H          1 MOL1         0.0998
      13    H9      20.804361   19.076492   21.814878 H          1 MOL1         0.0998
      14    C4      18.714037   19.692217   21.829225 C.3        1 MOL1        -0.1302
      15    H10     17.950044   19.970357   22.568835 H          1 MOL1         0.0998
      16    H11     18.355556   18.783883   21.326909 H          1 MOL1         0.0998
      17    C5      18.847899   20.819975   20.783316 C.3        1 MOL1        -0.2317
      18    H12     19.163751   21.760459   21.253387 H          1 MOL1         0.1009
      19    H13     17.887710   21.000498   20.282780 H          1 MOL1         0.1009
      20    H14     19.585045   20.558528   20.012913 H          1 MOL1         0.1009
@<TRIPOS>BOND
    1     1     2    1
    2     1     3    1
    3     1     4    1
    4     1     5    1
    5     5     6    1
    6     5     7    1
    7     7     8    1
    8     7     9    1
    9     7    10    1
   10     5    11    1
   11    11    12    1
   12    11    13    1
   13    11    14    1
   14    14    15    1
   15    14    16    1
   16    14    17    1
   17    17    18    1
   18    17    19    1
   19    17    20    1
@<TRIPOS>SUBSTRUCTURE
       1 MOL1            1 RESIDUE      1      MOL     
@<SCITEGIC>MOL_PROPERTY
VConf Rank
SciTegic.value.IntegerValue
142

@<SCITEGIC>MOL_PROPERTY
Conf_Id
SciTegic.value.IntegerValue
80

@<SCITEGIC>MOL_PROPERTY
Delta U+W
SciTegic.value.DoubleValue
0.460

@<SCITEGIC>MOL_PROPERTY
U+W
SciTegic.value.DoubleValue
-35.817

@<SCITEGIC>MOL_PROPERTY
Grad RMS
SciTegic.value.DoubleValue
0.000000

@<SCITEGIC>MOL_PROPERTY
U
SciTegic.value.DoubleValue
22.495

@<SCITEGIC>MOL_PROPERTY
W
SciTegic.value.DoubleValue
-58.311

@<SCITEGIC>MOL_PROPERTY
W(PB)
SciTegic.value.DoubleValue
-60.259

@<SCITEGIC>MOL_PROPERTY
W(SA)
SciTegic.value.DoubleValue
1.948

@<SCITEGIC>MOL_PROPERTY
Valence
SciTegic.value.DoubleValue
2.419

@<SCITEGIC>MOL_PROPERTY
Coulomb
SciTegic.value.DoubleValue
19.304

@<SCITEGIC>MOL_PROPERTY
VdW
SciTegic.value.DoubleValue
0.772

@<SCITEGIC>MOL_PROPERTY
VdW6
SciTegic.value.DoubleValue
-4.635

@<SCITEGIC>MOL_PROPERTY
VdW12
SciTegic.value.DoubleValue
5.407

@<SCITEGIC>MOL_PROPERTY
Bond
SciTegic.value.DoubleValue
0.149

@<SCITEGIC>MOL_PROPERTY
Angle
SciTegic.value.DoubleValue
1.142

@<SCITEGIC>MOL_PROPERTY
Pdih
SciTegic.value.DoubleValue
1.129

@<SCITEGIC>MOL_PROPERTY
Idih
SciTegic.value.DoubleValue
0.000

@<SCITEGIC>MOL_PROPERTY
Tether
SciTegic.value.DoubleValue
0.000

@<TRIPOS>MOLECULE
guest-s10_confgen4.mol2 : confsearch ligand conformer 143
          20          19           1
SMALL
USER_CHARGES
 
@<TRIPOS>ATOM
       1    N1      19.441134   17.092153   24.295079 N.4        1 MOL1        -0.5937
       2    H1      18.481547   16.737101   24.264395 H          1 MOL1         0.3684
       3    H2      19.522032   17.685442   25.124628 H          1 MOL1         0.3684
       4    H3      20.056971   16.286843   24.435917 H          1 MOL1         0.3684
       5    C1      19.796023   17.844278   23.041639 C.3        1 MOL1         0.1270
       6    H4      19.687063   17.133327   22.216730 H          1 MOL1         0.0960
       7    C2      21.265101   18.297759   23.090849 C.3        1 MOL1        -0.2382
       8    H5      21.921307   17.458158   23.350865 H          1 MOL1         0.1009
       9    H6      21.412810   19.089312   23.835886 H          1 MOL1         0.1009
      10    H7      21.593517   18.671382   22.114348 H          1 MOL1         0.1009
      11    C3      18.812706   19.015433   22.799113 C.3        1 MOL1        -0.1392
      12    H8      17.796074   18.600921   22.817330 H          1 MOL1         0.0998
      13    H9      18.858991   19.728556   23.632805 H          1 MOL1         0.0998
      14    C4      18.996127   19.756368   21.448182 C.3        1 MOL1        -0.1302
      15    H10     18.004835   20.037173   21.065290 H          1 MOL1         0.0998
      16    H11     19.428116   19.080269   20.697021 H          1 MOL1         0.0998
      17    C5      19.843537   21.045377   21.563876 C.3        1 MOL1        -0.2317
      18    H12     19.378616   21.759195   22.256285 H          1 MOL1         0.1009
      19    H13     19.928384   21.538126   20.586643 H          1 MOL1         0.1009
      20    H14     20.858942   20.841890   21.921768 H          1 MOL1         0.1009
@<TRIPOS>BOND
    1     1     2    1
    2     1     3    1
    3     1     4    1
    4     1     5    1
    5     5     6    1
    6     5     7    1
    7     7     8    1
    8     7     9    1
    9     7    10    1
   10     5    11    1
   11    11    12    1
   12    11    13    1
   13    11    14    1
   14    14    15    1
   15    14    16    1
   16    14    17    1
   17    17    18    1
   18    17    19    1
   19    17    20    1
@<TRIPOS>SUBSTRUCTURE
       1 MOL1            1 RESIDUE      1      MOL     
@<SCITEGIC>MOL_PROPERTY
VConf Rank
SciTegic.value.IntegerValue
143

@<SCITEGIC>MOL_PROPERTY
Conf_Id
SciTegic.value.IntegerValue
52

@<SCITEGIC>MOL_PROPERTY
Delta U+W
SciTegic.value.DoubleValue
2.995

@<SCITEGIC>MOL_PROPERTY
U+W
SciTegic.value.DoubleValue
-33.282

@<SCITEGIC>MOL_PROPERTY
Grad RMS
SciTegic.value.DoubleValue
0.000000

@<SCITEGIC>MOL_PROPERTY
U
SciTegic.value.DoubleValue
25.224

@<SCITEGIC>MOL_PROPERTY
W
SciTegic.value.DoubleValue
-58.506

@<SCITEGIC>MOL_PROPERTY
W(PB)
SciTegic.value.DoubleValue
-60.411

@<SCITEGIC>MOL_PROPERTY
W(SA)
SciTegic.value.DoubleValue
1.905

@<SCITEGIC>MOL_PROPERTY
Valence
SciTegic.value.DoubleValue
4.945

@<SCITEGIC>MOL_PROPERTY
Coulomb
SciTegic.value.DoubleValue
19.467

@<SCITEGIC>MOL_PROPERTY
VdW
SciTegic.value.DoubleValue
0.813

@<SCITEGIC>MOL_PROPERTY
VdW6
SciTegic.value.DoubleValue
-5.458

@<SCITEGIC>MOL_PROPERTY
VdW12
SciTegic.value.DoubleValue
6.270

@<SCITEGIC>MOL_PROPERTY
Bond
SciTegic.value.DoubleValue
0.200

@<SCITEGIC>MOL_PROPERTY
Angle
SciTegic.value.DoubleValue
1.675

@<SCITEGIC>MOL_PROPERTY
Pdih
SciTegic.value.DoubleValue
3.070

@<SCITEGIC>MOL_PROPERTY
Idih
SciTegic.value.DoubleValue
0.000

@<SCITEGIC>MOL_PROPERTY
Tether
SciTegic.value.DoubleValue
0.000

@<TRIPOS>MOLECULE
guest-s10_confgen4.mol2 : confsearch ligand conformer 144
          20          19           1
SMALL
USER_CHARGES
 
@<TRIPOS>ATOM
       1    N1      20.448441   17.986781   23.789027 N.4        1 MOL1        -0.5937
       2    H1      20.866835   17.261292   23.201670 H          1 MOL1         0.3684
       3    H2      20.332280   17.592429   24.726385 H          1 MOL1         0.3684
       4    H3      21.122913   18.751923   23.857088 H          1 MOL1         0.3684
       5    C1      19.138118   18.462467   23.223318 C.3        1 MOL1         0.1270
       6    H4      18.731167   19.196224   23.925974 H          1 MOL1         0.0960
       7    C2      18.151723   17.285852   23.131876 C.3        1 MOL1        -0.2382
       8    H5      18.505636   16.524974   22.425004 H          1 MOL1         0.1009
       9    H6      17.163967   17.628403   22.799247 H          1 MOL1         0.1009
      10    H7      18.023327   16.809135   24.111463 H          1 MOL1         0.1009
      11    C3      19.293046   19.144986   21.843318 C.3        1 MOL1        -0.1392
      12    H8      19.925784   18.529665   21.190174 H          1 MOL1         0.0998
      13    H9      18.308318   19.181602   21.358495 H          1 MOL1         0.0998
      14    C4      19.831801   20.598881   21.893719 C.3        1 MOL1        -0.1302
      15    H10     19.166652   21.218997   22.511026 H          1 MOL1         0.0998
      16    H11     19.780301   21.018172   20.879042 H          1 MOL1         0.0998
      17    C5      21.284649   20.735782   22.403325 C.3        1 MOL1        -0.2317
      18    H12     21.656191   21.752426   22.219809 H          1 MOL1         0.1009
      19    H13     21.956851   20.038462   21.886406 H          1 MOL1         0.1009
      20    H14     21.352390   20.561816   23.483411 H          1 MOL1         0.1009
@<TRIPOS>BOND
    1     1     2    1
    2     1     3    1
    3     1     4    1
    4     1     5    1
    5     5     6    1
    6     5     7    1
    7     7     8    1
    8     7     9    1
    9     7    10    1
   10     5    11    1
   11    11    12    1
   12    11    13    1
   13    11    14    1
   14    14    15    1
   15    14    16    1
   16    14    17    1
   17    17    18    1
   18    17    19    1
   19    17    20    1
@<TRIPOS>SUBSTRUCTURE
       1 MOL1            1 RESIDUE      1      MOL     
@<SCITEGIC>MOL_PROPERTY
VConf Rank
SciTegic.value.IntegerValue
144

@<SCITEGIC>MOL_PROPERTY
Conf_Id
SciTegic.value.IntegerValue
54

@<SCITEGIC>MOL_PROPERTY
Delta U+W
SciTegic.value.DoubleValue
2.752

@<SCITEGIC>MOL_PROPERTY
U+W
SciTegic.value.DoubleValue
-33.525

@<SCITEGIC>MOL_PROPERTY
Grad RMS
SciTegic.value.DoubleValue
0.000000

@<SCITEGIC>MOL_PROPERTY
U
SciTegic.value.DoubleValue
24.337

@<SCITEGIC>MOL_PROPERTY
W
SciTegic.value.DoubleValue
-57.862

@<SCITEGIC>MOL_PROPERTY
W(PB)
SciTegic.value.DoubleValue
-59.764

@<SCITEGIC>MOL_PROPERTY
W(SA)
SciTegic.value.DoubleValue
1.901

@<SCITEGIC>MOL_PROPERTY
Valence
SciTegic.value.DoubleValue
3.593

@<SCITEGIC>MOL_PROPERTY
Coulomb
SciTegic.value.DoubleValue
20.067

@<SCITEGIC>MOL_PROPERTY
VdW
SciTegic.value.DoubleValue
0.677

@<SCITEGIC>MOL_PROPERTY
VdW6
SciTegic.value.DoubleValue
-5.466

@<SCITEGIC>MOL_PROPERTY
VdW12
SciTegic.value.DoubleValue
6.144

@<SCITEGIC>MOL_PROPERTY
Bond
SciTegic.value.DoubleValue
0.191

@<SCITEGIC>MOL_PROPERTY
Angle
SciTegic.value.DoubleValue
1.557

@<SCITEGIC>MOL_PROPERTY
Pdih
SciTegic.value.DoubleValue
1.845

@<SCITEGIC>MOL_PROPERTY
Idih
SciTegic.value.DoubleValue
0.000

@<SCITEGIC>MOL_PROPERTY
Tether
SciTegic.value.DoubleValue
0.000

@<TRIPOS>MOLECULE
guest-s10_confgen4.mol2 : confsearch ligand conformer 145
          20          19           1
SMALL
USER_CHARGES
 
@<TRIPOS>ATOM
       1    N1      18.423646   18.674077   24.249902 N.4        1 MOL1        -0.5937
       2    H1      17.629468   19.085659   24.747433 H          1 MOL1         0.3684
       3    H2      18.944504   18.107834   24.925023 H          1 MOL1         0.3684
       4    H3      18.045395   18.039234   23.543255 H          1 MOL1         0.3684
       5    C1      19.293167   19.733321   23.628758 C.3        1 MOL1         0.1270
       6    H4      19.633351   20.367534   24.453422 H          1 MOL1         0.0960
       7    C2      18.482751   20.619628   22.666194 C.3        1 MOL1        -0.2382
       8    H5      19.120493   21.389323   22.214170 H          1 MOL1         0.1009
       9    H6      17.675451   21.131501   23.204097 H          1 MOL1         0.1009
      10    H7      18.027552   20.032875   21.859623 H          1 MOL1         0.1009
      11    C3      20.555040   19.143914   22.953977 C.3        1 MOL1        -0.1392
      12    H8      21.186460   19.970911   22.603092 H          1 MOL1         0.0998
      13    H9      21.143748   18.618934   23.717669 H          1 MOL1         0.0998
      14    C4      20.275480   18.177417   21.774115 C.3        1 MOL1        -0.1302
      15    H10     19.731316   18.699524   20.975803 H          1 MOL1         0.0998
      16    H11     19.636450   17.348260   22.106231 H          1 MOL1         0.0998
      17    C5      21.584020   17.601483   21.191577 C.3        1 MOL1        -0.2317
      18    H12     21.370517   16.921480   20.356664 H          1 MOL1         0.1009
      19    H13     22.140242   17.036842   21.951194 H          1 MOL1         0.1009
      20    H14     22.235028   18.401551   20.815673 H          1 MOL1         0.1009
@<TRIPOS>BOND
    1     1     2    1
    2     1     3    1
    3     1     4    1
    4     1     5    1
    5     5     6    1
    6     5     7    1
    7     7     8    1
    8     7     9    1
    9     7    10    1
   10     5    11    1
   11    11    12    1
   12    11    13    1
   13    11    14    1
   14    14    15    1
   15    14    16    1
   16    14    17    1
   17    17    18    1
   18    17    19    1
   19    17    20    1
@<TRIPOS>SUBSTRUCTURE
       1 MOL1            1 RESIDUE      1      MOL     
@<SCITEGIC>MOL_PROPERTY
VConf Rank
SciTegic.value.IntegerValue
145

@<SCITEGIC>MOL_PROPERTY
Conf_Id
SciTegic.value.IntegerValue
63

@<SCITEGIC>MOL_PROPERTY
Delta U+W
SciTegic.value.DoubleValue
0.420

@<SCITEGIC>MOL_PROPERTY
U+W
SciTegic.value.DoubleValue
-35.856

@<SCITEGIC>MOL_PROPERTY
Grad RMS
SciTegic.value.DoubleValue
0.000000

@<SCITEGIC>MOL_PROPERTY
U
SciTegic.value.DoubleValue
22.625

@<SCITEGIC>MOL_PROPERTY
W
SciTegic.value.DoubleValue
-58.481

@<SCITEGIC>MOL_PROPERTY
W(PB)
SciTegic.value.DoubleValue
-60.400

@<SCITEGIC>MOL_PROPERTY
W(SA)
SciTegic.value.DoubleValue
1.919

@<SCITEGIC>MOL_PROPERTY
Valence
SciTegic.value.DoubleValue
2.404

@<SCITEGIC>MOL_PROPERTY
Coulomb
SciTegic.value.DoubleValue
19.464

@<SCITEGIC>MOL_PROPERTY
VdW
SciTegic.value.DoubleValue
0.757

@<SCITEGIC>MOL_PROPERTY
VdW6
SciTegic.value.DoubleValue
-5.074

@<SCITEGIC>MOL_PROPERTY
VdW12
SciTegic.value.DoubleValue
5.830

@<SCITEGIC>MOL_PROPERTY
Bond
SciTegic.value.DoubleValue
0.172

@<SCITEGIC>MOL_PROPERTY
Angle
SciTegic.value.DoubleValue
1.207

@<SCITEGIC>MOL_PROPERTY
Pdih
SciTegic.value.DoubleValue
1.025

@<SCITEGIC>MOL_PROPERTY
Idih
SciTegic.value.DoubleValue
0.000

@<SCITEGIC>MOL_PROPERTY
Tether
SciTegic.value.DoubleValue
0.000

@<TRIPOS>MOLECULE
guest-s10_confgen4.mol2 : confsearch ligand conformer 146
          20          19           1
SMALL
USER_CHARGES
 
@<TRIPOS>ATOM
       1    N1      18.346832   17.856138   23.061044 N.4        1 MOL1        -0.5937
       2    H1      18.478187   17.583212   22.083735 H          1 MOL1         0.3684
       3    H2      17.461478   18.364857   23.122482 H          1 MOL1         0.3684
       4    H3      18.244426   16.996725   23.607363 H          1 MOL1         0.3684
       5    C1      19.497419   18.690542   23.555107 C.3        1 MOL1         0.1270
       6    H4      20.396889   18.075174   23.458127 H          1 MOL1         0.0960
       7    C2      19.315628   19.040775   25.040974 C.3        1 MOL1        -0.2382
       8    H5      19.213920   18.130730   25.644887 H          1 MOL1         0.1009
       9    H6      18.421287   19.656653   25.197820 H          1 MOL1         0.1009
      10    H7      20.183084   19.595591   25.419555 H          1 MOL1         0.1009
      11    C3      19.697104   19.975652   22.719882 C.3        1 MOL1        -0.1392
      12    H8      18.809857   20.615227   22.817707 H          1 MOL1         0.0998
      13    H9      20.535120   20.547875   23.139665 H          1 MOL1         0.0998
      14    C4      19.974010   19.719544   21.216675 C.3        1 MOL1        -0.1302
      15    H10     20.096510   20.687567   20.710880 H          1 MOL1         0.0998
      16    H11     19.104227   19.241474   20.746046 H          1 MOL1         0.0998
      17    C5      21.236834   18.862759   20.970582 C.3        1 MOL1        -0.2317
      18    H12     22.120856   19.321388   21.432474 H          1 MOL1         0.1009
      19    H13     21.433186   18.767515   19.894737 H          1 MOL1         0.1009
      20    H14     21.124504   17.849735   21.376859 H          1 MOL1         0.1009
@<TRIPOS>BOND
    1     1     2    1
    2     1     3    1
    3     1     4    1
    4     1     5    1
    5     5     6    1
    6     5     7    1
    7     7     8    1
    8     7     9    1
    9     7    10    1
   10     5    11    1
   11    11    12    1
   12    11    13    1
   13    11    14    1
   14    14    15    1
   15    14    16    1
   16    14    17    1
   17    17    18    1
   18    17    19    1
   19    17    20    1
@<TRIPOS>SUBSTRUCTURE
       1 MOL1            1 RESIDUE      1      MOL     
@<SCITEGIC>MOL_PROPERTY
VConf Rank
SciTegic.value.IntegerValue
146

@<SCITEGIC>MOL_PROPERTY
Conf_Id
SciTegic.value.IntegerValue
50

@<SCITEGIC>MOL_PROPERTY
Delta U+W
SciTegic.value.DoubleValue
0.466

@<SCITEGIC>MOL_PROPERTY
U+W
SciTegic.value.DoubleValue
-35.811

@<SCITEGIC>MOL_PROPERTY
Grad RMS
SciTegic.value.DoubleValue
0.000000

@<SCITEGIC>MOL_PROPERTY
U
SciTegic.value.DoubleValue
22.369

@<SCITEGIC>MOL_PROPERTY
W
SciTegic.value.DoubleValue
-58.180

@<SCITEGIC>MOL_PROPERTY
W(PB)
SciTegic.value.DoubleValue
-60.103

@<SCITEGIC>MOL_PROPERTY
W(SA)
SciTegic.value.DoubleValue
1.923

@<SCITEGIC>MOL_PROPERTY
Valence
SciTegic.value.DoubleValue
2.168

@<SCITEGIC>MOL_PROPERTY
Coulomb
SciTegic.value.DoubleValue
19.636

@<SCITEGIC>MOL_PROPERTY
VdW
SciTegic.value.DoubleValue
0.566

@<SCITEGIC>MOL_PROPERTY
VdW6
SciTegic.value.DoubleValue
-5.263

@<SCITEGIC>MOL_PROPERTY
VdW12
SciTegic.value.DoubleValue
5.829

@<SCITEGIC>MOL_PROPERTY
Bond
SciTegic.value.DoubleValue
0.162

@<SCITEGIC>MOL_PROPERTY
Angle
SciTegic.value.DoubleValue
1.066

@<SCITEGIC>MOL_PROPERTY
Pdih
SciTegic.value.DoubleValue
0.939

@<SCITEGIC>MOL_PROPERTY
Idih
SciTegic.value.DoubleValue
0.000

@<SCITEGIC>MOL_PROPERTY
Tether
SciTegic.value.DoubleValue
0.000

@<TRIPOS>MOLECULE
guest-s10_confgen4.mol2 : confsearch ligand conformer 147
          20          19           1
SMALL
USER_CHARGES
 
@<TRIPOS>ATOM
       1    N1      21.522695   17.713080   23.534698 N.4        1 MOL1        -0.5937
       2    H1      21.214440   16.736947   23.546531 H          1 MOL1         0.3684
       3    H2      21.669393   18.000700   24.505587 H          1 MOL1         0.3684
       4    H3      22.434147   17.736501   23.069464 H          1 MOL1         0.3684
       5    C1      20.526559   18.601302   22.839460 C.3        1 MOL1         0.1270
       6    H4      20.435173   18.216299   21.819076 H          1 MOL1         0.0960
       7    C2      21.061170   20.044290   22.776707 C.3        1 MOL1        -0.2382
       8    H5      21.212955   20.453640   23.783216 H          1 MOL1         0.1009
       9    H6      20.370149   20.707234   22.244932 H          1 MOL1         0.1009
      10    H7      22.022307   20.077480   22.249220 H          1 MOL1         0.1009
      11    C3      19.130129   18.536312   23.505788 C.3        1 MOL1        -0.1392
      12    H8      19.076754   17.643031   24.142084 H          1 MOL1         0.0998
      13    H9      18.987725   19.389663   24.182194 H          1 MOL1         0.0998
      14    C4      17.956626   18.454421   22.496845 C.3        1 MOL1        -0.1302
      15    H10     17.019377   18.333458   23.057973 H          1 MOL1         0.0998
      16    H11     18.063053   17.549393   21.882290 H          1 MOL1         0.0998
      17    C5      17.828135   19.687377   21.575138 C.3        1 MOL1        -0.2317
      18    H12     17.762787   20.614208   22.159725 H          1 MOL1         0.1009
      19    H13     16.920847   19.614333   20.961514 H          1 MOL1         0.1009
      20    H14     18.681259   19.766378   20.889888 H          1 MOL1         0.1009
@<TRIPOS>BOND
    1     1     2    1
    2     1     3    1
    3     1     4    1
    4     1     5    1
    5     5     6    1
    6     5     7    1
    7     7     8    1
    8     7     9    1
    9     7    10    1
   10     5    11    1
   11    11    12    1
   12    11    13    1
   13    11    14    1
   14    14    15    1
   15    14    16    1
   16    14    17    1
   17    17    18    1
   18    17    19    1
   19    17    20    1
@<TRIPOS>SUBSTRUCTURE
       1 MOL1            1 RESIDUE      1      MOL     
@<SCITEGIC>MOL_PROPERTY
VConf Rank
SciTegic.value.IntegerValue
147

@<SCITEGIC>MOL_PROPERTY
Conf_Id
SciTegic.value.IntegerValue
3

@<SCITEGIC>MOL_PROPERTY
Delta U+W
SciTegic.value.DoubleValue
3.093

@<SCITEGIC>MOL_PROPERTY
U+W
SciTegic.value.DoubleValue
-33.184

@<SCITEGIC>MOL_PROPERTY
Grad RMS
SciTegic.value.DoubleValue
0.000000

@<SCITEGIC>MOL_PROPERTY
U
SciTegic.value.DoubleValue
25.256

@<SCITEGIC>MOL_PROPERTY
W
SciTegic.value.DoubleValue
-58.439

@<SCITEGIC>MOL_PROPERTY
W(PB)
SciTegic.value.DoubleValue
-60.337

@<SCITEGIC>MOL_PROPERTY
W(SA)
SciTegic.value.DoubleValue
1.898

@<SCITEGIC>MOL_PROPERTY
Valence
SciTegic.value.DoubleValue
4.963

@<SCITEGIC>MOL_PROPERTY
Coulomb
SciTegic.value.DoubleValue
19.511

@<SCITEGIC>MOL_PROPERTY
VdW
SciTegic.value.DoubleValue
0.782

@<SCITEGIC>MOL_PROPERTY
VdW6
SciTegic.value.DoubleValue
-5.429

@<SCITEGIC>MOL_PROPERTY
VdW12
SciTegic.value.DoubleValue
6.211

@<SCITEGIC>MOL_PROPERTY
Bond
SciTegic.value.DoubleValue
0.174

@<SCITEGIC>MOL_PROPERTY
Angle
SciTegic.value.DoubleValue
1.377

@<SCITEGIC>MOL_PROPERTY
Pdih
SciTegic.value.DoubleValue
3.412

@<SCITEGIC>MOL_PROPERTY
Idih
SciTegic.value.DoubleValue
0.000

@<SCITEGIC>MOL_PROPERTY
Tether
SciTegic.value.DoubleValue
0.000

@<TRIPOS>MOLECULE
guest-s10_confgen4.mol2 : confsearch ligand conformer 148
          20          19           1
SMALL
USER_CHARGES
 
@<TRIPOS>ATOM
       1    N1      18.755136   18.015855   24.634981 N.4        1 MOL1        -0.5937
       2    H1      19.141436   17.188613   25.097666 H          1 MOL1         0.3684
       3    H2      17.803963   17.780231   24.339038 H          1 MOL1         0.3684
       4    H3      18.682590   18.752801   25.340908 H          1 MOL1         0.3684
       5    C1      19.607897   18.445778   23.472937 C.3        1 MOL1         0.1270
       6    H4      19.629825   17.599907   22.779310 H          1 MOL1         0.0960
       7    C2      21.047170   18.728425   23.940598 C.3        1 MOL1        -0.2382
       8    H5      21.714127   18.906951   23.089227 H          1 MOL1         0.1009
       9    H6      21.449563   17.870863   24.493590 H          1 MOL1         0.1009
      10    H7      21.086067   19.605864   24.597923 H          1 MOL1         0.1009
      11    C3      18.986110   19.658824   22.740592 C.3        1 MOL1        -0.1392
      12    H8      17.939078   19.427649   22.504353 H          1 MOL1         0.0998
      13    H9      18.961485   20.520424   23.420866 H          1 MOL1         0.0998
      14    C4      19.702487   20.069892   21.428749 C.3        1 MOL1        -0.1302
      15    H10     20.715141   20.435772   21.645399 H          1 MOL1         0.0998
      16    H11     19.164918   20.920019   20.985869 H          1 MOL1         0.0998
      17    C5      19.770973   18.925796   20.391683 C.3        1 MOL1        -0.2317
      18    H12     18.768917   18.541339   20.160954 H          1 MOL1         0.1009
      19    H13     20.384684   18.090739   20.752380 H          1 MOL1         0.1009
      20    H14     20.216740   19.282722   19.454180 H          1 MOL1         0.1009
@<TRIPOS>BOND
    1     1     2    1
    2     1     3    1
    3     1     4    1
    4     1     5    1
    5     5     6    1
    6     5     7    1
    7     7     8    1
    8     7     9    1
    9     7    10    1
   10     5    11    1
   11    11    12    1
   12    11    13    1
   13    11    14    1
   14    14    15    1
   15    14    16    1
   16    14    17    1
   17    17    18    1
   18    17    19    1
   19    17    20    1
@<TRIPOS>SUBSTRUCTURE
       1 MOL1            1 RESIDUE      1      MOL     
@<SCITEGIC>MOL_PROPERTY
VConf Rank
SciTegic.value.IntegerValue
148

@<SCITEGIC>MOL_PROPERTY
Conf_Id
SciTegic.value.IntegerValue
64

@<SCITEGIC>MOL_PROPERTY
Delta U+W
SciTegic.value.DoubleValue
0.544

@<SCITEGIC>MOL_PROPERTY
U+W
SciTegic.value.DoubleValue
-35.732

@<SCITEGIC>MOL_PROPERTY
Grad RMS
SciTegic.value.DoubleValue
0.000000

@<SCITEGIC>MOL_PROPERTY
U
SciTegic.value.DoubleValue
22.800

@<SCITEGIC>MOL_PROPERTY
W
SciTegic.value.DoubleValue
-58.532

@<SCITEGIC>MOL_PROPERTY
W(PB)
SciTegic.value.DoubleValue
-60.437

@<SCITEGIC>MOL_PROPERTY
W(SA)
SciTegic.value.DoubleValue
1.905

@<SCITEGIC>MOL_PROPERTY
Valence
SciTegic.value.DoubleValue
2.662

@<SCITEGIC>MOL_PROPERTY
Coulomb
SciTegic.value.DoubleValue
19.485

@<SCITEGIC>MOL_PROPERTY
VdW
SciTegic.value.DoubleValue
0.653

@<SCITEGIC>MOL_PROPERTY
VdW6
SciTegic.value.DoubleValue
-5.460

@<SCITEGIC>MOL_PROPERTY
VdW12
SciTegic.value.DoubleValue
6.113

@<SCITEGIC>MOL_PROPERTY
Bond
SciTegic.value.DoubleValue
0.174

@<SCITEGIC>MOL_PROPERTY
Angle
SciTegic.value.DoubleValue
1.378

@<SCITEGIC>MOL_PROPERTY
Pdih
SciTegic.value.DoubleValue
1.109

@<SCITEGIC>MOL_PROPERTY
Idih
SciTegic.value.DoubleValue
0.000

@<SCITEGIC>MOL_PROPERTY
Tether
SciTegic.value.DoubleValue
0.000

@<TRIPOS>MOLECULE
guest-s10_confgen4.mol2 : confsearch ligand conformer 149
          20          19           1
SMALL
USER_CHARGES
 
@<TRIPOS>ATOM
       1    N1      17.776464   19.503631   22.995518 N.4        1 MOL1        -0.5937
       2    H1      17.819581   19.408914   21.978442 H          1 MOL1         0.3684
       3    H2      17.318985   20.396053   23.200235 H          1 MOL1         0.3684
       4    H3      17.165548   18.761673   23.347568 H          1 MOL1         0.3684
       5    C1      19.146570   19.432908   23.614096 C.3        1 MOL1         0.1270
       6    H4      18.995144   19.554510   24.691243 H          1 MOL1         0.0960
       7    C2      20.023607   20.602790   23.138798 C.3        1 MOL1        -0.2382
       8    H5      20.108040   20.623195   22.046020 H          1 MOL1         0.1009
       9    H6      21.031552   20.534684   23.566288 H          1 MOL1         0.1009
      10    H7      19.591357   21.559203   23.457239 H          1 MOL1         0.1009
      11    C3      19.816864   18.051546   23.405562 C.3        1 MOL1        -0.1392
      12    H8      20.726579   17.992080   24.017428 H          1 MOL1         0.0998
      13    H9      19.140523   17.292906   23.820903 H          1 MOL1         0.0998
      14    C4      20.143156   17.661012   21.937147 C.3        1 MOL1        -0.1302
      15    H10     19.418315   18.106096   21.242968 H          1 MOL1         0.0998
      16    H11     20.026233   16.573007   21.834403 H          1 MOL1         0.0998
      17    C5      21.584105   18.023260   21.506812 C.3        1 MOL1        -0.2317
      18    H12     21.766512   19.102911   21.539360 H          1 MOL1         0.1009
      19    H13     21.772940   17.687267   20.478991 H          1 MOL1         0.1009
      20    H14     22.322542   17.535299   22.156155 H          1 MOL1         0.1009
@<TRIPOS>BOND
    1     1     2    1
    2     1     3    1
    3     1     4    1
    4     1     5    1
    5     5     6    1
    6     5     7    1
    7     7     8    1
    8     7     9    1
    9     7    10    1
   10     5    11    1
   11    11    12    1
   12    11    13    1
   13    11    14    1
   14    14    15    1
   15    14    16    1
   16    14    17    1
   17    17    18    1
   18    17    19    1
   19    17    20    1
@<TRIPOS>SUBSTRUCTURE
       1 MOL1            1 RESIDUE      1      MOL     
@<SCITEGIC>MOL_PROPERTY
VConf Rank
SciTegic.value.IntegerValue
149

@<SCITEGIC>MOL_PROPERTY
Conf_Id
SciTegic.value.IntegerValue
35

@<SCITEGIC>MOL_PROPERTY
Delta U+W
SciTegic.value.DoubleValue
3.004

@<SCITEGIC>MOL_PROPERTY
U+W
SciTegic.value.DoubleValue
-33.272

@<SCITEGIC>MOL_PROPERTY
Grad RMS
SciTegic.value.DoubleValue
0.000000

@<SCITEGIC>MOL_PROPERTY
U
SciTegic.value.DoubleValue
25.367

@<SCITEGIC>MOL_PROPERTY
W
SciTegic.value.DoubleValue
-58.639

@<SCITEGIC>MOL_PROPERTY
W(PB)
SciTegic.value.DoubleValue
-60.512

@<SCITEGIC>MOL_PROPERTY
W(SA)
SciTegic.value.DoubleValue
1.873

@<SCITEGIC>MOL_PROPERTY
Valence
SciTegic.value.DoubleValue
4.943

@<SCITEGIC>MOL_PROPERTY
Coulomb
SciTegic.value.DoubleValue
19.661

@<SCITEGIC>MOL_PROPERTY
VdW
SciTegic.value.DoubleValue
0.764

@<SCITEGIC>MOL_PROPERTY
VdW6
SciTegic.value.DoubleValue
-5.871

@<SCITEGIC>MOL_PROPERTY
VdW12
SciTegic.value.DoubleValue
6.636

@<SCITEGIC>MOL_PROPERTY
Bond
SciTegic.value.DoubleValue
0.230

@<SCITEGIC>MOL_PROPERTY
Angle
SciTegic.value.DoubleValue
1.857

@<SCITEGIC>MOL_PROPERTY
Pdih
SciTegic.value.DoubleValue
2.855

@<SCITEGIC>MOL_PROPERTY
Idih
SciTegic.value.DoubleValue
0.000

@<SCITEGIC>MOL_PROPERTY
Tether
SciTegic.value.DoubleValue
0.000

@<TRIPOS>MOLECULE
guest-s10_confgen4.mol2 : confsearch ligand conformer 150
          20          19           1
SMALL
USER_CHARGES
 
@<TRIPOS>ATOM
       1    N1      18.976165   20.520249   22.992171 N.4        1 MOL1        -0.5937
       2    H1      19.073821   21.503131   22.723828 H          1 MOL1         0.3684
       3    H2      18.369295   20.488200   23.815739 H          1 MOL1         0.3684
       4    H3      18.488736   20.038884   22.234083 H          1 MOL1         0.3684
       5    C1      20.312788   19.887956   23.268046 C.3        1 MOL1         0.1270
       6    H4      20.734435   20.455777   24.103343 H          1 MOL1         0.0960
       7    C2      21.269012   20.052397   22.073430 C.3        1 MOL1        -0.2382
       8    H5      20.867148   19.586292   21.165936 H          1 MOL1         0.1009
       9    H6      22.244123   19.599168   22.290598 H          1 MOL1         0.1009
      10    H7      21.436554   21.114854   21.858765 H          1 MOL1         0.1009
      11    C3      20.202256   18.414805   23.738068 C.3        1 MOL1        -0.1392
      12    H8      21.157241   18.143043   24.206781 H          1 MOL1         0.0998
      13    H9      19.456377   18.352986   24.541224 H          1 MOL1         0.0998
      14    C4      19.881990   17.343811   22.657791 C.3        1 MOL1        -0.1302
      15    H10     19.884596   16.358917   23.145441 H          1 MOL1         0.0998
      16    H11     20.686063   17.304216   21.910442 H          1 MOL1         0.0998
      17    C5      18.521523   17.529658   21.948204 C.3        1 MOL1        -0.2317
      18    H12     17.708001   17.658409   22.673977 H          1 MOL1         0.1009
      19    H13     18.287075   16.646765   21.339349 H          1 MOL1         0.1009
      20    H14     18.533409   18.392026   21.271855 H          1 MOL1         0.1009
@<TRIPOS>BOND
    1     1     2    1
    2     1     3    1
    3     1     4    1
    4     1     5    1
    5     5     6    1
    6     5     7    1
    7     7     8    1
    8     7     9    1
    9     7    10    1
   10     5    11    1
   11    11    12    1
   12    11    13    1
   13    11    14    1
   14    14    15    1
   15    14    16    1
   16    14    17    1
   17    17    18    1
   18    17    19    1
   19    17    20    1
@<TRIPOS>SUBSTRUCTURE
       1 MOL1            1 RESIDUE      1      MOL     
@<SCITEGIC>MOL_PROPERTY
VConf Rank
SciTegic.value.IntegerValue
150

@<SCITEGIC>MOL_PROPERTY
Conf_Id
SciTegic.value.IntegerValue
55

@<SCITEGIC>MOL_PROPERTY
Delta U+W
SciTegic.value.DoubleValue
2.767

@<SCITEGIC>MOL_PROPERTY
U+W
SciTegic.value.DoubleValue
-33.509

@<SCITEGIC>MOL_PROPERTY
Grad RMS
SciTegic.value.DoubleValue
0.000000

@<SCITEGIC>MOL_PROPERTY
U
SciTegic.value.DoubleValue
24.552

@<SCITEGIC>MOL_PROPERTY
W
SciTegic.value.DoubleValue
-58.061

@<SCITEGIC>MOL_PROPERTY
W(PB)
SciTegic.value.DoubleValue
-59.930

@<SCITEGIC>MOL_PROPERTY
W(SA)
SciTegic.value.DoubleValue
1.869

@<SCITEGIC>MOL_PROPERTY
Valence
SciTegic.value.DoubleValue
3.726

@<SCITEGIC>MOL_PROPERTY
Coulomb
SciTegic.value.DoubleValue
20.219

@<SCITEGIC>MOL_PROPERTY
VdW
SciTegic.value.DoubleValue
0.606

@<SCITEGIC>MOL_PROPERTY
VdW6
SciTegic.value.DoubleValue
-6.395

@<SCITEGIC>MOL_PROPERTY
VdW12
SciTegic.value.DoubleValue
7.001

@<SCITEGIC>MOL_PROPERTY
Bond
SciTegic.value.DoubleValue
0.241

@<SCITEGIC>MOL_PROPERTY
Angle
SciTegic.value.DoubleValue
2.098

@<SCITEGIC>MOL_PROPERTY
Pdih
SciTegic.value.DoubleValue
1.387

@<SCITEGIC>MOL_PROPERTY
Idih
SciTegic.value.DoubleValue
0.000

@<SCITEGIC>MOL_PROPERTY
Tether
SciTegic.value.DoubleValue
0.000

@<TRIPOS>MOLECULE
guest-s10_confgen4.mol2 : confsearch ligand conformer 151
          20          19           1
SMALL
USER_CHARGES
 
@<TRIPOS>ATOM
       1    N1      18.905144   17.522994   21.655638 N.4        1 MOL1        -0.5937
       2    H1      18.086306   18.050985   21.343748 H          1 MOL1         0.3684
       3    H2      18.657788   16.530243   21.625359 H          1 MOL1         0.3684
       4    H3      19.647576   17.672038   20.967771 H          1 MOL1         0.3684
       5    C1      19.338140   17.940912   23.035102 C.3        1 MOL1         0.1270
       6    H4      20.214205   17.335199   23.287114 H          1 MOL1         0.0960
       7    C2      18.233956   17.640339   24.061943 C.3        1 MOL1        -0.2382
       8    H5      17.966918   16.576538   24.045133 H          1 MOL1         0.1009
       9    H6      17.328157   18.223396   23.853698 H          1 MOL1         0.1009
      10    H7      18.569710   17.882321   25.077990 H          1 MOL1         0.1009
      11    C3      19.744594   19.429599   23.104056 C.3        1 MOL1        -0.1392
      12    H8      18.887578   20.059932   22.831808 H          1 MOL1         0.0998
      13    H9      19.999133   19.679461   24.142732 H          1 MOL1         0.0998
      14    C4      20.952915   19.770119   22.198779 C.3        1 MOL1        -0.1302
      15    H10     20.703646   19.581715   21.145786 H          1 MOL1         0.0998
      16    H11     21.798869   19.114003   22.448009 H          1 MOL1         0.0998
      17    C5      21.385569   21.243668   22.356153 C.3        1 MOL1        -0.2317
      18    H12     20.569545   21.926043   22.084632 H          1 MOL1         0.1009
      19    H13     22.241749   21.467851   21.706704 H          1 MOL1         0.1009
      20    H14     21.682506   21.460569   23.390569 H          1 MOL1         0.1009
@<TRIPOS>BOND
    1     1     2    1
    2     1     3    1
    3     1     4    1
    4     1     5    1
    5     5     6    1
    6     5     7    1
    7     7     8    1
    8     7     9    1
    9     7    10    1
   10     5    11    1
   11    11    12    1
   12    11    13    1
   13    11    14    1
   14    14    15    1
   15    14    16    1
   16    14    17    1
   17    17    18    1
   18    17    19    1
   19    17    20    1
@<TRIPOS>SUBSTRUCTURE
       1 MOL1            1 RESIDUE      1      MOL     
@<SCITEGIC>MOL_PROPERTY
VConf Rank
SciTegic.value.IntegerValue
151

@<SCITEGIC>MOL_PROPERTY
Conf_Id
SciTegic.value.IntegerValue
74

@<SCITEGIC>MOL_PROPERTY
Delta U+W
SciTegic.value.DoubleValue
0.000

@<SCITEGIC>MOL_PROPERTY
U+W
SciTegic.value.DoubleValue
-36.276

@<SCITEGIC>MOL_PROPERTY
Grad RMS
SciTegic.value.DoubleValue
0.000000

@<SCITEGIC>MOL_PROPERTY
U
SciTegic.value.DoubleValue
22.080

@<SCITEGIC>MOL_PROPERTY
W
SciTegic.value.DoubleValue
-58.356

@<SCITEGIC>MOL_PROPERTY
W(PB)
SciTegic.value.DoubleValue
-60.289

@<SCITEGIC>MOL_PROPERTY
W(SA)
SciTegic.value.DoubleValue
1.932

@<SCITEGIC>MOL_PROPERTY
Valence
SciTegic.value.DoubleValue
1.885

@<SCITEGIC>MOL_PROPERTY
Coulomb
SciTegic.value.DoubleValue
19.559

@<SCITEGIC>MOL_PROPERTY
VdW
SciTegic.value.DoubleValue
0.637

@<SCITEGIC>MOL_PROPERTY
VdW6
SciTegic.value.DoubleValue
-4.482

@<SCITEGIC>MOL_PROPERTY
VdW12
SciTegic.value.DoubleValue
5.119

@<SCITEGIC>MOL_PROPERTY
Bond
SciTegic.value.DoubleValue
0.136

@<SCITEGIC>MOL_PROPERTY
Angle
SciTegic.value.DoubleValue
0.867

@<SCITEGIC>MOL_PROPERTY
Pdih
SciTegic.value.DoubleValue
0.882

@<SCITEGIC>MOL_PROPERTY
Idih
SciTegic.value.DoubleValue
0.000

@<SCITEGIC>MOL_PROPERTY
Tether
SciTegic.value.DoubleValue
0.000

@<TRIPOS>MOLECULE
guest-s10_confgen4.mol2 : confsearch ligand conformer 152
          20          19           1
SMALL
USER_CHARGES
 
@<TRIPOS>ATOM
       1    N1      20.578410   19.124674   24.951719 N.4        1 MOL1        -0.5937
       2    H1      19.778460   19.535307   25.440920 H          1 MOL1         0.3684
       3    H2      21.254698   19.874532   24.787174 H          1 MOL1         0.3684
       4    H3      21.014648   18.457108   25.593382 H          1 MOL1         0.3684
       5    C1      20.163594   18.462620   23.666387 C.3        1 MOL1         0.1270
       6    H4      19.448864   17.680070   23.939595 H          1 MOL1         0.0960
       7    C2      21.377842   17.798011   22.992076 C.3        1 MOL1        -0.2382
       8    H5      21.894820   17.133815   23.695497 H          1 MOL1         0.1009
       9    H6      22.097558   18.548207   22.641656 H          1 MOL1         0.1009
      10    H7      21.073526   17.186624   22.134859 H          1 MOL1         0.1009
      11    C3      19.449982   19.462585   22.727069 C.3        1 MOL1        -0.1392
      12    H8      18.666995   19.978066   23.298798 H          1 MOL1         0.0998
      13    H9      20.158747   20.236490   22.403696 H          1 MOL1         0.0998
      14    C4      18.798643   18.801099   21.487975 C.3        1 MOL1        -0.1302
      15    H10     18.136885   17.984236   21.808725 H          1 MOL1         0.0998
      16    H11     19.568799   18.353760   20.845597 H          1 MOL1         0.0998
      17    C5      17.988163   19.820061   20.658203 C.3        1 MOL1        -0.2317
      18    H12     17.177577   20.260102   21.253646 H          1 MOL1         0.1009
      19    H13     17.536890   19.335524   19.782609 H          1 MOL1         0.1009
      20    H14     18.629357   20.635351   20.298437 H          1 MOL1         0.1009
@<TRIPOS>BOND
    1     1     2    1
    2     1     3    1
    3     1     4    1
    4     1     5    1
    5     5     6    1
    6     5     7    1
    7     7     8    1
    8     7     9    1
    9     7    10    1
   10     5    11    1
   11    11    12    1
   12    11    13    1
   13    11    14    1
   14    14    15    1
   15    14    16    1
   16    14    17    1
   17    17    18    1
   18    17    19    1
   19    17    20    1
@<TRIPOS>SUBSTRUCTURE
       1 MOL1            1 RESIDUE      1      MOL     
@<SCITEGIC>MOL_PROPERTY
VConf Rank
SciTegic.value.IntegerValue
152

@<SCITEGIC>MOL_PROPERTY
Conf_Id
SciTegic.value.IntegerValue
80

@<SCITEGIC>MOL_PROPERTY
Delta U+W
SciTegic.value.DoubleValue
0.460

@<SCITEGIC>MOL_PROPERTY
U+W
SciTegic.value.DoubleValue
-35.817

@<SCITEGIC>MOL_PROPERTY
Grad RMS
SciTegic.value.DoubleValue
0.000000

@<SCITEGIC>MOL_PROPERTY
U
SciTegic.value.DoubleValue
22.495

@<SCITEGIC>MOL_PROPERTY
W
SciTegic.value.DoubleValue
-58.311

@<SCITEGIC>MOL_PROPERTY
W(PB)
SciTegic.value.DoubleValue
-60.259

@<SCITEGIC>MOL_PROPERTY
W(SA)
SciTegic.value.DoubleValue
1.948

@<SCITEGIC>MOL_PROPERTY
Valence
SciTegic.value.DoubleValue
2.419

@<SCITEGIC>MOL_PROPERTY
Coulomb
SciTegic.value.DoubleValue
19.304

@<SCITEGIC>MOL_PROPERTY
VdW
SciTegic.value.DoubleValue
0.772

@<SCITEGIC>MOL_PROPERTY
VdW6
SciTegic.value.DoubleValue
-4.635

@<SCITEGIC>MOL_PROPERTY
VdW12
SciTegic.value.DoubleValue
5.407

@<SCITEGIC>MOL_PROPERTY
Bond
SciTegic.value.DoubleValue
0.149

@<SCITEGIC>MOL_PROPERTY
Angle
SciTegic.value.DoubleValue
1.142

@<SCITEGIC>MOL_PROPERTY
Pdih
SciTegic.value.DoubleValue
1.129

@<SCITEGIC>MOL_PROPERTY
Idih
SciTegic.value.DoubleValue
0.000

@<SCITEGIC>MOL_PROPERTY
Tether
SciTegic.value.DoubleValue
0.000

@<TRIPOS>MOLECULE
guest-s10_confgen4.mol2 : confsearch ligand conformer 153
          20          19           1
SMALL
USER_CHARGES
 
@<TRIPOS>ATOM
       1    N1      19.594037   18.170297   25.015224 N.4        1 MOL1        -0.5937
       2    H1      19.739374   17.160467   25.098489 H          1 MOL1         0.3684
       3    H2      18.588394   18.342477   25.090877 H          1 MOL1         0.3684
       4    H3      20.039324   18.607606   25.826455 H          1 MOL1         0.3684
       5    C1      20.150671   18.707629   23.725192 C.3        1 MOL1         0.1270
       6    H4      21.222004   18.484252   23.737386 H          1 MOL1         0.0960
       7    C2      19.981652   20.235508   23.667942 C.3        1 MOL1        -0.2382
       8    H5      20.358636   20.701756   24.586440 H          1 MOL1         0.1009
       9    H6      18.927377   20.515470   23.551417 H          1 MOL1         0.1009
      10    H7      20.550706   20.662441   22.834327 H          1 MOL1         0.1009
      11    C3      19.523830   17.986942   22.506580 C.3        1 MOL1        -0.1392
      12    H8      19.661576   16.907814   22.655580 H          1 MOL1         0.0998
      13    H9      18.437987   18.149107   22.487138 H          1 MOL1         0.0998
      14    C4      20.146488   18.357171   21.134403 C.3        1 MOL1        -0.1302
      15    H10     20.174743   17.454681   20.507641 H          1 MOL1         0.0998
      16    H11     21.193010   18.668185   21.261002 H          1 MOL1         0.0998
      17    C5      19.350620   19.441610   20.370454 C.3        1 MOL1        -0.2317
      18    H12     18.323698   19.107738   20.172775 H          1 MOL1         0.1009
      19    H13     19.822736   19.653923   19.402459 H          1 MOL1         0.1009
      20    H14     19.296971   20.383983   20.926868 H          1 MOL1         0.1009
@<TRIPOS>BOND
    1     1     2    1
    2     1     3    1
    3     1     4    1
    4     1     5    1
    5     5     6    1
    6     5     7    1
    7     7     8    1
    8     7     9    1
    9     7    10    1
   10     5    11    1
   11    11    12    1
   12    11    13    1
   13    11    14    1
   14    14    15    1
   15    14    16    1
   16    14    17    1
   17    17    18    1
   18    17    19    1
   19    17    20    1
@<TRIPOS>SUBSTRUCTURE
       1 MOL1            1 RESIDUE      1      MOL     
@<SCITEGIC>MOL_PROPERTY
VConf Rank
SciTegic.value.IntegerValue
153

@<SCITEGIC>MOL_PROPERTY
Conf_Id
SciTegic.value.IntegerValue
52

@<SCITEGIC>MOL_PROPERTY
Delta U+W
SciTegic.value.DoubleValue
2.995

@<SCITEGIC>MOL_PROPERTY
U+W
SciTegic.value.DoubleValue
-33.282

@<SCITEGIC>MOL_PROPERTY
Grad RMS
SciTegic.value.DoubleValue
0.000000

@<SCITEGIC>MOL_PROPERTY
U
SciTegic.value.DoubleValue
25.224

@<SCITEGIC>MOL_PROPERTY
W
SciTegic.value.DoubleValue
-58.506

@<SCITEGIC>MOL_PROPERTY
W(PB)
SciTegic.value.DoubleValue
-60.411

@<SCITEGIC>MOL_PROPERTY
W(SA)
SciTegic.value.DoubleValue
1.905

@<SCITEGIC>MOL_PROPERTY
Valence
SciTegic.value.DoubleValue
4.945

@<SCITEGIC>MOL_PROPERTY
Coulomb
SciTegic.value.DoubleValue
19.467

@<SCITEGIC>MOL_PROPERTY
VdW
SciTegic.value.DoubleValue
0.813

@<SCITEGIC>MOL_PROPERTY
VdW6
SciTegic.value.DoubleValue
-5.458

@<SCITEGIC>MOL_PROPERTY
VdW12
SciTegic.value.DoubleValue
6.270

@<SCITEGIC>MOL_PROPERTY
Bond
SciTegic.value.DoubleValue
0.200

@<SCITEGIC>MOL_PROPERTY
Angle
SciTegic.value.DoubleValue
1.675

@<SCITEGIC>MOL_PROPERTY
Pdih
SciTegic.value.DoubleValue
3.070

@<SCITEGIC>MOL_PROPERTY
Idih
SciTegic.value.DoubleValue
0.000

@<SCITEGIC>MOL_PROPERTY
Tether
SciTegic.value.DoubleValue
0.000

@<TRIPOS>MOLECULE
guest-s10_confgen4.mol2 : confsearch ligand conformer 154
          20          19           1
SMALL
USER_CHARGES
 
@<TRIPOS>ATOM
       1    N1      20.518863   20.331632   23.299977 N.4        1 MOL1        -0.5937
       2    H1      20.279778   21.071979   22.635822 H          1 MOL1         0.3684
       3    H2      21.372852   20.619746   23.785097 H          1 MOL1         0.3684
       4    H3      19.768992   20.288927   23.993414 H          1 MOL1         0.3684
       5    C1      20.697009   19.008782   22.606017 C.3        1 MOL1         0.1270
       6    H4      20.996729   18.282845   23.368198 H          1 MOL1         0.0960
       7    C2      21.828342   19.112036   21.569106 C.3        1 MOL1        -0.2382
       8    H5      21.571297   19.818531   20.769949 H          1 MOL1         0.1009
       9    H6      22.029181   18.135708   21.110746 H          1 MOL1         0.1009
      10    H7      22.758169   19.452938   22.040851 H          1 MOL1         0.1009
      11    C3      19.396818   18.502446   21.937167 C.3        1 MOL1        -0.1392
      12    H8      18.933511   19.312362   21.358412 H          1 MOL1         0.0998
      13    H9      19.658655   17.724621   21.207432 H          1 MOL1         0.0998
      14    C4      18.361901   17.883501   22.913108 C.3        1 MOL1        -0.1302
      15    H10     18.819625   17.043428   23.454218 H          1 MOL1         0.0998
      16    H11     17.546121   17.450525   22.317238 H          1 MOL1         0.0998
      17    C5      17.749564   18.877300   23.926328 C.3        1 MOL1        -0.2317
      18    H12     16.893015   18.418061   24.436925 H          1 MOL1         0.1009
      19    H13     17.389765   19.786378   23.426889 H          1 MOL1         0.1009
      20    H14     18.470204   19.158522   24.702879 H          1 MOL1         0.1009
@<TRIPOS>BOND
    1     1     2    1
    2     1     3    1
    3     1     4    1
    4     1     5    1
    5     5     6    1
    6     5     7    1
    7     7     8    1
    8     7     9    1
    9     7    10    1
   10     5    11    1
   11    11    12    1
   12    11    13    1
   13    11    14    1
   14    14    15    1
   15    14    16    1
   16    14    17    1
   17    17    18    1
   18    17    19    1
   19    17    20    1
@<TRIPOS>SUBSTRUCTURE
       1 MOL1            1 RESIDUE      1      MOL     
@<SCITEGIC>MOL_PROPERTY
VConf Rank
SciTegic.value.IntegerValue
154

@<SCITEGIC>MOL_PROPERTY
Conf_Id
SciTegic.value.IntegerValue
54

@<SCITEGIC>MOL_PROPERTY
Delta U+W
SciTegic.value.DoubleValue
2.752

@<SCITEGIC>MOL_PROPERTY
U+W
SciTegic.value.DoubleValue
-33.525

@<SCITEGIC>MOL_PROPERTY
Grad RMS
SciTegic.value.DoubleValue
0.000000

@<SCITEGIC>MOL_PROPERTY
U
SciTegic.value.DoubleValue
24.337

@<SCITEGIC>MOL_PROPERTY
W
SciTegic.value.DoubleValue
-57.862

@<SCITEGIC>MOL_PROPERTY
W(PB)
SciTegic.value.DoubleValue
-59.764

@<SCITEGIC>MOL_PROPERTY
W(SA)
SciTegic.value.DoubleValue
1.901

@<SCITEGIC>MOL_PROPERTY
Valence
SciTegic.value.DoubleValue
3.593

@<SCITEGIC>MOL_PROPERTY
Coulomb
SciTegic.value.DoubleValue
20.067

@<SCITEGIC>MOL_PROPERTY
VdW
SciTegic.value.DoubleValue
0.677

@<SCITEGIC>MOL_PROPERTY
VdW6
SciTegic.value.DoubleValue
-5.466

@<SCITEGIC>MOL_PROPERTY
VdW12
SciTegic.value.DoubleValue
6.144

@<SCITEGIC>MOL_PROPERTY
Bond
SciTegic.value.DoubleValue
0.191

@<SCITEGIC>MOL_PROPERTY
Angle
SciTegic.value.DoubleValue
1.557

@<SCITEGIC>MOL_PROPERTY
Pdih
SciTegic.value.DoubleValue
1.845

@<SCITEGIC>MOL_PROPERTY
Idih
SciTegic.value.DoubleValue
0.000

@<SCITEGIC>MOL_PROPERTY
Tether
SciTegic.value.DoubleValue
0.000

@<TRIPOS>MOLECULE
guest-s10_confgen4.mol2 : confsearch ligand conformer 155
          20          19           1
SMALL
USER_CHARGES
 
@<TRIPOS>ATOM
       1    N1      19.936448   16.948591   23.154703 N.4        1 MOL1        -0.5937
       2    H1      19.579923   16.013026   22.941952 H          1 MOL1         0.3684
       3    H2      20.239450   16.943016   24.132389 H          1 MOL1         0.3684
       4    H3      20.766453   17.097763   22.576528 H          1 MOL1         0.3684
       5    C1      18.894649   18.004957   22.904435 C.3        1 MOL1         0.1270
       6    H4      18.046858   17.752641   23.549113 H          1 MOL1         0.0960
       7    C2      18.399263   17.958980   21.447959 C.3        1 MOL1        -0.2382
       8    H5      17.641309   18.731630   21.269106 H          1 MOL1         0.1009
       9    H6      17.940248   16.987025   21.229567 H          1 MOL1         0.1009
      10    H7      19.218664   18.109454   20.735231 H          1 MOL1         0.1009
      11    C3      19.374334   19.418906   23.311500 C.3        1 MOL1        -0.1392
      12    H8      18.540836   20.123178   23.188953 H          1 MOL1         0.0998
      13    H9      19.606319   19.411040   24.384593 H          1 MOL1         0.0998
      14    C4      20.606124   19.942803   22.528833 C.3        1 MOL1        -0.1302
      15    H10     20.376188   20.007108   21.456915 H          1 MOL1         0.0998
      16    H11     21.447117   19.244251   22.633325 H          1 MOL1         0.0998
      17    C5      21.044538   21.335868   23.029324 C.3        1 MOL1        -0.2317
      18    H12     21.915298   21.694273   22.465064 H          1 MOL1         0.1009
      19    H13     21.321388   21.305485   24.091234 H          1 MOL1         0.1009
      20    H14     20.238669   22.071307   22.907147 H          1 MOL1         0.1009
@<TRIPOS>BOND
    1     1     2    1
    2     1     3    1
    3     1     4    1
    4     1     5    1
    5     5     6    1
    6     5     7    1
    7     7     8    1
    8     7     9    1
    9     7    10    1
   10     5    11    1
   11    11    12    1
   12    11    13    1
   13    11    14    1
   14    14    15    1
   15    14    16    1
   16    14    17    1
   17    17    18    1
   18    17    19    1
   19    17    20    1
@<TRIPOS>SUBSTRUCTURE
       1 MOL1            1 RESIDUE      1      MOL     
@<SCITEGIC>MOL_PROPERTY
VConf Rank
SciTegic.value.IntegerValue
155

@<SCITEGIC>MOL_PROPERTY
Conf_Id
SciTegic.value.IntegerValue
63

@<SCITEGIC>MOL_PROPERTY
Delta U+W
SciTegic.value.DoubleValue
0.420

@<SCITEGIC>MOL_PROPERTY
U+W
SciTegic.value.DoubleValue
-35.856

@<SCITEGIC>MOL_PROPERTY
Grad RMS
SciTegic.value.DoubleValue
0.000000

@<SCITEGIC>MOL_PROPERTY
U
SciTegic.value.DoubleValue
22.625

@<SCITEGIC>MOL_PROPERTY
W
SciTegic.value.DoubleValue
-58.481

@<SCITEGIC>MOL_PROPERTY
W(PB)
SciTegic.value.DoubleValue
-60.400

@<SCITEGIC>MOL_PROPERTY
W(SA)
SciTegic.value.DoubleValue
1.919

@<SCITEGIC>MOL_PROPERTY
Valence
SciTegic.value.DoubleValue
2.404

@<SCITEGIC>MOL_PROPERTY
Coulomb
SciTegic.value.DoubleValue
19.464

@<SCITEGIC>MOL_PROPERTY
VdW
SciTegic.value.DoubleValue
0.757

@<SCITEGIC>MOL_PROPERTY
VdW6
SciTegic.value.DoubleValue
-5.074

@<SCITEGIC>MOL_PROPERTY
VdW12
SciTegic.value.DoubleValue
5.830

@<SCITEGIC>MOL_PROPERTY
Bond
SciTegic.value.DoubleValue
0.172

@<SCITEGIC>MOL_PROPERTY
Angle
SciTegic.value.DoubleValue
1.207

@<SCITEGIC>MOL_PROPERTY
Pdih
SciTegic.value.DoubleValue
1.025

@<SCITEGIC>MOL_PROPERTY
Idih
SciTegic.value.DoubleValue
0.000

@<SCITEGIC>MOL_PROPERTY
Tether
SciTegic.value.DoubleValue
0.000

@<TRIPOS>MOLECULE
guest-s10_confgen4.mol2 : confsearch ligand conformer 156
          20          19           1
SMALL
USER_CHARGES
 
@<TRIPOS>ATOM
       1    N1      21.440238   18.738247   22.752770 N.4        1 MOL1        -0.5937
       2    H1      21.378475   18.929967   23.755916 H          1 MOL1         0.3684
       3    H2      21.907365   19.536028   22.314866 H          1 MOL1         0.3684
       4    H3      22.049161   17.924213   22.634002 H          1 MOL1         0.3684
       5    C1      20.079158   18.501186   22.156581 C.3        1 MOL1         0.1270
       6    H4      19.654601   17.636478   22.675387 H          1 MOL1         0.0960
       7    C2      20.193328   18.154150   20.663248 C.3        1 MOL1        -0.2382
       8    H5      20.835138   17.276800   20.516363 H          1 MOL1         0.1009
       9    H6      20.619509   18.988654   20.092523 H          1 MOL1         0.1009
      10    H7      19.208185   17.919601   20.241227 H          1 MOL1         0.1009
      11    C3      19.127957   19.702592   22.358622 C.3        1 MOL1        -0.1392
      12    H8      19.529258   20.577780   21.830573 H          1 MOL1         0.0998
      13    H9      18.162115   19.476683   21.887408 H          1 MOL1         0.0998
      14    C4      18.881597   20.075073   23.842692 C.3        1 MOL1        -0.1302
      15    H10     18.201062   20.937205   23.881459 H          1 MOL1         0.0998
      16    H11     19.817460   20.408471   24.311279 H          1 MOL1         0.0998
      17    C5      18.270300   18.917375   24.664531 C.3        1 MOL1        -0.2317
      18    H12     17.332249   18.566723   24.214772 H          1 MOL1         0.1009
      19    H13     18.047627   19.247742   25.687439 H          1 MOL1         0.1009
      20    H14     18.956574   18.064165   24.734942 H          1 MOL1         0.1009
@<TRIPOS>BOND
    1     1     2    1
    2     1     3    1
    3     1     4    1
    4     1     5    1
    5     5     6    1
    6     5     7    1
    7     7     8    1
    8     7     9    1
    9     7    10    1
   10     5    11    1
   11    11    12    1
   12    11    13    1
   13    11    14    1
   14    14    15    1
   15    14    16    1
   16    14    17    1
   17    17    18    1
   18    17    19    1
   19    17    20    1
@<TRIPOS>SUBSTRUCTURE
       1 MOL1            1 RESIDUE      1      MOL     
@<SCITEGIC>MOL_PROPERTY
VConf Rank
SciTegic.value.IntegerValue
156

@<SCITEGIC>MOL_PROPERTY
Conf_Id
SciTegic.value.IntegerValue
50

@<SCITEGIC>MOL_PROPERTY
Delta U+W
SciTegic.value.DoubleValue
0.466

@<SCITEGIC>MOL_PROPERTY
U+W
SciTegic.value.DoubleValue
-35.811

@<SCITEGIC>MOL_PROPERTY
Grad RMS
SciTegic.value.DoubleValue
0.000000

@<SCITEGIC>MOL_PROPERTY
U
SciTegic.value.DoubleValue
22.369

@<SCITEGIC>MOL_PROPERTY
W
SciTegic.value.DoubleValue
-58.180

@<SCITEGIC>MOL_PROPERTY
W(PB)
SciTegic.value.DoubleValue
-60.103

@<SCITEGIC>MOL_PROPERTY
W(SA)
SciTegic.value.DoubleValue
1.923

@<SCITEGIC>MOL_PROPERTY
Valence
SciTegic.value.DoubleValue
2.168

@<SCITEGIC>MOL_PROPERTY
Coulomb
SciTegic.value.DoubleValue
19.636

@<SCITEGIC>MOL_PROPERTY
VdW
SciTegic.value.DoubleValue
0.566

@<SCITEGIC>MOL_PROPERTY
VdW6
SciTegic.value.DoubleValue
-5.263

@<SCITEGIC>MOL_PROPERTY
VdW12
SciTegic.value.DoubleValue
5.829

@<SCITEGIC>MOL_PROPERTY
Bond
SciTegic.value.DoubleValue
0.162

@<SCITEGIC>MOL_PROPERTY
Angle
SciTegic.value.DoubleValue
1.066

@<SCITEGIC>MOL_PROPERTY
Pdih
SciTegic.value.DoubleValue
0.939

@<SCITEGIC>MOL_PROPERTY
Idih
SciTegic.value.DoubleValue
0.000

@<SCITEGIC>MOL_PROPERTY
Tether
SciTegic.value.DoubleValue
0.000

@<TRIPOS>MOLECULE
guest-s10_confgen4.mol2 : confsearch ligand conformer 157
          20          19           1
SMALL
USER_CHARGES
 
@<TRIPOS>ATOM
       1    N1      20.707890   20.939169   22.409144 N.4        1 MOL1        -0.5937
       2    H1      20.080074   21.432349   21.768350 H          1 MOL1         0.3684
       3    H2      21.578233   20.753463   21.904278 H          1 MOL1         0.3684
       4    H3      20.930235   21.585262   23.171286 H          1 MOL1         0.3684
       5    C1      20.087351   19.669687   22.926761 C.3        1 MOL1         0.1270
       6    H4      19.169808   19.967745   23.443519 H          1 MOL1         0.0960
       7    C2      21.030400   18.998448   23.942666 C.3        1 MOL1        -0.2382
       8    H5      21.984757   18.725356   23.475452 H          1 MOL1         0.1009
       9    H6      20.588738   18.087986   24.361930 H          1 MOL1         0.1009
      10    H7      21.244121   19.676604   24.777864 H          1 MOL1         0.1009
      11    C3      19.701872   18.704606   21.778607 C.3        1 MOL1        -0.1392
      12    H8      19.677998   19.262335   20.833070 H          1 MOL1         0.0998
      13    H9      20.474697   17.935338   21.648304 H          1 MOL1         0.0998
      14    C4      18.313227   18.040070   21.957045 C.3        1 MOL1        -0.1302
      15    H10     18.094520   17.439041   21.063253 H          1 MOL1         0.0998
      16    H11     17.536927   18.817012   21.999487 H          1 MOL1         0.0998
      17    C5      18.200983   17.135049   23.203870 C.3        1 MOL1        -0.2317
      18    H12     18.991021   16.372955   23.212921 H          1 MOL1         0.1009
      19    H13     17.234374   16.614854   23.214148 H          1 MOL1         0.1009
      20    H14     18.268453   17.718715   24.130374 H          1 MOL1         0.1009
@<TRIPOS>BOND
    1     1     2    1
    2     1     3    1
    3     1     4    1
    4     1     5    1
    5     5     6    1
    6     5     7    1
    7     7     8    1
    8     7     9    1
    9     7    10    1
   10     5    11    1
   11    11    12    1
   12    11    13    1
   13    11    14    1
   14    14    15    1
   15    14    16    1
   16    14    17    1
   17    17    18    1
   18    17    19    1
   19    17    20    1
@<TRIPOS>SUBSTRUCTURE
       1 MOL1            1 RESIDUE      1      MOL     
@<SCITEGIC>MOL_PROPERTY
VConf Rank
SciTegic.value.IntegerValue
157

@<SCITEGIC>MOL_PROPERTY
Conf_Id
SciTegic.value.IntegerValue
3

@<SCITEGIC>MOL_PROPERTY
Delta U+W
SciTegic.value.DoubleValue
3.093

@<SCITEGIC>MOL_PROPERTY
U+W
SciTegic.value.DoubleValue
-33.184

@<SCITEGIC>MOL_PROPERTY
Grad RMS
SciTegic.value.DoubleValue
0.000000

@<SCITEGIC>MOL_PROPERTY
U
SciTegic.value.DoubleValue
25.256

@<SCITEGIC>MOL_PROPERTY
W
SciTegic.value.DoubleValue
-58.439

@<SCITEGIC>MOL_PROPERTY
W(PB)
SciTegic.value.DoubleValue
-60.337

@<SCITEGIC>MOL_PROPERTY
W(SA)
SciTegic.value.DoubleValue
1.898

@<SCITEGIC>MOL_PROPERTY
Valence
SciTegic.value.DoubleValue
4.963

@<SCITEGIC>MOL_PROPERTY
Coulomb
SciTegic.value.DoubleValue
19.511

@<SCITEGIC>MOL_PROPERTY
VdW
SciTegic.value.DoubleValue
0.782

@<SCITEGIC>MOL_PROPERTY
VdW6
SciTegic.value.DoubleValue
-5.429

@<SCITEGIC>MOL_PROPERTY
VdW12
SciTegic.value.DoubleValue
6.211

@<SCITEGIC>MOL_PROPERTY
Bond
SciTegic.value.DoubleValue
0.174

@<SCITEGIC>MOL_PROPERTY
Angle
SciTegic.value.DoubleValue
1.377

@<SCITEGIC>MOL_PROPERTY
Pdih
SciTegic.value.DoubleValue
3.412

@<SCITEGIC>MOL_PROPERTY
Idih
SciTegic.value.DoubleValue
0.000

@<SCITEGIC>MOL_PROPERTY
Tether
SciTegic.value.DoubleValue
0.000

@<TRIPOS>MOLECULE
guest-s10_confgen4.mol2 : confsearch ligand conformer 158
          20          19           1
SMALL
USER_CHARGES
 
@<TRIPOS>ATOM
       1    N1      20.580150   21.030624   22.853339 N.4        1 MOL1        -0.5937
       2    H1      20.852649   21.557252   22.019047 H          1 MOL1         0.3684
       3    H2      21.424282   20.899820   23.417396 H          1 MOL1         0.3684
       4    H3      19.941238   21.621963   23.390736 H          1 MOL1         0.3684
       5    C1      19.944478   19.716214   22.491912 C.3        1 MOL1         0.1270
       6    H4      20.694103   19.159800   21.921333 H          1 MOL1         0.0960
       7    C2      18.717937   19.944634   21.589958 C.3        1 MOL1        -0.2382
       8    H5      18.326133   18.996505   21.203855 H          1 MOL1         0.1009
       9    H6      18.984639   20.562203   20.723579 H          1 MOL1         0.1009
      10    H7      17.913067   20.452820   22.135320 H          1 MOL1         0.1009
      11    C3      19.591116   18.898394   23.757113 C.3        1 MOL1        -0.1392
      12    H8      20.481696   18.837948   24.396440 H          1 MOL1         0.0998
      13    H9      18.834226   19.439724   24.340050 H          1 MOL1         0.0998
      14    C4      19.086716   17.457766   23.486421 C.3        1 MOL1        -0.1302
      15    H10     18.122384   17.483382   22.961368 H          1 MOL1         0.0998
      16    H11     18.890521   16.966867   24.449938 H          1 MOL1         0.0998
      17    C5      20.095297   16.603186   22.685417 C.3        1 MOL1        -0.2317
      18    H12     21.069364   16.565161   23.190298 H          1 MOL1         0.1009
      19    H13     20.247716   17.001350   21.674330 H          1 MOL1         0.1009
      20    H14     19.730594   15.572850   22.583353 H          1 MOL1         0.1009
@<TRIPOS>BOND
    1     1     2    1
    2     1     3    1
    3     1     4    1
    4     1     5    1
    5     5     6    1
    6     5     7    1
    7     7     8    1
    8     7     9    1
    9     7    10    1
   10     5    11    1
   11    11    12    1
   12    11    13    1
   13    11    14    1
   14    14    15    1
   15    14    16    1
   16    14    17    1
   17    17    18    1
   18    17    19    1
   19    17    20    1
@<TRIPOS>SUBSTRUCTURE
       1 MOL1            1 RESIDUE      1      MOL     
@<SCITEGIC>MOL_PROPERTY
VConf Rank
SciTegic.value.IntegerValue
158

@<SCITEGIC>MOL_PROPERTY
Conf_Id
SciTegic.value.IntegerValue
64

@<SCITEGIC>MOL_PROPERTY
Delta U+W
SciTegic.value.DoubleValue
0.544

@<SCITEGIC>MOL_PROPERTY
U+W
SciTegic.value.DoubleValue
-35.732

@<SCITEGIC>MOL_PROPERTY
Grad RMS
SciTegic.value.DoubleValue
0.000000

@<SCITEGIC>MOL_PROPERTY
U
SciTegic.value.DoubleValue
22.800

@<SCITEGIC>MOL_PROPERTY
W
SciTegic.value.DoubleValue
-58.532

@<SCITEGIC>MOL_PROPERTY
W(PB)
SciTegic.value.DoubleValue
-60.437

@<SCITEGIC>MOL_PROPERTY
W(SA)
SciTegic.value.DoubleValue
1.905

@<SCITEGIC>MOL_PROPERTY
Valence
SciTegic.value.DoubleValue
2.662

@<SCITEGIC>MOL_PROPERTY
Coulomb
SciTegic.value.DoubleValue
19.485

@<SCITEGIC>MOL_PROPERTY
VdW
SciTegic.value.DoubleValue
0.653

@<SCITEGIC>MOL_PROPERTY
VdW6
SciTegic.value.DoubleValue
-5.460

@<SCITEGIC>MOL_PROPERTY
VdW12
SciTegic.value.DoubleValue
6.113

@<SCITEGIC>MOL_PROPERTY
Bond
SciTegic.value.DoubleValue
0.174

@<SCITEGIC>MOL_PROPERTY
Angle
SciTegic.value.DoubleValue
1.378

@<SCITEGIC>MOL_PROPERTY
Pdih
SciTegic.value.DoubleValue
1.109

@<SCITEGIC>MOL_PROPERTY
Idih
SciTegic.value.DoubleValue
0.000

@<SCITEGIC>MOL_PROPERTY
Tether
SciTegic.value.DoubleValue
0.000

@<TRIPOS>MOLECULE
guest-s10_confgen4.mol2 : confsearch ligand conformer 159
          20          19           1
SMALL
USER_CHARGES
 
@<TRIPOS>ATOM
       1    N1      21.509807   18.196323   23.679495 N.4        1 MOL1        -0.5937
       2    H1      21.011347   17.329967   23.464463 H          1 MOL1         0.3684
       3    H2      21.801302   18.146072   24.659352 H          1 MOL1         0.3684
       4    H3      22.360338   18.210841   23.110245 H          1 MOL1         0.3684
       5    C1      20.650605   19.404797   23.422216 C.3        1 MOL1         0.1270
       6    H4      21.264010   20.270620   23.690631 H          1 MOL1         0.0960
       7    C2      19.420899   19.409542   24.344998 C.3        1 MOL1        -0.2382
       8    H5      18.826063   18.496462   24.225983 H          1 MOL1         0.1009
       9    H6      18.779253   20.274607   24.136935 H          1 MOL1         0.1009
      10    H7      19.730801   19.470455   25.395341 H          1 MOL1         0.1009
      11    C3      20.283052   19.558732   21.924836 C.3        1 MOL1        -0.1392
      12    H8      19.810723   20.536832   21.764451 H          1 MOL1         0.0998
      13    H9      21.223044   19.596726   21.358751 H          1 MOL1         0.0998
      14    C4      19.393916   18.438337   21.317070 C.3        1 MOL1        -0.1302
      15    H10     19.585032   17.475915   21.809612 H          1 MOL1         0.0998
      16    H11     19.683403   18.298910   20.266004 H          1 MOL1         0.0998
      17    C5      17.881820   18.762646   21.350792 C.3        1 MOL1        -0.2317
      18    H12     17.505035   18.872765   22.373476 H          1 MOL1         0.1009
      19    H13     17.306923   17.959559   20.871718 H          1 MOL1         0.1009
      20    H14     17.667244   19.692836   20.808809 H          1 MOL1         0.1009
@<TRIPOS>BOND
    1     1     2    1
    2     1     3    1
    3     1     4    1
    4     1     5    1
    5     5     6    1
    6     5     7    1
    7     7     8    1
    8     7     9    1
    9     7    10    1
   10     5    11    1
   11    11    12    1
   12    11    13    1
   13    11    14    1
   14    14    15    1
   15    14    16    1
   16    14    17    1
   17    17    18    1
   18    17    19    1
   19    17    20    1
@<TRIPOS>SUBSTRUCTURE
       1 MOL1            1 RESIDUE      1      MOL     
@<SCITEGIC>MOL_PROPERTY
VConf Rank
SciTegic.value.IntegerValue
159

@<SCITEGIC>MOL_PROPERTY
Conf_Id
SciTegic.value.IntegerValue
35

@<SCITEGIC>MOL_PROPERTY
Delta U+W
SciTegic.value.DoubleValue
3.004

@<SCITEGIC>MOL_PROPERTY
U+W
SciTegic.value.DoubleValue
-33.272

@<SCITEGIC>MOL_PROPERTY
Grad RMS
SciTegic.value.DoubleValue
0.000000

@<SCITEGIC>MOL_PROPERTY
U
SciTegic.value.DoubleValue
25.367

@<SCITEGIC>MOL_PROPERTY
W
SciTegic.value.DoubleValue
-58.639

@<SCITEGIC>MOL_PROPERTY
W(PB)
SciTegic.value.DoubleValue
-60.512

@<SCITEGIC>MOL_PROPERTY
W(SA)
SciTegic.value.DoubleValue
1.873

@<SCITEGIC>MOL_PROPERTY
Valence
SciTegic.value.DoubleValue
4.943

@<SCITEGIC>MOL_PROPERTY
Coulomb
SciTegic.value.DoubleValue
19.661

@<SCITEGIC>MOL_PROPERTY
VdW
SciTegic.value.DoubleValue
0.764

@<SCITEGIC>MOL_PROPERTY
VdW6
SciTegic.value.DoubleValue
-5.871

@<SCITEGIC>MOL_PROPERTY
VdW12
SciTegic.value.DoubleValue
6.636

@<SCITEGIC>MOL_PROPERTY
Bond
SciTegic.value.DoubleValue
0.230

@<SCITEGIC>MOL_PROPERTY
Angle
SciTegic.value.DoubleValue
1.857

@<SCITEGIC>MOL_PROPERTY
Pdih
SciTegic.value.DoubleValue
2.855

@<SCITEGIC>MOL_PROPERTY
Idih
SciTegic.value.DoubleValue
0.000

@<SCITEGIC>MOL_PROPERTY
Tether
SciTegic.value.DoubleValue
0.000

@<TRIPOS>MOLECULE
guest-s10_confgen4.mol2 : confsearch ligand conformer 160
          20          19           1
SMALL
USER_CHARGES
 
@<TRIPOS>ATOM
       1    N1      19.935075   19.325514   20.956229 N.4        1 MOL1        -0.5937
       2    H1      19.657969   20.063051   20.302889 H          1 MOL1         0.3684
       3    H2      20.145092   18.490932   20.402202 H          1 MOL1         0.3684
       4    H3      20.803630   19.620407   21.406393 H          1 MOL1         0.3684
       5    C1      18.859514   19.055637   21.972496 C.3        1 MOL1         0.1270
       6    H4      17.991175   18.725403   21.393826 H          1 MOL1         0.0960
       7    C2      18.453225   20.341043   22.714905 C.3        1 MOL1        -0.2382
       8    H5      19.302071   20.786958   23.246801 H          1 MOL1         0.1009
       9    H6      17.659830   20.134815   23.443887 H          1 MOL1         0.1009
      10    H7      18.070139   21.087820   22.008833 H          1 MOL1         0.1009
      11    C3      19.216954   17.900664   22.942849 C.3        1 MOL1        -0.1392
      12    H8      18.286387   17.569598   23.422413 H          1 MOL1         0.0998
      13    H9      19.564577   17.039403   22.357523 H          1 MOL1         0.0998
      14    C4      20.247175   18.206207   24.066186 C.3        1 MOL1        -0.1302
      15    H10     20.351250   17.304213   24.685379 H          1 MOL1         0.0998
      16    H11     19.857849   18.981947   24.739449 H          1 MOL1         0.0998
      17    C5      21.650569   18.612327   23.561732 C.3        1 MOL1        -0.2317
      18    H12     22.029533   17.897352   22.819885 H          1 MOL1         0.1009
      19    H13     22.362808   18.633606   24.396856 H          1 MOL1         0.1009
      20    H14     21.645789   19.614648   23.118337 H          1 MOL1         0.1009
@<TRIPOS>BOND
    1     1     2    1
    2     1     3    1
    3     1     4    1
    4     1     5    1
    5     5     6    1
    6     5     7    1
    7     7     8    1
    8     7     9    1
    9     7    10    1
   10     5    11    1
   11    11    12    1
   12    11    13    1
   13    11    14    1
   14    14    15    1
   15    14    16    1
   16    14    17    1
   17    17    18    1
   18    17    19    1
   19    17    20    1
@<TRIPOS>SUBSTRUCTURE
       1 MOL1            1 RESIDUE      1      MOL     
@<SCITEGIC>MOL_PROPERTY
VConf Rank
SciTegic.value.IntegerValue
160

@<SCITEGIC>MOL_PROPERTY
Conf_Id
SciTegic.value.IntegerValue
55

@<SCITEGIC>MOL_PROPERTY
Delta U+W
SciTegic.value.DoubleValue
2.767

@<SCITEGIC>MOL_PROPERTY
U+W
SciTegic.value.DoubleValue
-33.509

@<SCITEGIC>MOL_PROPERTY
Grad RMS
SciTegic.value.DoubleValue
0.000000

@<SCITEGIC>MOL_PROPERTY
U
SciTegic.value.DoubleValue
24.552

@<SCITEGIC>MOL_PROPERTY
W
SciTegic.value.DoubleValue
-58.061

@<SCITEGIC>MOL_PROPERTY
W(PB)
SciTegic.value.DoubleValue
-59.930

@<SCITEGIC>MOL_PROPERTY
W(SA)
SciTegic.value.DoubleValue
1.869

@<SCITEGIC>MOL_PROPERTY
Valence
SciTegic.value.DoubleValue
3.726

@<SCITEGIC>MOL_PROPERTY
Coulomb
SciTegic.value.DoubleValue
20.219

@<SCITEGIC>MOL_PROPERTY
VdW
SciTegic.value.DoubleValue
0.606

@<SCITEGIC>MOL_PROPERTY
VdW6
SciTegic.value.DoubleValue
-6.395

@<SCITEGIC>MOL_PROPERTY
VdW12
SciTegic.value.DoubleValue
7.001

@<SCITEGIC>MOL_PROPERTY
Bond
SciTegic.value.DoubleValue
0.241

@<SCITEGIC>MOL_PROPERTY
Angle
SciTegic.value.DoubleValue
2.098

@<SCITEGIC>MOL_PROPERTY
Pdih
SciTegic.value.DoubleValue
1.387

@<SCITEGIC>MOL_PROPERTY
Idih
SciTegic.value.DoubleValue
0.000

@<SCITEGIC>MOL_PROPERTY
Tether
SciTegic.value.DoubleValue
0.000

@<TRIPOS>MOLECULE
guest-s10_confgen4.mol2 : confsearch ligand conformer 161
          20          19           1
SMALL
USER_CHARGES
 
@<TRIPOS>ATOM
       1    N1      18.143208   19.923522   23.336170 N.4        1 MOL1        -0.5937
       2    H1      17.444582   19.323740   22.890381 H          1 MOL1         0.3684
       3    H2      17.713904   20.842611   23.472661 H          1 MOL1         0.3684
       4    H3      18.333845   19.536662   24.263843 H          1 MOL1         0.3684
       5    C1      19.396918   20.018579   22.508984 C.3        1 MOL1         0.1270
       6    H4      20.086254   20.669549   23.055739 H          1 MOL1         0.0960
       7    C2      19.098104   20.669083   21.148277 C.3        1 MOL1        -0.2382
       8    H5      18.645940   21.659495   21.282054 H          1 MOL1         0.1009
       9    H6      18.407153   20.054953   20.557326 H          1 MOL1         0.1009
      10    H7      20.019792   20.800581   20.567898 H          1 MOL1         0.1009
      11    C3      20.082114   18.648496   22.310163 C.3        1 MOL1        -0.1392
      12    H8      19.400748   17.967235   21.783342 H          1 MOL1         0.0998
      13    H9      20.956750   18.781071   21.659392 H          1 MOL1         0.0998
      14    C4      20.542788   18.003097   23.639357 C.3        1 MOL1        -0.1302
      15    H10     19.677294   17.807947   24.286863 H          1 MOL1         0.0998
      16    H11     21.196097   18.700384   24.182699 H          1 MOL1         0.0998
      17    C5      21.297811   16.678326   23.398057 C.3        1 MOL1        -0.2317
      18    H12     20.659963   15.948428   22.882640 H          1 MOL1         0.1009
      19    H13     21.615622   16.234176   24.350324 H          1 MOL1         0.1009
      20    H14     22.195119   16.839991   22.786553 H          1 MOL1         0.1009
@<TRIPOS>BOND
    1     1     2    1
    2     1     3    1
    3     1     4    1
    4     1     5    1
    5     5     6    1
    6     5     7    1
    7     7     8    1
    8     7     9    1
    9     7    10    1
   10     5    11    1
   11    11    12    1
   12    11    13    1
   13    11    14    1
   14    14    15    1
   15    14    16    1
   16    14    17    1
   17    17    18    1
   18    17    19    1
   19    17    20    1
@<TRIPOS>SUBSTRUCTURE
       1 MOL1            1 RESIDUE      1      MOL     
@<SCITEGIC>MOL_PROPERTY
VConf Rank
SciTegic.value.IntegerValue
161

@<SCITEGIC>MOL_PROPERTY
Conf_Id
SciTegic.value.IntegerValue
74

@<SCITEGIC>MOL_PROPERTY
Delta U+W
SciTegic.value.DoubleValue
0.000

@<SCITEGIC>MOL_PROPERTY
U+W
SciTegic.value.DoubleValue
-36.276

@<SCITEGIC>MOL_PROPERTY
Grad RMS
SciTegic.value.DoubleValue
0.000000

@<SCITEGIC>MOL_PROPERTY
U
SciTegic.value.DoubleValue
22.080

@<SCITEGIC>MOL_PROPERTY
W
SciTegic.value.DoubleValue
-58.356

@<SCITEGIC>MOL_PROPERTY
W(PB)
SciTegic.value.DoubleValue
-60.289

@<SCITEGIC>MOL_PROPERTY
W(SA)
SciTegic.value.DoubleValue
1.932

@<SCITEGIC>MOL_PROPERTY
Valence
SciTegic.value.DoubleValue
1.885

@<SCITEGIC>MOL_PROPERTY
Coulomb
SciTegic.value.DoubleValue
19.559

@<SCITEGIC>MOL_PROPERTY
VdW
SciTegic.value.DoubleValue
0.637

@<SCITEGIC>MOL_PROPERTY
VdW6
SciTegic.value.DoubleValue
-4.482

@<SCITEGIC>MOL_PROPERTY
VdW12
SciTegic.value.DoubleValue
5.119

@<SCITEGIC>MOL_PROPERTY
Bond
SciTegic.value.DoubleValue
0.136

@<SCITEGIC>MOL_PROPERTY
Angle
SciTegic.value.DoubleValue
0.867

@<SCITEGIC>MOL_PROPERTY
Pdih
SciTegic.value.DoubleValue
0.882

@<SCITEGIC>MOL_PROPERTY
Idih
SciTegic.value.DoubleValue
0.000

@<SCITEGIC>MOL_PROPERTY
Tether
SciTegic.value.DoubleValue
0.000

@<TRIPOS>MOLECULE
guest-s10_confgen4.mol2 : confsearch ligand conformer 162
          20          19           1
SMALL
USER_CHARGES
 
@<TRIPOS>ATOM
       1    N1      20.872568   20.242069   24.370502 N.4        1 MOL1        -0.5937
       2    H1      20.285246   21.079431   24.412147 H          1 MOL1         0.3684
       3    H2      21.703247   20.477521   23.821630 H          1 MOL1         0.3684
       4    H3      21.184760   20.044323   25.325024 H          1 MOL1         0.3684
       5    C1      20.132754   19.073255   23.779727 C.3        1 MOL1         0.1270
       6    H4      19.270100   18.894551   24.429156 H          1 MOL1         0.0960
       7    C2      21.021443   17.815958   23.795049 C.3        1 MOL1        -0.2382
       8    H5      21.419274   17.636303   24.801367 H          1 MOL1         0.1009
       9    H6      21.870198   17.921051   23.107917 H          1 MOL1         0.1009
      10    H7      20.454801   16.922914   23.507624 H          1 MOL1         0.1009
      11    C3      19.610541   19.400847   22.361466 C.3        1 MOL1        -0.1392
      12    H8      19.078712   20.360699   22.400239 H          1 MOL1         0.0998
      13    H9      20.458810   19.543265   21.678821 H          1 MOL1         0.0998
      14    C4      18.651328   18.330659   21.785468 C.3        1 MOL1        -0.1302
      15    H10     17.835663   18.142135   22.497661 H          1 MOL1         0.0998
      16    H11     19.180846   17.378492   21.648030 H          1 MOL1         0.0998
      17    C5      18.055845   18.769576   20.430317 C.3        1 MOL1        -0.2317
      18    H12     17.479880   19.698509   20.533209 H          1 MOL1         0.1009
      19    H13     17.381872   17.998477   20.035029 H          1 MOL1         0.1009
      20    H14     18.846570   18.938204   19.687634 H          1 MOL1         0.1009
@<TRIPOS>BOND
    1     1     2    1
    2     1     3    1
    3     1     4    1
    4     1     5    1
    5     5     6    1
    6     5     7    1
    7     7     8    1
    8     7     9    1
    9     7    10    1
   10     5    11    1
   11    11    12    1
   12    11    13    1
   13    11    14    1
   14    14    15    1
   15    14    16    1
   16    14    17    1
   17    17    18    1
   18    17    19    1
   19    17    20    1
@<TRIPOS>SUBSTRUCTURE
       1 MOL1            1 RESIDUE      1      MOL     
@<SCITEGIC>MOL_PROPERTY
VConf Rank
SciTegic.value.IntegerValue
162

@<SCITEGIC>MOL_PROPERTY
Conf_Id
SciTegic.value.IntegerValue
80

@<SCITEGIC>MOL_PROPERTY
Delta U+W
SciTegic.value.DoubleValue
0.460

@<SCITEGIC>MOL_PROPERTY
U+W
SciTegic.value.DoubleValue
-35.817

@<SCITEGIC>MOL_PROPERTY
Grad RMS
SciTegic.value.DoubleValue
0.000000

@<SCITEGIC>MOL_PROPERTY
U
SciTegic.value.DoubleValue
22.495

@<SCITEGIC>MOL_PROPERTY
W
SciTegic.value.DoubleValue
-58.311

@<SCITEGIC>MOL_PROPERTY
W(PB)
SciTegic.value.DoubleValue
-60.259

@<SCITEGIC>MOL_PROPERTY
W(SA)
SciTegic.value.DoubleValue
1.948

@<SCITEGIC>MOL_PROPERTY
Valence
SciTegic.value.DoubleValue
2.419

@<SCITEGIC>MOL_PROPERTY
Coulomb
SciTegic.value.DoubleValue
19.304

@<SCITEGIC>MOL_PROPERTY
VdW
SciTegic.value.DoubleValue
0.772

@<SCITEGIC>MOL_PROPERTY
VdW6
SciTegic.value.DoubleValue
-4.635

@<SCITEGIC>MOL_PROPERTY
VdW12
SciTegic.value.DoubleValue
5.407

@<SCITEGIC>MOL_PROPERTY
Bond
SciTegic.value.DoubleValue
0.149

@<SCITEGIC>MOL_PROPERTY
Angle
SciTegic.value.DoubleValue
1.142

@<SCITEGIC>MOL_PROPERTY
Pdih
SciTegic.value.DoubleValue
1.129

@<SCITEGIC>MOL_PROPERTY
Idih
SciTegic.value.DoubleValue
0.000

@<SCITEGIC>MOL_PROPERTY
Tether
SciTegic.value.DoubleValue
0.000

@<TRIPOS>MOLECULE
guest-s10_confgen4.mol2 : confsearch ligand conformer 163
          20          19           1
SMALL
USER_CHARGES
 
@<TRIPOS>ATOM
       1    N1      18.828199   16.745890   23.306754 N.4        1 MOL1        -0.5937
       2    H1      17.912135   16.608997   22.870981 H          1 MOL1         0.3684
       3    H2      18.668008   16.982403   24.289144 H          1 MOL1         0.3684
       4    H3      19.310630   15.843424   23.285983 H          1 MOL1         0.3684
       5    C1      19.624041   17.812068   22.604864 C.3        1 MOL1         0.1270
       6    H4      19.748816   17.471208   21.572369 H          1 MOL1         0.0960
       7    C2      21.020041   17.938234   23.238522 C.3        1 MOL1        -0.2382
       8    H5      21.498956   16.954792   23.319924 H          1 MOL1         0.1009
       9    H6      20.963244   18.374010   24.243672 H          1 MOL1         0.1009
      10    H7      21.675506   18.564482   22.622741 H          1 MOL1         0.1009
      11    C3      18.852298   19.154080   22.577451 C.3        1 MOL1        -0.1392
      12    H8      17.862594   18.955979   22.145093 H          1 MOL1         0.0998
      13    H9      18.665734   19.505455   23.600906 H          1 MOL1         0.0998
      14    C4      19.518147   20.276179   21.737700 C.3        1 MOL1        -0.1302
      15    H10     18.728836   20.852591   21.234853 H          1 MOL1         0.0998
      16    H11     20.130218   19.840968   20.935249 H          1 MOL1         0.0998
      17    C5      20.359669   21.260473   22.583892 C.3        1 MOL1        -0.2317
      18    H12     19.738377   21.757108   23.340507 H          1 MOL1         0.1009
      19    H13     20.793540   22.041396   21.946007 H          1 MOL1         0.1009
      20    H14     21.184845   20.759321   23.102036 H          1 MOL1         0.1009
@<TRIPOS>BOND
    1     1     2    1
    2     1     3    1
    3     1     4    1
    4     1     5    1
    5     5     6    1
    6     5     7    1
    7     7     8    1
    8     7     9    1
    9     7    10    1
   10     5    11    1
   11    11    12    1
   12    11    13    1
   13    11    14    1
   14    14    15    1
   15    14    16    1
   16    14    17    1
   17    17    18    1
   18    17    19    1
   19    17    20    1
@<TRIPOS>SUBSTRUCTURE
       1 MOL1            1 RESIDUE      1      MOL     
@<SCITEGIC>MOL_PROPERTY
VConf Rank
SciTegic.value.IntegerValue
163

@<SCITEGIC>MOL_PROPERTY
Conf_Id
SciTegic.value.IntegerValue
52

@<SCITEGIC>MOL_PROPERTY
Delta U+W
SciTegic.value.DoubleValue
2.995

@<SCITEGIC>MOL_PROPERTY
U+W
SciTegic.value.DoubleValue
-33.282

@<SCITEGIC>MOL_PROPERTY
Grad RMS
SciTegic.value.DoubleValue
0.000000

@<SCITEGIC>MOL_PROPERTY
U
SciTegic.value.DoubleValue
25.224

@<SCITEGIC>MOL_PROPERTY
W
SciTegic.value.DoubleValue
-58.506

@<SCITEGIC>MOL_PROPERTY
W(PB)
SciTegic.value.DoubleValue
-60.411

@<SCITEGIC>MOL_PROPERTY
W(SA)
SciTegic.value.DoubleValue
1.905

@<SCITEGIC>MOL_PROPERTY
Valence
SciTegic.value.DoubleValue
4.945

@<SCITEGIC>MOL_PROPERTY
Coulomb
SciTegic.value.DoubleValue
19.467

@<SCITEGIC>MOL_PROPERTY
VdW
SciTegic.value.DoubleValue
0.813

@<SCITEGIC>MOL_PROPERTY
VdW6
SciTegic.value.DoubleValue
-5.458

@<SCITEGIC>MOL_PROPERTY
VdW12
SciTegic.value.DoubleValue
6.270

@<SCITEGIC>MOL_PROPERTY
Bond
SciTegic.value.DoubleValue
0.200

@<SCITEGIC>MOL_PROPERTY
Angle
SciTegic.value.DoubleValue
1.675

@<SCITEGIC>MOL_PROPERTY
Pdih
SciTegic.value.DoubleValue
3.070

@<SCITEGIC>MOL_PROPERTY
Idih
SciTegic.value.DoubleValue
0.000

@<SCITEGIC>MOL_PROPERTY
Tether
SciTegic.value.DoubleValue
0.000

@<TRIPOS>MOLECULE
guest-s10_confgen4.mol2 : confsearch ligand conformer 164
          20          19           1
SMALL
USER_CHARGES
 
@<TRIPOS>ATOM
       1    N1      20.560913   18.640114   21.386414 N.4        1 MOL1        -0.5937
       2    H1      20.174939   17.739286   21.093309 H          1 MOL1         0.3684
       3    H2      21.479484   18.737524   20.945523 H          1 MOL1         0.3684
       4    H3      19.956075   19.370678   21.005057 H          1 MOL1         0.3684
       5    C1      20.654251   18.735385   22.884900 C.3        1 MOL1         0.1270
       6    H4      21.117560   19.699030   23.118285 H          1 MOL1         0.0960
       7    C2      21.567090   17.620267   23.422485 C.3        1 MOL1        -0.2382
       8    H5      21.139465   16.628715   23.228011 H          1 MOL1         0.1009
       9    H6      21.714132   17.722858   24.504843 H          1 MOL1         0.1009
      10    H7      22.555681   17.665104   22.949184 H          1 MOL1         0.1009
      11    C3      19.271249   18.680795   23.576682 C.3        1 MOL1        -0.1392
      12    H8      18.678603   17.853657   23.164144 H          1 MOL1         0.0998
      13    H9      19.420159   18.442308   24.638300 H          1 MOL1         0.0998
      14    C4      18.460476   20.001930   23.514587 C.3        1 MOL1        -0.1302
      15    H10     19.041701   20.814866   23.972132 H          1 MOL1         0.0998
      16    H11     17.563981   19.882827   24.139197 H          1 MOL1         0.0998
      17    C5      18.012643   20.423006   22.096367 C.3        1 MOL1        -0.2317
      18    H12     17.284082   21.242050   22.156795 H          1 MOL1         0.1009
      19    H13     17.532826   19.590587   21.565171 H          1 MOL1         0.1009
      20    H14     18.855083   20.789284   21.498391 H          1 MOL1         0.1009
@<TRIPOS>BOND
    1     1     2    1
    2     1     3    1
    3     1     4    1
    4     1     5    1
    5     5     6    1
    6     5     7    1
    7     7     8    1
    8     7     9    1
    9     7    10    1
   10     5    11    1
   11    11    12    1
   12    11    13    1
   13    11    14    1
   14    14    15    1
   15    14    16    1
   16    14    17    1
   17    17    18    1
   18    17    19    1
   19    17    20    1
@<TRIPOS>SUBSTRUCTURE
       1 MOL1            1 RESIDUE      1      MOL     
@<SCITEGIC>MOL_PROPERTY
VConf Rank
SciTegic.value.IntegerValue
164

@<SCITEGIC>MOL_PROPERTY
Conf_Id
SciTegic.value.IntegerValue
54

@<SCITEGIC>MOL_PROPERTY
Delta U+W
SciTegic.value.DoubleValue
2.752

@<SCITEGIC>MOL_PROPERTY
U+W
SciTegic.value.DoubleValue
-33.525

@<SCITEGIC>MOL_PROPERTY
Grad RMS
SciTegic.value.DoubleValue
0.000000

@<SCITEGIC>MOL_PROPERTY
U
SciTegic.value.DoubleValue
24.337

@<SCITEGIC>MOL_PROPERTY
W
SciTegic.value.DoubleValue
-57.862

@<SCITEGIC>MOL_PROPERTY
W(PB)
SciTegic.value.DoubleValue
-59.764

@<SCITEGIC>MOL_PROPERTY
W(SA)
SciTegic.value.DoubleValue
1.901

@<SCITEGIC>MOL_PROPERTY
Valence
SciTegic.value.DoubleValue
3.593

@<SCITEGIC>MOL_PROPERTY
Coulomb
SciTegic.value.DoubleValue
20.067

@<SCITEGIC>MOL_PROPERTY
VdW
SciTegic.value.DoubleValue
0.677

@<SCITEGIC>MOL_PROPERTY
VdW6
SciTegic.value.DoubleValue
-5.466

@<SCITEGIC>MOL_PROPERTY
VdW12
SciTegic.value.DoubleValue
6.144

@<SCITEGIC>MOL_PROPERTY
Bond
SciTegic.value.DoubleValue
0.191

@<SCITEGIC>MOL_PROPERTY
Angle
SciTegic.value.DoubleValue
1.557

@<SCITEGIC>MOL_PROPERTY
Pdih
SciTegic.value.DoubleValue
1.845

@<SCITEGIC>MOL_PROPERTY
Idih
SciTegic.value.DoubleValue
0.000

@<SCITEGIC>MOL_PROPERTY
Tether
SciTegic.value.DoubleValue
0.000

@<TRIPOS>MOLECULE
guest-s10_confgen4.mol2 : confsearch ligand conformer 165
          20          19           1
SMALL
USER_CHARGES
 
@<TRIPOS>ATOM
       1    N1      20.519481   17.042509   22.529154 N.4        1 MOL1        -0.5937
       2    H1      21.096426   16.334950   22.991916 H          1 MOL1         0.3684
       3    H2      20.617538   16.901766   21.520052 H          1 MOL1         0.3684
       4    H3      19.545491   16.849544   22.773197 H          1 MOL1         0.3684
       5    C1      20.923061   18.433890   22.935441 C.3        1 MOL1         0.1270
       6    H4      21.974916   18.538948   22.651564 H          1 MOL1         0.0960
       7    C2      20.834836   18.611805   24.461680 C.3        1 MOL1        -0.2382
       8    H5      21.128097   19.627799   24.753616 H          1 MOL1         0.1009
       9    H6      21.510828   17.912652   24.968934 H          1 MOL1         0.1009
      10    H7      19.820608   18.426080   24.834358 H          1 MOL1         0.1009
      11    C3      20.132613   19.526135   22.175676 C.3        1 MOL1        -0.1392
      12    H8      20.536346   20.509563   22.450641 H          1 MOL1         0.0998
      13    H9      20.326752   19.410876   21.101231 H          1 MOL1         0.0998
      14    C4      18.601383   19.515243   22.419729 C.3        1 MOL1        -0.1302
      15    H10     18.384820   19.681234   23.483477 H          1 MOL1         0.0998
      16    H11     18.182564   18.534237   22.158234 H          1 MOL1         0.0998
      17    C5      17.887859   20.603936   21.589693 C.3        1 MOL1        -0.2317
      18    H12     16.805903   20.585467   21.774344 H          1 MOL1         0.1009
      19    H13     18.048063   20.450039   20.514579 H          1 MOL1         0.1009
      20    H14     18.256491   21.604630   21.850357 H          1 MOL1         0.1009
@<TRIPOS>BOND
    1     1     2    1
    2     1     3    1
    3     1     4    1
    4     1     5    1
    5     5     6    1
    6     5     7    1
    7     7     8    1
    8     7     9    1
    9     7    10    1
   10     5    11    1
   11    11    12    1
   12    11    13    1
   13    11    14    1
   14    14    15    1
   15    14    16    1
   16    14    17    1
   17    17    18    1
   18    17    19    1
   19    17    20    1
@<TRIPOS>SUBSTRUCTURE
       1 MOL1            1 RESIDUE      1      MOL     
@<SCITEGIC>MOL_PROPERTY
VConf Rank
SciTegic.value.IntegerValue
165

@<SCITEGIC>MOL_PROPERTY
Conf_Id
SciTegic.value.IntegerValue
63

@<SCITEGIC>MOL_PROPERTY
Delta U+W
SciTegic.value.DoubleValue
0.420

@<SCITEGIC>MOL_PROPERTY
U+W
SciTegic.value.DoubleValue
-35.856

@<SCITEGIC>MOL_PROPERTY
Grad RMS
SciTegic.value.DoubleValue
0.000000

@<SCITEGIC>MOL_PROPERTY
U
SciTegic.value.DoubleValue
22.625

@<SCITEGIC>MOL_PROPERTY
W
SciTegic.value.DoubleValue
-58.481

@<SCITEGIC>MOL_PROPERTY
W(PB)
SciTegic.value.DoubleValue
-60.400

@<SCITEGIC>MOL_PROPERTY
W(SA)
SciTegic.value.DoubleValue
1.919

@<SCITEGIC>MOL_PROPERTY
Valence
SciTegic.value.DoubleValue
2.404

@<SCITEGIC>MOL_PROPERTY
Coulomb
SciTegic.value.DoubleValue
19.464

@<SCITEGIC>MOL_PROPERTY
VdW
SciTegic.value.DoubleValue
0.757

@<SCITEGIC>MOL_PROPERTY
VdW6
SciTegic.value.DoubleValue
-5.074

@<SCITEGIC>MOL_PROPERTY
VdW12
SciTegic.value.DoubleValue
5.830

@<SCITEGIC>MOL_PROPERTY
Bond
SciTegic.value.DoubleValue
0.172

@<SCITEGIC>MOL_PROPERTY
Angle
SciTegic.value.DoubleValue
1.207

@<SCITEGIC>MOL_PROPERTY
Pdih
SciTegic.value.DoubleValue
1.025

@<SCITEGIC>MOL_PROPERTY
Idih
SciTegic.value.DoubleValue
0.000

@<SCITEGIC>MOL_PROPERTY
Tether
SciTegic.value.DoubleValue
0.000

@<TRIPOS>MOLECULE
guest-s10_confgen4.mol2 : confsearch ligand conformer 166
          20          19           1
SMALL
USER_CHARGES
 
@<TRIPOS>ATOM
       1    N1      20.960742   19.730420   21.787656 N.4        1 MOL1        -0.5937
       2    H1      21.531777   18.937650   22.091481 H          1 MOL1         0.3684
       3    H2      21.320209   20.566160   22.255356 H          1 MOL1         0.3684
       4    H3      21.115473   19.851507   20.783196 H          1 MOL1         0.3684
       5    C1      19.505611   19.507335   22.099109 C.3        1 MOL1         0.1270
       6    H4      19.203709   18.603429   21.561580 H          1 MOL1         0.0960
       7    C2      18.653859   20.678076   21.582006 C.3        1 MOL1        -0.2382
       8    H5      18.798918   20.817339   20.503673 H          1 MOL1         0.1009
       9    H6      18.918798   21.615752   22.086311 H          1 MOL1         0.1009
      10    H7      17.586713   20.488539   21.752000 H          1 MOL1         0.1009
      11    C3      19.251683   19.282014   23.607000 C.3        1 MOL1        -0.1392
      12    H8      19.533687   20.186005   24.162973 H          1 MOL1         0.0998
      13    H9      18.174597   19.144779   23.771251 H          1 MOL1         0.0998
      14    C4      20.004074   18.065170   24.202901 C.3        1 MOL1        -0.1302
      15    H10     19.764128   17.991848   25.272925 H          1 MOL1         0.0998
      16    H11     21.089400   18.225100   24.147629 H          1 MOL1         0.0998
      17    C5      19.637848   16.730194   23.515088 C.3        1 MOL1        -0.2317
      18    H12     18.556076   16.548194   23.557817 H          1 MOL1         0.1009
      19    H13     20.138150   15.890396   24.014593 H          1 MOL1         0.1009
      20    H14     19.945906   16.719228   22.462056 H          1 MOL1         0.1009
@<TRIPOS>BOND
    1     1     2    1
    2     1     3    1
    3     1     4    1
    4     1     5    1
    5     5     6    1
    6     5     7    1
    7     7     8    1
    8     7     9    1
    9     7    10    1
   10     5    11    1
   11    11    12    1
   12    11    13    1
   13    11    14    1
   14    14    15    1
   15    14    16    1
   16    14    17    1
   17    17    18    1
   18    17    19    1
   19    17    20    1
@<TRIPOS>SUBSTRUCTURE
       1 MOL1            1 RESIDUE      1      MOL     
@<SCITEGIC>MOL_PROPERTY
VConf Rank
SciTegic.value.IntegerValue
166

@<SCITEGIC>MOL_PROPERTY
Conf_Id
SciTegic.value.IntegerValue
50

@<SCITEGIC>MOL_PROPERTY
Delta U+W
SciTegic.value.DoubleValue
0.466

@<SCITEGIC>MOL_PROPERTY
U+W
SciTegic.value.DoubleValue
-35.811

@<SCITEGIC>MOL_PROPERTY
Grad RMS
SciTegic.value.DoubleValue
0.000000

@<SCITEGIC>MOL_PROPERTY
U
SciTegic.value.DoubleValue
22.369

@<SCITEGIC>MOL_PROPERTY
W
SciTegic.value.DoubleValue
-58.180

@<SCITEGIC>MOL_PROPERTY
W(PB)
SciTegic.value.DoubleValue
-60.103

@<SCITEGIC>MOL_PROPERTY
W(SA)
SciTegic.value.DoubleValue
1.923

@<SCITEGIC>MOL_PROPERTY
Valence
SciTegic.value.DoubleValue
2.168

@<SCITEGIC>MOL_PROPERTY
Coulomb
SciTegic.value.DoubleValue
19.636

@<SCITEGIC>MOL_PROPERTY
VdW
SciTegic.value.DoubleValue
0.566

@<SCITEGIC>MOL_PROPERTY
VdW6
SciTegic.value.DoubleValue
-5.263

@<SCITEGIC>MOL_PROPERTY
VdW12
SciTegic.value.DoubleValue
5.829

@<SCITEGIC>MOL_PROPERTY
Bond
SciTegic.value.DoubleValue
0.162

@<SCITEGIC>MOL_PROPERTY
Angle
SciTegic.value.DoubleValue
1.066

@<SCITEGIC>MOL_PROPERTY
Pdih
SciTegic.value.DoubleValue
0.939

@<SCITEGIC>MOL_PROPERTY
Idih
SciTegic.value.DoubleValue
0.000

@<SCITEGIC>MOL_PROPERTY
Tether
SciTegic.value.DoubleValue
0.000

@<TRIPOS>MOLECULE
guest-s10_confgen4.mol2 : confsearch ligand conformer 167
          20          19           1
SMALL
USER_CHARGES
 
@<TRIPOS>ATOM
       1    N1      19.293061   16.630723   22.535545 N.4        1 MOL1        -0.5937
       2    H1      20.185204   16.239361   22.221041 H          1 MOL1         0.3684
       3    H2      18.624065   16.525622   21.768556 H          1 MOL1         0.3684
       4    H3      18.963086   16.047252   23.309117 H          1 MOL1         0.3684
       5    C1      19.434441   18.069715   22.952549 C.3        1 MOL1         0.1270
       6    H4      20.165540   18.080508   23.766884 H          1 MOL1         0.0960
       7    C2      18.090474   18.597352   23.488568 C.3        1 MOL1        -0.2382
       8    H5      17.313913   18.559276   22.714508 H          1 MOL1         0.1009
       9    H6      18.172644   19.634383   23.831503 H          1 MOL1         0.1009
      10    H7      17.750395   17.994231   24.339285 H          1 MOL1         0.1009
      11    C3      19.979695   18.953659   21.803822 C.3        1 MOL1        -0.1392
      12    H8      20.431324   18.309386   21.037914 H          1 MOL1         0.0998
      13    H9      19.157102   19.478891   21.300350 H          1 MOL1         0.0998
      14    C4      21.063677   19.966591   22.251856 C.3        1 MOL1        -0.1302
      15    H10     21.443554   20.489848   21.363134 H          1 MOL1         0.0998
      16    H11     21.920488   19.424166   22.675804 H          1 MOL1         0.0998
      17    C5      20.566199   21.015437   23.271010 C.3        1 MOL1        -0.2317
      18    H12     19.682467   21.546399   22.894015 H          1 MOL1         0.1009
      19    H13     21.347335   21.761902   23.465063 H          1 MOL1         0.1009
      20    H14     20.311017   20.551344   24.231806 H          1 MOL1         0.1009
@<TRIPOS>BOND
    1     1     2    1
    2     1     3    1
    3     1     4    1
    4     1     5    1
    5     5     6    1
    6     5     7    1
    7     7     8    1
    8     7     9    1
    9     7    10    1
   10     5    11    1
   11    11    12    1
   12    11    13    1
   13    11    14    1
   14    14    15    1
   15    14    16    1
   16    14    17    1
   17    17    18    1
   18    17    19    1
   19    17    20    1
@<TRIPOS>SUBSTRUCTURE
       1 MOL1            1 RESIDUE      1      MOL     
@<SCITEGIC>MOL_PROPERTY
VConf Rank
SciTegic.value.IntegerValue
167

@<SCITEGIC>MOL_PROPERTY
Conf_Id
SciTegic.value.IntegerValue
3

@<SCITEGIC>MOL_PROPERTY
Delta U+W
SciTegic.value.DoubleValue
3.093

@<SCITEGIC>MOL_PROPERTY
U+W
SciTegic.value.DoubleValue
-33.184

@<SCITEGIC>MOL_PROPERTY
Grad RMS
SciTegic.value.DoubleValue
0.000000

@<SCITEGIC>MOL_PROPERTY
U
SciTegic.value.DoubleValue
25.256

@<SCITEGIC>MOL_PROPERTY
W
SciTegic.value.DoubleValue
-58.439

@<SCITEGIC>MOL_PROPERTY
W(PB)
SciTegic.value.DoubleValue
-60.337

@<SCITEGIC>MOL_PROPERTY
W(SA)
SciTegic.value.DoubleValue
1.898

@<SCITEGIC>MOL_PROPERTY
Valence
SciTegic.value.DoubleValue
4.963

@<SCITEGIC>MOL_PROPERTY
Coulomb
SciTegic.value.DoubleValue
19.511

@<SCITEGIC>MOL_PROPERTY
VdW
SciTegic.value.DoubleValue
0.782

@<SCITEGIC>MOL_PROPERTY
VdW6
SciTegic.value.DoubleValue
-5.429

@<SCITEGIC>MOL_PROPERTY
VdW12
SciTegic.value.DoubleValue
6.211

@<SCITEGIC>MOL_PROPERTY
Bond
SciTegic.value.DoubleValue
0.174

@<SCITEGIC>MOL_PROPERTY
Angle
SciTegic.value.DoubleValue
1.377

@<SCITEGIC>MOL_PROPERTY
Pdih
SciTegic.value.DoubleValue
3.412

@<SCITEGIC>MOL_PROPERTY
Idih
SciTegic.value.DoubleValue
0.000

@<SCITEGIC>MOL_PROPERTY
Tether
SciTegic.value.DoubleValue
0.000

@<TRIPOS>MOLECULE
guest-s10_confgen4.mol2 : confsearch ligand conformer 168
          20          19           1
SMALL
USER_CHARGES
 
@<TRIPOS>ATOM
       1    N1      21.460712   17.608773   23.263976 N.4        1 MOL1        -0.5937
       2    H1      22.040929   17.160967   22.549515 H          1 MOL1         0.3684
       3    H2      21.048217   16.862256   23.830006 H          1 MOL1         0.3684
       4    H3      22.085981   18.144026   23.871617 H          1 MOL1         0.3684
       5    C1      20.405688   18.485463   22.646951 C.3        1 MOL1         0.1270
       6    H4      19.793958   17.832223   22.017539 H          1 MOL1         0.0960
       7    C2      21.055439   19.555102   21.750404 C.3        1 MOL1        -0.2382
       8    H5      20.299780   20.112457   21.184834 H          1 MOL1         0.1009
       9    H6      21.729510   19.090422   21.020449 H          1 MOL1         0.1009
      10    H7      21.637765   20.270581   22.344099 H          1 MOL1         0.1009
      11    C3      19.493626   19.110534   23.729475 C.3        1 MOL1        -0.1392
      12    H8      19.125521   18.309537   24.384019 H          1 MOL1         0.0998
      13    H9      20.090518   19.775141   24.368031 H          1 MOL1         0.0998
      14    C4      18.272405   19.894562   23.184479 C.3        1 MOL1        -0.1302
      15    H10     18.605185   20.784148   22.632966 H          1 MOL1         0.0998
      16    H11     17.687597   20.270805   24.035526 H          1 MOL1         0.0998
      17    C5      17.353228   19.036167   22.285912 C.3        1 MOL1        -0.2317
      18    H12     17.009638   18.138199   22.815779 H          1 MOL1         0.1009
      19    H13     17.866997   18.718947   21.369682 H          1 MOL1         0.1009
      20    H14     16.465612   19.608158   21.985942 H          1 MOL1         0.1009
@<TRIPOS>BOND
    1     1     2    1
    2     1     3    1
    3     1     4    1
    4     1     5    1
    5     5     6    1
    6     5     7    1
    7     7     8    1
    8     7     9    1
    9     7    10    1
   10     5    11    1
   11    11    12    1
   12    11    13    1
   13    11    14    1
   14    14    15    1
   15    14    16    1
   16    14    17    1
   17    17    18    1
   18    17    19    1
   19    17    20    1
@<TRIPOS>SUBSTRUCTURE
       1 MOL1            1 RESIDUE      1      MOL     
@<SCITEGIC>MOL_PROPERTY
VConf Rank
SciTegic.value.IntegerValue
168

@<SCITEGIC>MOL_PROPERTY
Conf_Id
SciTegic.value.IntegerValue
64

@<SCITEGIC>MOL_PROPERTY
Delta U+W
SciTegic.value.DoubleValue
0.544

@<SCITEGIC>MOL_PROPERTY
U+W
SciTegic.value.DoubleValue
-35.732

@<SCITEGIC>MOL_PROPERTY
Grad RMS
SciTegic.value.DoubleValue
0.000000

@<SCITEGIC>MOL_PROPERTY
U
SciTegic.value.DoubleValue
22.800

@<SCITEGIC>MOL_PROPERTY
W
SciTegic.value.DoubleValue
-58.532

@<SCITEGIC>MOL_PROPERTY
W(PB)
SciTegic.value.DoubleValue
-60.437

@<SCITEGIC>MOL_PROPERTY
W(SA)
SciTegic.value.DoubleValue
1.905

@<SCITEGIC>MOL_PROPERTY
Valence
SciTegic.value.DoubleValue
2.662

@<SCITEGIC>MOL_PROPERTY
Coulomb
SciTegic.value.DoubleValue
19.485

@<SCITEGIC>MOL_PROPERTY
VdW
SciTegic.value.DoubleValue
0.653

@<SCITEGIC>MOL_PROPERTY
VdW6
SciTegic.value.DoubleValue
-5.460

@<SCITEGIC>MOL_PROPERTY
VdW12
SciTegic.value.DoubleValue
6.113

@<SCITEGIC>MOL_PROPERTY
Bond
SciTegic.value.DoubleValue
0.174

@<SCITEGIC>MOL_PROPERTY
Angle
SciTegic.value.DoubleValue
1.378

@<SCITEGIC>MOL_PROPERTY
Pdih
SciTegic.value.DoubleValue
1.109

@<SCITEGIC>MOL_PROPERTY
Idih
SciTegic.value.DoubleValue
0.000

@<SCITEGIC>MOL_PROPERTY
Tether
SciTegic.value.DoubleValue
0.000

@<TRIPOS>MOLECULE
guest-s10_confgen4.mol2 : confsearch ligand conformer 169
          20          19           1
SMALL
USER_CHARGES
 
@<TRIPOS>ATOM
       1    N1      17.726856   19.170175   23.104090 N.4        1 MOL1        -0.5937
       2    H1      18.127106   20.013305   23.521467 H          1 MOL1         0.3684
       3    H2      17.083734   18.765431   23.789794 H          1 MOL1         0.3684
       4    H3      17.167065   19.462158   22.298460 H          1 MOL1         0.3684
       5    C1      18.797671   18.189642   22.708181 C.3        1 MOL1         0.1270
       6    H4      18.272287   17.326783   22.286982 H          1 MOL1         0.0960
       7    C2      19.573480   17.697825   23.941048 C.3        1 MOL1        -0.2382
       8    H5      20.018221   18.532742   24.494968 H          1 MOL1         0.1009
       9    H6      20.373291   17.006038   23.649380 H          1 MOL1         0.1009
      10    H7      18.904429   17.162730   24.625895 H          1 MOL1         0.1009
      11    C3      19.721443   18.743543   21.594279 C.3        1 MOL1        -0.1392
      12    H8      20.366433   17.936999   21.221492 H          1 MOL1         0.0998
      13    H9      19.082464   19.017205   20.744398 H          1 MOL1         0.0998
      14    C4      20.586482   19.978672   21.970294 C.3        1 MOL1        -0.1302
      15    H10     20.075561   20.602829   22.715122 H          1 MOL1         0.0998
      16    H11     20.696273   20.609094   21.076708 H          1 MOL1         0.0998
      17    C5      22.005121   19.611942   22.465995 C.3        1 MOL1        -0.2317
      18    H12     21.981127   19.016952   23.385445 H          1 MOL1         0.1009
      19    H13     22.584541   20.520417   22.675546 H          1 MOL1         0.1009
      20    H14     22.551031   19.038462   21.705636 H          1 MOL1         0.1009
@<TRIPOS>BOND
    1     1     2    1
    2     1     3    1
    3     1     4    1
    4     1     5    1
    5     5     6    1
    6     5     7    1
    7     7     8    1
    8     7     9    1
    9     7    10    1
   10     5    11    1
   11    11    12    1
   12    11    13    1
   13    11    14    1
   14    14    15    1
   15    14    16    1
   16    14    17    1
   17    17    18    1
   18    17    19    1
   19    17    20    1
@<TRIPOS>SUBSTRUCTURE
       1 MOL1            1 RESIDUE      1      MOL     
@<SCITEGIC>MOL_PROPERTY
VConf Rank
SciTegic.value.IntegerValue
169

@<SCITEGIC>MOL_PROPERTY
Conf_Id
SciTegic.value.IntegerValue
35

@<SCITEGIC>MOL_PROPERTY
Delta U+W
SciTegic.value.DoubleValue
3.004

@<SCITEGIC>MOL_PROPERTY
U+W
SciTegic.value.DoubleValue
-33.272

@<SCITEGIC>MOL_PROPERTY
Grad RMS
SciTegic.value.DoubleValue
0.000000

@<SCITEGIC>MOL_PROPERTY
U
SciTegic.value.DoubleValue
25.367

@<SCITEGIC>MOL_PROPERTY
W
SciTegic.value.DoubleValue
-58.639

@<SCITEGIC>MOL_PROPERTY
W(PB)
SciTegic.value.DoubleValue
-60.512

@<SCITEGIC>MOL_PROPERTY
W(SA)
SciTegic.value.DoubleValue
1.873

@<SCITEGIC>MOL_PROPERTY
Valence
SciTegic.value.DoubleValue
4.943

@<SCITEGIC>MOL_PROPERTY
Coulomb
SciTegic.value.DoubleValue
19.661

@<SCITEGIC>MOL_PROPERTY
VdW
SciTegic.value.DoubleValue
0.764

@<SCITEGIC>MOL_PROPERTY
VdW6
SciTegic.value.DoubleValue
-5.871

@<SCITEGIC>MOL_PROPERTY
VdW12
SciTegic.value.DoubleValue
6.636

@<SCITEGIC>MOL_PROPERTY
Bond
SciTegic.value.DoubleValue
0.230

@<SCITEGIC>MOL_PROPERTY
Angle
SciTegic.value.DoubleValue
1.857

@<SCITEGIC>MOL_PROPERTY
Pdih
SciTegic.value.DoubleValue
2.855

@<SCITEGIC>MOL_PROPERTY
Idih
SciTegic.value.DoubleValue
0.000

@<SCITEGIC>MOL_PROPERTY
Tether
SciTegic.value.DoubleValue
0.000

@<TRIPOS>MOLECULE
guest-s10_confgen4.mol2 : confsearch ligand conformer 170
          20          19           1
SMALL
USER_CHARGES
 
@<TRIPOS>ATOM
       1    N1      18.253557   19.431447   23.445279 N.4        1 MOL1        -0.5937
       2    H1      17.327615   19.024022   23.600962 H          1 MOL1         0.3684
       3    H2      18.165134   20.443910   23.566448 H          1 MOL1         0.3684
       4    H3      18.871439   19.087876   24.182963 H          1 MOL1         0.3684
       5    C1      18.787285   19.084402   22.082503 C.3        1 MOL1         0.1270
       6    H4      18.073272   19.515600   21.373857 H          1 MOL1         0.0960
       7    C2      18.796941   17.562477   21.854114 C.3        1 MOL1        -0.2382
       8    H5      19.422337   17.046221   22.592121 H          1 MOL1         0.1009
       9    H6      19.175693   17.321873   20.853077 H          1 MOL1         0.1009
      10    H7      17.781311   17.155785   21.931995 H          1 MOL1         0.1009
      11    C3      20.162486   19.735313   21.785094 C.3        1 MOL1        -0.1392
      12    H8      20.320578   19.696520   20.699255 H          1 MOL1         0.0998
      13    H9      20.111259   20.803481   22.033306 H          1 MOL1         0.0998
      14    C4      21.410376   19.109580   22.469070 C.3        1 MOL1        -0.1302
      15    H10     22.298025   19.655218   22.119525 H          1 MOL1         0.0998
      16    H11     21.550218   18.073514   22.131961 H          1 MOL1         0.0998
      17    C5      21.390540   19.155349   24.013879 C.3        1 MOL1        -0.2317
      18    H12     21.166822   20.165953   24.379624 H          1 MOL1         0.1009
      19    H13     22.370682   18.866163   24.414958 H          1 MOL1         0.1009
      20    H14     20.655041   18.456839   24.429081 H          1 MOL1         0.1009
@<TRIPOS>BOND
    1     1     2    1
    2     1     3    1
    3     1     4    1
    4     1     5    1
    5     5     6    1
    6     5     7    1
    7     7     8    1
    8     7     9    1
    9     7    10    1
   10     5    11    1
   11    11    12    1
   12    11    13    1
   13    11    14    1
   14    14    15    1
   15    14    16    1
   16    14    17    1
   17    17    18    1
   18    17    19    1
   19    17    20    1
@<TRIPOS>SUBSTRUCTURE
       1 MOL1            1 RESIDUE      1      MOL     
@<SCITEGIC>MOL_PROPERTY
VConf Rank
SciTegic.value.IntegerValue
170

@<SCITEGIC>MOL_PROPERTY
Conf_Id
SciTegic.value.IntegerValue
55

@<SCITEGIC>MOL_PROPERTY
Delta U+W
SciTegic.value.DoubleValue
2.767

@<SCITEGIC>MOL_PROPERTY
U+W
SciTegic.value.DoubleValue
-33.509

@<SCITEGIC>MOL_PROPERTY
Grad RMS
SciTegic.value.DoubleValue
0.000000

@<SCITEGIC>MOL_PROPERTY
U
SciTegic.value.DoubleValue
24.552

@<SCITEGIC>MOL_PROPERTY
W
SciTegic.value.DoubleValue
-58.061

@<SCITEGIC>MOL_PROPERTY
W(PB)
SciTegic.value.DoubleValue
-59.930

@<SCITEGIC>MOL_PROPERTY
W(SA)
SciTegic.value.DoubleValue
1.869

@<SCITEGIC>MOL_PROPERTY
Valence
SciTegic.value.DoubleValue
3.726

@<SCITEGIC>MOL_PROPERTY
Coulomb
SciTegic.value.DoubleValue
20.219

@<SCITEGIC>MOL_PROPERTY
VdW
SciTegic.value.DoubleValue
0.606

@<SCITEGIC>MOL_PROPERTY
VdW6
SciTegic.value.DoubleValue
-6.395

@<SCITEGIC>MOL_PROPERTY
VdW12
SciTegic.value.DoubleValue
7.001

@<SCITEGIC>MOL_PROPERTY
Bond
SciTegic.value.DoubleValue
0.241

@<SCITEGIC>MOL_PROPERTY
Angle
SciTegic.value.DoubleValue
2.098

@<SCITEGIC>MOL_PROPERTY
Pdih
SciTegic.value.DoubleValue
1.387

@<SCITEGIC>MOL_PROPERTY
Idih
SciTegic.value.DoubleValue
0.000

@<SCITEGIC>MOL_PROPERTY
Tether
SciTegic.value.DoubleValue
0.000

@<TRIPOS>MOLECULE
guest-s10_confgen4.mol2 : confsearch ligand conformer 171
          20          19           1
SMALL
USER_CHARGES
 
@<TRIPOS>ATOM
       1    N1      20.715202   20.453811   21.880262 N.4        1 MOL1        -0.5937
       2    H1      20.763736   20.068870   20.933684 H          1 MOL1         0.3684
       3    H2      21.486752   21.119097   21.979066 H          1 MOL1         0.3684
       4    H3      19.844398   20.985962   21.951665 H          1 MOL1         0.3684
       5    C1      20.786606   19.369034   22.921041 C.3        1 MOL1         0.1270
       6    H4      20.724322   19.863187   23.895628 H          1 MOL1         0.0960
       7    C2      22.133290   18.631485   22.840843 C.3        1 MOL1        -0.2382
       8    H5      22.968241   19.333701   22.954923 H          1 MOL1         0.1009
       9    H6      22.248183   18.117386   21.878400 H          1 MOL1         0.1009
      10    H7      22.216814   17.883853   23.639410 H          1 MOL1         0.1009
      11    C3      19.617467   18.365217   22.813263 C.3        1 MOL1        -0.1392
      12    H8      19.643114   17.871544   21.832678 H          1 MOL1         0.0998
      13    H9      19.757655   17.576336   23.564316 H          1 MOL1         0.0998
      14    C4      18.233163   19.021921   23.032264 C.3        1 MOL1        -0.1302
      15    H10     18.044423   19.777569   22.257798 H          1 MOL1         0.0998
      16    H11     18.220657   19.546145   23.998326 H          1 MOL1         0.0998
      17    C5      17.096098   17.978126   23.002631 C.3        1 MOL1        -0.2317
      18    H12     17.063102   17.457347   22.036734 H          1 MOL1         0.1009
      19    H13     16.122492   18.460864   23.158001 H          1 MOL1         0.1009
      20    H14     17.228290   17.226473   23.791792 H          1 MOL1         0.1009
@<TRIPOS>BOND
    1     1     2    1
    2     1     3    1
    3     1     4    1
    4     1     5    1
    5     5     6    1
    6     5     7    1
    7     7     8    1
    8     7     9    1
    9     7    10    1
   10     5    11    1
   11    11    12    1
   12    11    13    1
   13    11    14    1
   14    14    15    1
   15    14    16    1
   16    14    17    1
   17    17    18    1
   18    17    19    1
   19    17    20    1
@<TRIPOS>SUBSTRUCTURE
       1 MOL1            1 RESIDUE      1      MOL     
@<SCITEGIC>MOL_PROPERTY
VConf Rank
SciTegic.value.IntegerValue
171

@<SCITEGIC>MOL_PROPERTY
Conf_Id
SciTegic.value.IntegerValue
74

@<SCITEGIC>MOL_PROPERTY
Delta U+W
SciTegic.value.DoubleValue
0.000

@<SCITEGIC>MOL_PROPERTY
U+W
SciTegic.value.DoubleValue
-36.276

@<SCITEGIC>MOL_PROPERTY
Grad RMS
SciTegic.value.DoubleValue
0.000000

@<SCITEGIC>MOL_PROPERTY
U
SciTegic.value.DoubleValue
22.080

@<SCITEGIC>MOL_PROPERTY
W
SciTegic.value.DoubleValue
-58.356

@<SCITEGIC>MOL_PROPERTY
W(PB)
SciTegic.value.DoubleValue
-60.289

@<SCITEGIC>MOL_PROPERTY
W(SA)
SciTegic.value.DoubleValue
1.932

@<SCITEGIC>MOL_PROPERTY
Valence
SciTegic.value.DoubleValue
1.885

@<SCITEGIC>MOL_PROPERTY
Coulomb
SciTegic.value.DoubleValue
19.559

@<SCITEGIC>MOL_PROPERTY
VdW
SciTegic.value.DoubleValue
0.637

@<SCITEGIC>MOL_PROPERTY
VdW6
SciTegic.value.DoubleValue
-4.482

@<SCITEGIC>MOL_PROPERTY
VdW12
SciTegic.value.DoubleValue
5.119

@<SCITEGIC>MOL_PROPERTY
Bond
SciTegic.value.DoubleValue
0.136

@<SCITEGIC>MOL_PROPERTY
Angle
SciTegic.value.DoubleValue
0.867

@<SCITEGIC>MOL_PROPERTY
Pdih
SciTegic.value.DoubleValue
0.882

@<SCITEGIC>MOL_PROPERTY
Idih
SciTegic.value.DoubleValue
0.000

@<SCITEGIC>MOL_PROPERTY
Tether
SciTegic.value.DoubleValue
0.000

@<TRIPOS>MOLECULE
guest-s10_confgen4.mol2 : confsearch ligand conformer 172
          20          19           1
SMALL
USER_CHARGES
 
@<TRIPOS>ATOM
       1    N1      20.856902   17.089058   21.686464 N.4        1 MOL1        -0.5937
       2    H1      20.165687   16.787836   20.994117 H          1 MOL1         0.3684
       3    H2      20.809804   16.434361   22.471244 H          1 MOL1         0.3684
       4    H3      21.780121   16.983437   21.257291 H          1 MOL1         0.3684
       5    C1      20.615731   18.505089   22.132736 C.3        1 MOL1         0.1270
       6    H4      20.687769   19.127443   21.235322 H          1 MOL1         0.0960
       7    C2      21.711085   18.947509   23.120290 C.3        1 MOL1        -0.2382
       8    H5      22.707377   18.771351   22.696506 H          1 MOL1         0.1009
       9    H6      21.641076   18.394316   24.065095 H          1 MOL1         0.1009
      10    H7      21.639447   20.018331   23.342622 H          1 MOL1         0.1009
      11    C3      19.196323   18.671259   22.723631 C.3        1 MOL1        -0.1392
      12    H8      18.473751   18.239881   22.018319 H          1 MOL1         0.0998
      13    H9      19.111123   18.088685   23.650560 H          1 MOL1         0.0998
      14    C4      18.799879   20.143244   22.994287 C.3        1 MOL1        -0.1302
      15    H10     18.945298   20.739918   22.082748 H          1 MOL1         0.0998
      16    H11     19.449276   20.577191   23.766217 H          1 MOL1         0.0998
      17    C5      17.330971   20.262215   23.454543 C.3        1 MOL1        -0.2317
      18    H12     16.643965   19.877551   22.689497 H          1 MOL1         0.1009
      19    H13     17.068186   21.310852   23.645313 H          1 MOL1         0.1009
      20    H14     17.160687   19.698710   24.381217 H          1 MOL1         0.1009
@<TRIPOS>BOND
    1     1     2    1
    2     1     3    1
    3     1     4    1
    4     1     5    1
    5     5     6    1
    6     5     7    1
    7     7     8    1
    8     7     9    1
    9     7    10    1
   10     5    11    1
   11    11    12    1
   12    11    13    1
   13    11    14    1
   14    14    15    1
   15    14    16    1
   16    14    17    1
   17    17    18    1
   18    17    19    1
   19    17    20    1
@<TRIPOS>SUBSTRUCTURE
       1 MOL1            1 RESIDUE      1      MOL     
@<SCITEGIC>MOL_PROPERTY
VConf Rank
SciTegic.value.IntegerValue
172

@<SCITEGIC>MOL_PROPERTY
Conf_Id
SciTegic.value.IntegerValue
80

@<SCITEGIC>MOL_PROPERTY
Delta U+W
SciTegic.value.DoubleValue
0.460

@<SCITEGIC>MOL_PROPERTY
U+W
SciTegic.value.DoubleValue
-35.817

@<SCITEGIC>MOL_PROPERTY
Grad RMS
SciTegic.value.DoubleValue
0.000000

@<SCITEGIC>MOL_PROPERTY
U
SciTegic.value.DoubleValue
22.495

@<SCITEGIC>MOL_PROPERTY
W
SciTegic.value.DoubleValue
-58.311

@<SCITEGIC>MOL_PROPERTY
W(PB)
SciTegic.value.DoubleValue
-60.259

@<SCITEGIC>MOL_PROPERTY
W(SA)
SciTegic.value.DoubleValue
1.948

@<SCITEGIC>MOL_PROPERTY
Valence
SciTegic.value.DoubleValue
2.419

@<SCITEGIC>MOL_PROPERTY
Coulomb
SciTegic.value.DoubleValue
19.304

@<SCITEGIC>MOL_PROPERTY
VdW
SciTegic.value.DoubleValue
0.772

@<SCITEGIC>MOL_PROPERTY
VdW6
SciTegic.value.DoubleValue
-4.635

@<SCITEGIC>MOL_PROPERTY
VdW12
SciTegic.value.DoubleValue
5.407

@<SCITEGIC>MOL_PROPERTY
Bond
SciTegic.value.DoubleValue
0.149

@<SCITEGIC>MOL_PROPERTY
Angle
SciTegic.value.DoubleValue
1.142

@<SCITEGIC>MOL_PROPERTY
Pdih
SciTegic.value.DoubleValue
1.129

@<SCITEGIC>MOL_PROPERTY
Idih
SciTegic.value.DoubleValue
0.000

@<SCITEGIC>MOL_PROPERTY
Tether
SciTegic.value.DoubleValue
0.000

@<TRIPOS>MOLECULE
guest-s10_confgen4.mol2 : confsearch ligand conformer 173
          20          19           1
SMALL
USER_CHARGES
 
@<TRIPOS>ATOM
       1    N1      18.054632   17.195086   22.573238 N.4        1 MOL1        -0.5937
       2    H1      18.036612   16.610325   23.413203 H          1 MOL1         0.3684
       3    H2      18.527205   16.662138   21.838848 H          1 MOL1         0.3684
       4    H3      17.084108   17.327473   22.276301 H          1 MOL1         0.3684
       5    C1      18.737439   18.511264   22.826612 C.3        1 MOL1         0.1270
       6    H4      18.162873   19.007526   23.614899 H          1 MOL1         0.0960
       7    C2      18.679996   19.391990   21.566739 C.3        1 MOL1        -0.2382
       8    H5      17.655346   19.447677   21.179267 H          1 MOL1         0.1009
       9    H6      19.323571   18.993616   20.772659 H          1 MOL1         0.1009
      10    H7      18.994904   20.417640   21.790080 H          1 MOL1         0.1009
      11    C3      20.180309   18.297802   23.346127 C.3        1 MOL1        -0.1392
      12    H8      20.121425   17.632264   24.217496 H          1 MOL1         0.0998
      13    H9      20.776813   17.758296   22.598567 H          1 MOL1         0.0998
      14    C4      20.915765   19.590506   23.788466 C.3        1 MOL1        -0.1302
      15    H10     21.532583   19.358964   24.668261 H          1 MOL1         0.0998
      16    H11     20.191553   20.347887   24.119914 H          1 MOL1         0.0998
      17    C5      21.844262   20.173793   22.697272 C.3        1 MOL1        -0.2317
      18    H12     22.619033   19.449570   22.413817 H          1 MOL1         0.1009
      19    H13     22.351216   21.074925   23.065976 H          1 MOL1         0.1009
      20    H14     21.294191   20.450316   21.790907 H          1 MOL1         0.1009
@<TRIPOS>BOND
    1     1     2    1
    2     1     3    1
    3     1     4    1
    4     1     5    1
    5     5     6    1
    6     5     7    1
    7     7     8    1
    8     7     9    1
    9     7    10    1
   10     5    11    1
   11    11    12    1
   12    11    13    1
   13    11    14    1
   14    14    15    1
   15    14    16    1
   16    14    17    1
   17    17    18    1
   18    17    19    1
   19    17    20    1
@<TRIPOS>SUBSTRUCTURE
       1 MOL1            1 RESIDUE      1      MOL     
@<SCITEGIC>MOL_PROPERTY
VConf Rank
SciTegic.value.IntegerValue
173

@<SCITEGIC>MOL_PROPERTY
Conf_Id
SciTegic.value.IntegerValue
52

@<SCITEGIC>MOL_PROPERTY
Delta U+W
SciTegic.value.DoubleValue
2.995

@<SCITEGIC>MOL_PROPERTY
U+W
SciTegic.value.DoubleValue
-33.282

@<SCITEGIC>MOL_PROPERTY
Grad RMS
SciTegic.value.DoubleValue
0.000000

@<SCITEGIC>MOL_PROPERTY
U
SciTegic.value.DoubleValue
25.224

@<SCITEGIC>MOL_PROPERTY
W
SciTegic.value.DoubleValue
-58.506

@<SCITEGIC>MOL_PROPERTY
W(PB)
SciTegic.value.DoubleValue
-60.411

@<SCITEGIC>MOL_PROPERTY
W(SA)
SciTegic.value.DoubleValue
1.905

@<SCITEGIC>MOL_PROPERTY
Valence
SciTegic.value.DoubleValue
4.945

@<SCITEGIC>MOL_PROPERTY
Coulomb
SciTegic.value.DoubleValue
19.467

@<SCITEGIC>MOL_PROPERTY
VdW
SciTegic.value.DoubleValue
0.813

@<SCITEGIC>MOL_PROPERTY
VdW6
SciTegic.value.DoubleValue
-5.458

@<SCITEGIC>MOL_PROPERTY
VdW12
SciTegic.value.DoubleValue
6.270

@<SCITEGIC>MOL_PROPERTY
Bond
SciTegic.value.DoubleValue
0.200

@<SCITEGIC>MOL_PROPERTY
Angle
SciTegic.value.DoubleValue
1.675

@<SCITEGIC>MOL_PROPERTY
Pdih
SciTegic.value.DoubleValue
3.070

@<SCITEGIC>MOL_PROPERTY
Idih
SciTegic.value.DoubleValue
0.000

@<SCITEGIC>MOL_PROPERTY
Tether
SciTegic.value.DoubleValue
0.000

@<TRIPOS>MOLECULE
guest-s10_confgen4.mol2 : confsearch ligand conformer 174
          20          19           1
SMALL
USER_CHARGES
 
@<TRIPOS>ATOM
       1    N1      21.339721   19.101376   22.417450 N.4        1 MOL1        -0.5937
       2    H1      21.510537   18.344818   21.750503 H          1 MOL1         0.3684
       3    H2      22.237160   19.336734   22.849720 H          1 MOL1         0.3684
       4    H3      21.030962   19.916301   21.883082 H          1 MOL1         0.3684
       5    C1      20.317505   18.704287   23.447326 C.3        1 MOL1         0.1270
       6    H4      20.224957   19.539657   24.148273 H          1 MOL1         0.0960
       7    C2      20.813426   17.474874   24.227304 C.3        1 MOL1        -0.2382
       8    H5      20.908873   16.600459   23.571449 H          1 MOL1         0.1009
       9    H6      20.119648   17.219990   25.038077 H          1 MOL1         0.1009
      10    H7      21.793024   17.671045   24.680339 H          1 MOL1         0.1009
      11    C3      18.924111   18.427906   22.833891 C.3        1 MOL1        -0.1392
      12    H8      19.024534   17.779886   21.953233 H          1 MOL1         0.0998
      13    H9      18.329247   17.857215   23.559517 H          1 MOL1         0.0998
      14    C4      18.109085   19.697546   22.472845 C.3        1 MOL1        -0.1302
      15    H10     17.972681   20.317505   23.370108 H          1 MOL1         0.0998
      16    H11     17.101489   19.381942   22.167606 H          1 MOL1         0.0998
      17    C5      18.713812   20.556875   21.339238 C.3        1 MOL1        -0.2317
      18    H12     17.988716   21.311857   21.008294 H          1 MOL1         0.1009
      19    H13     18.974333   19.942425   20.467517 H          1 MOL1         0.1009
      20    H14     19.606571   21.097573   21.674003 H          1 MOL1         0.1009
@<TRIPOS>BOND
    1     1     2    1
    2     1     3    1
    3     1     4    1
    4     1     5    1
    5     5     6    1
    6     5     7    1
    7     7     8    1
    8     7     9    1
    9     7    10    1
   10     5    11    1
   11    11    12    1
   12    11    13    1
   13    11    14    1
   14    14    15    1
   15    14    16    1
   16    14    17    1
   17    17    18    1
   18    17    19    1
   19    17    20    1
@<TRIPOS>SUBSTRUCTURE
       1 MOL1            1 RESIDUE      1      MOL     
@<SCITEGIC>MOL_PROPERTY
VConf Rank
SciTegic.value.IntegerValue
174

@<SCITEGIC>MOL_PROPERTY
Conf_Id
SciTegic.value.IntegerValue
54

@<SCITEGIC>MOL_PROPERTY
Delta U+W
SciTegic.value.DoubleValue
2.752

@<SCITEGIC>MOL_PROPERTY
U+W
SciTegic.value.DoubleValue
-33.525

@<SCITEGIC>MOL_PROPERTY
Grad RMS
SciTegic.value.DoubleValue
0.000000

@<SCITEGIC>MOL_PROPERTY
U
SciTegic.value.DoubleValue
24.337

@<SCITEGIC>MOL_PROPERTY
W
SciTegic.value.DoubleValue
-57.862

@<SCITEGIC>MOL_PROPERTY
W(PB)
SciTegic.value.DoubleValue
-59.764

@<SCITEGIC>MOL_PROPERTY
W(SA)
SciTegic.value.DoubleValue
1.901

@<SCITEGIC>MOL_PROPERTY
Valence
SciTegic.value.DoubleValue
3.593

@<SCITEGIC>MOL_PROPERTY
Coulomb
SciTegic.value.DoubleValue
20.067

@<SCITEGIC>MOL_PROPERTY
VdW
SciTegic.value.DoubleValue
0.677

@<SCITEGIC>MOL_PROPERTY
VdW6
SciTegic.value.DoubleValue
-5.466

@<SCITEGIC>MOL_PROPERTY
VdW12
SciTegic.value.DoubleValue
6.144

@<SCITEGIC>MOL_PROPERTY
Bond
SciTegic.value.DoubleValue
0.191

@<SCITEGIC>MOL_PROPERTY
Angle
SciTegic.value.DoubleValue
1.557

@<SCITEGIC>MOL_PROPERTY
Pdih
SciTegic.value.DoubleValue
1.845

@<SCITEGIC>MOL_PROPERTY
Idih
SciTegic.value.DoubleValue
0.000

@<SCITEGIC>MOL_PROPERTY
Tether
SciTegic.value.DoubleValue
0.000

@<TRIPOS>MOLECULE
guest-s10_confgen4.mol2 : confsearch ligand conformer 175
          20          19           1
SMALL
USER_CHARGES
 
@<TRIPOS>ATOM
       1    N1      19.017481   17.205979   21.883209 N.4        1 MOL1        -0.5937
       2    H1      18.808562   16.222989   22.077471 H          1 MOL1         0.3684
       3    H2      19.251663   17.275970   20.889241 H          1 MOL1         0.3684
       4    H3      18.156670   17.736665   22.034289 H          1 MOL1         0.3684
       5    C1      20.136134   17.713334   22.752170 C.3        1 MOL1         0.1270
       6    H4      21.000597   17.078397   22.534039 H          1 MOL1         0.0960
       7    C2      19.799160   17.541117   24.244025 C.3        1 MOL1        -0.2382
       8    H5      20.616261   17.913728   24.874088 H          1 MOL1         0.1009
       9    H6      19.652055   16.480997   24.484008 H          1 MOL1         0.1009
      10    H7      18.882244   18.076244   24.517788 H          1 MOL1         0.1009
      11    C3      20.538931   19.168079   22.410813 C.3        1 MOL1        -0.1392
      12    H8      21.413742   19.442991   23.014854 H          1 MOL1         0.0998
      13    H9      20.873191   19.199363   21.365491 H          1 MOL1         0.0998
      14    C4      19.421483   20.222724   22.619088 C.3        1 MOL1        -0.1302
      15    H10     19.109285   20.242919   23.671769 H          1 MOL1         0.0998
      16    H11     18.534502   19.957284   22.028352 H          1 MOL1         0.0998
      17    C5      19.892750   21.635194   22.211454 C.3        1 MOL1        -0.2317
      18    H12     19.092640   22.370658   22.366318 H          1 MOL1         0.1009
      19    H13     20.177647   21.666539   21.151703 H          1 MOL1         0.1009
      20    H14     20.759078   21.950132   22.807703 H          1 MOL1         0.1009
@<TRIPOS>BOND
    1     1     2    1
    2     1     3    1
    3     1     4    1
    4     1     5    1
    5     5     6    1
    6     5     7    1
    7     7     8    1
    8     7     9    1
    9     7    10    1
   10     5    11    1
   11    11    12    1
   12    11    13    1
   13    11    14    1
   14    14    15    1
   15    14    16    1
   16    14    17    1
   17    17    18    1
   18    17    19    1
   19    17    20    1
@<TRIPOS>SUBSTRUCTURE
       1 MOL1            1 RESIDUE      1      MOL     
@<SCITEGIC>MOL_PROPERTY
VConf Rank
SciTegic.value.IntegerValue
175

@<SCITEGIC>MOL_PROPERTY
Conf_Id
SciTegic.value.IntegerValue
63

@<SCITEGIC>MOL_PROPERTY
Delta U+W
SciTegic.value.DoubleValue
0.420

@<SCITEGIC>MOL_PROPERTY
U+W
SciTegic.value.DoubleValue
-35.856

@<SCITEGIC>MOL_PROPERTY
Grad RMS
SciTegic.value.DoubleValue
0.000000

@<SCITEGIC>MOL_PROPERTY
U
SciTegic.value.DoubleValue
22.625

@<SCITEGIC>MOL_PROPERTY
W
SciTegic.value.DoubleValue
-58.481

@<SCITEGIC>MOL_PROPERTY
W(PB)
SciTegic.value.DoubleValue
-60.400

@<SCITEGIC>MOL_PROPERTY
W(SA)
SciTegic.value.DoubleValue
1.919

@<SCITEGIC>MOL_PROPERTY
Valence
SciTegic.value.DoubleValue
2.404

@<SCITEGIC>MOL_PROPERTY
Coulomb
SciTegic.value.DoubleValue
19.464

@<SCITEGIC>MOL_PROPERTY
VdW
SciTegic.value.DoubleValue
0.757

@<SCITEGIC>MOL_PROPERTY
VdW6
SciTegic.value.DoubleValue
-5.074

@<SCITEGIC>MOL_PROPERTY
VdW12
SciTegic.value.DoubleValue
5.830

@<SCITEGIC>MOL_PROPERTY
Bond
SciTegic.value.DoubleValue
0.172

@<SCITEGIC>MOL_PROPERTY
Angle
SciTegic.value.DoubleValue
1.207

@<SCITEGIC>MOL_PROPERTY
Pdih
SciTegic.value.DoubleValue
1.025

@<SCITEGIC>MOL_PROPERTY
Idih
SciTegic.value.DoubleValue
0.000

@<SCITEGIC>MOL_PROPERTY
Tether
SciTegic.value.DoubleValue
0.000

@<TRIPOS>MOLECULE
guest-s10_confgen4.mol2 : confsearch ligand conformer 176
          20          19           1
SMALL
USER_CHARGES
 
@<TRIPOS>ATOM
       1    N1      18.197817   18.126606   23.211891 N.4        1 MOL1        -0.5937
       2    H1      18.545599   17.385824   22.597754 H          1 MOL1         0.3684
       3    H2      17.389229   18.553054   22.752817 H          1 MOL1         0.3684
       4    H3      17.862450   17.680272   24.069712 H          1 MOL1         0.3684
       5    C1      19.267723   19.144374   23.501074 C.3        1 MOL1         0.1270
       6    H4      20.087107   18.609265   23.990358 H          1 MOL1         0.0960
       7    C2      18.748925   20.216455   24.473186 C.3        1 MOL1        -0.2382
       8    H5      18.393702   19.757493   25.403996 H          1 MOL1         0.1009
       9    H6      17.919068   20.783743   24.033554 H          1 MOL1         0.1009
      10    H7      19.545677   20.923935   24.734492 H          1 MOL1         0.1009
      11    C3      19.818604   19.804148   22.216468 C.3        1 MOL1        -0.1392
      12    H8      19.013439   20.360776   21.718767 H          1 MOL1         0.0998
      13    H9      20.578417   20.546847   22.493973 H          1 MOL1         0.0998
      14    C4      20.443677   18.806913   21.208151 C.3        1 MOL1        -0.1302
      15    H10     20.800010   19.367659   20.332654 H          1 MOL1         0.0998
      16    H11     19.677030   18.116018   20.832011 H          1 MOL1         0.0998
      17    C5      21.623239   18.003831   21.802339 C.3        1 MOL1        -0.2317
      18    H12     22.403632   18.674227   22.185400 H          1 MOL1         0.1009
      19    H13     22.078693   17.364791   21.034708 H          1 MOL1         0.1009
      20    H14     21.297320   17.352903   22.623294 H          1 MOL1         0.1009
@<TRIPOS>BOND
    1     1     2    1
    2     1     3    1
    3     1     4    1
    4     1     5    1
    5     5     6    1
    6     5     7    1
    7     7     8    1
    8     7     9    1
    9     7    10    1
   10     5    11    1
   11    11    12    1
   12    11    13    1
   13    11    14    1
   14    14    15    1
   15    14    16    1
   16    14    17    1
   17    17    18    1
   18    17    19    1
   19    17    20    1
@<TRIPOS>SUBSTRUCTURE
       1 MOL1            1 RESIDUE      1      MOL     
@<SCITEGIC>MOL_PROPERTY
VConf Rank
SciTegic.value.IntegerValue
176

@<SCITEGIC>MOL_PROPERTY
Conf_Id
SciTegic.value.IntegerValue
50

@<SCITEGIC>MOL_PROPERTY
Delta U+W
SciTegic.value.DoubleValue
0.466

@<SCITEGIC>MOL_PROPERTY
U+W
SciTegic.value.DoubleValue
-35.811

@<SCITEGIC>MOL_PROPERTY
Grad RMS
SciTegic.value.DoubleValue
0.000000

@<SCITEGIC>MOL_PROPERTY
U
SciTegic.value.DoubleValue
22.369

@<SCITEGIC>MOL_PROPERTY
W
SciTegic.value.DoubleValue
-58.180

@<SCITEGIC>MOL_PROPERTY
W(PB)
SciTegic.value.DoubleValue
-60.103

@<SCITEGIC>MOL_PROPERTY
W(SA)
SciTegic.value.DoubleValue
1.923

@<SCITEGIC>MOL_PROPERTY
Valence
SciTegic.value.DoubleValue
2.168

@<SCITEGIC>MOL_PROPERTY
Coulomb
SciTegic.value.DoubleValue
19.636

@<SCITEGIC>MOL_PROPERTY
VdW
SciTegic.value.DoubleValue
0.566

@<SCITEGIC>MOL_PROPERTY
VdW6
SciTegic.value.DoubleValue
-5.263

@<SCITEGIC>MOL_PROPERTY
VdW12
SciTegic.value.DoubleValue
5.829

@<SCITEGIC>MOL_PROPERTY
Bond
SciTegic.value.DoubleValue
0.162

@<SCITEGIC>MOL_PROPERTY
Angle
SciTegic.value.DoubleValue
1.066

@<SCITEGIC>MOL_PROPERTY
Pdih
SciTegic.value.DoubleValue
0.939

@<SCITEGIC>MOL_PROPERTY
Idih
SciTegic.value.DoubleValue
0.000

@<SCITEGIC>MOL_PROPERTY
Tether
SciTegic.value.DoubleValue
0.000

@<TRIPOS>MOLECULE
guest-s10_confgen4.mol2 : confsearch ligand conformer 177
          20          19           1
SMALL
USER_CHARGES
 
@<TRIPOS>ATOM
       1    N1      21.711303   17.887011   22.257315 N.4        1 MOL1        -0.5937
       2    H1      21.631855   16.941445   22.641489 H          1 MOL1         0.3684
       3    H2      22.428479   18.378502   22.796728 H          1 MOL1         0.3684
       4    H3      22.060385   17.795639   21.299438 H          1 MOL1         0.3684
       5    C1      20.394546   18.614469   22.296520 C.3        1 MOL1         0.1270
       6    H4      19.698196   18.016380   21.700576 H          1 MOL1         0.0960
       7    C2      20.539172   20.001291   21.642476 C.3        1 MOL1        -0.2382
       8    H5      21.266812   20.619280   22.183118 H          1 MOL1         0.1009
       9    H6      19.585989   20.540719   21.626689 H          1 MOL1         0.1009
      10    H7      20.881362   19.905133   20.604792 H          1 MOL1         0.1009
      11    C3      19.832677   18.715879   23.736051 C.3        1 MOL1        -0.1392
      12    H8      20.345847   17.984634   24.374496 H          1 MOL1         0.0998
      13    H9      20.062264   19.698597   24.169141 H          1 MOL1         0.0998
      14    C4      18.312822   18.430517   23.837980 C.3        1 MOL1        -0.1302
      15    H10     18.022926   18.448099   24.897973 H          1 MOL1         0.0998
      16    H11     18.105738   17.411426   23.482099 H          1 MOL1         0.0998
      17    C5      17.428072   19.433005   23.064371 C.3        1 MOL1        -0.2317
      18    H12     17.641939   20.466244   23.367199 H          1 MOL1         0.1009
      19    H13     16.365921   19.239375   23.262827 H          1 MOL1         0.1009
      20    H14     17.579375   19.348400   21.981052 H          1 MOL1         0.1009
@<TRIPOS>BOND
    1     1     2    1
    2     1     3    1
    3     1     4    1
    4     1     5    1
    5     5     6    1
    6     5     7    1
    7     7     8    1
    8     7     9    1
    9     7    10    1
   10     5    11    1
   11    11    12    1
   12    11    13    1
   13    11    14    1
   14    14    15    1
   15    14    16    1
   16    14    17    1
   17    17    18    1
   18    17    19    1
   19    17    20    1
@<TRIPOS>SUBSTRUCTURE
       1 MOL1            1 RESIDUE      1      MOL     
@<SCITEGIC>MOL_PROPERTY
VConf Rank
SciTegic.value.IntegerValue
177

@<SCITEGIC>MOL_PROPERTY
Conf_Id
SciTegic.value.IntegerValue
3

@<SCITEGIC>MOL_PROPERTY
Delta U+W
SciTegic.value.DoubleValue
3.093

@<SCITEGIC>MOL_PROPERTY
U+W
SciTegic.value.DoubleValue
-33.184

@<SCITEGIC>MOL_PROPERTY
Grad RMS
SciTegic.value.DoubleValue
0.000000

@<SCITEGIC>MOL_PROPERTY
U
SciTegic.value.DoubleValue
25.256

@<SCITEGIC>MOL_PROPERTY
W
SciTegic.value.DoubleValue
-58.439

@<SCITEGIC>MOL_PROPERTY
W(PB)
SciTegic.value.DoubleValue
-60.337

@<SCITEGIC>MOL_PROPERTY
W(SA)
SciTegic.value.DoubleValue
1.898

@<SCITEGIC>MOL_PROPERTY
Valence
SciTegic.value.DoubleValue
4.963

@<SCITEGIC>MOL_PROPERTY
Coulomb
SciTegic.value.DoubleValue
19.511

@<SCITEGIC>MOL_PROPERTY
VdW
SciTegic.value.DoubleValue
0.782

@<SCITEGIC>MOL_PROPERTY
VdW6
SciTegic.value.DoubleValue
-5.429

@<SCITEGIC>MOL_PROPERTY
VdW12
SciTegic.value.DoubleValue
6.211

@<SCITEGIC>MOL_PROPERTY
Bond
SciTegic.value.DoubleValue
0.174

@<SCITEGIC>MOL_PROPERTY
Angle
SciTegic.value.DoubleValue
1.377

@<SCITEGIC>MOL_PROPERTY
Pdih
SciTegic.value.DoubleValue
3.412

@<SCITEGIC>MOL_PROPERTY
Idih
SciTegic.value.DoubleValue
0.000

@<SCITEGIC>MOL_PROPERTY
Tether
SciTegic.value.DoubleValue
0.000

@<TRIPOS>MOLECULE
guest-s10_confgen4.mol2 : confsearch ligand conformer 178
          20          19           1
SMALL
USER_CHARGES
 
@<TRIPOS>ATOM
       1    N1      18.870879   20.149384   24.520485 N.4        1 MOL1        -0.5937
       2    H1      18.845083   19.792365   25.479395 H          1 MOL1         0.3684
       3    H2      17.905237   20.350231   24.246578 H          1 MOL1         0.3684
       4    H3      19.374878   21.039466   24.541075 H          1 MOL1         0.3684
       5    C1      19.520973   19.167759   23.584445 C.3        1 MOL1         0.1270
       6    H4      18.920130   18.254629   23.632181 H          1 MOL1         0.0960
       7    C2      20.946909   18.836923   24.061260 C.3        1 MOL1        -0.2382
       8    H5      21.383683   18.021432   23.473266 H          1 MOL1         0.1009
       9    H6      20.938877   18.512994   25.109182 H          1 MOL1         0.1009
      10    H7      21.605497   19.710517   23.980112 H          1 MOL1         0.1009
      11    C3      19.501458   19.686725   22.126802 C.3        1 MOL1        -0.1392
      12    H8      18.474640   19.980612   21.872242 H          1 MOL1         0.0998
      13    H9      20.105485   20.601179   22.058545 H          1 MOL1         0.0998
      14    C4      19.996052   18.672790   21.063592 C.3        1 MOL1        -0.1302
      15    H10     21.063175   18.457401   21.208953 H          1 MOL1         0.0998
      16    H11     19.916480   19.137244   20.070722 H          1 MOL1         0.0998
      17    C5      19.191663   17.352901   21.064727 C.3        1 MOL1        -0.2317
      18    H12     18.119797   17.543468   20.923499 H          1 MOL1         0.1009
      19    H13     19.321743   16.802160   22.004848 H          1 MOL1         0.1009
      20    H14     19.525670   16.698284   20.249292 H          1 MOL1         0.1009
@<TRIPOS>BOND
    1     1     2    1
    2     1     3    1
    3     1     4    1
    4     1     5    1
    5     5     6    1
    6     5     7    1
    7     7     8    1
    8     7     9    1
    9     7    10    1
   10     5    11    1
   11    11    12    1
   12    11    13    1
   13    11    14    1
   14    14    15    1
   15    14    16    1
   16    14    17    1
   17    17    18    1
   18    17    19    1
   19    17    20    1
@<TRIPOS>SUBSTRUCTURE
       1 MOL1            1 RESIDUE      1      MOL     
@<SCITEGIC>MOL_PROPERTY
VConf Rank
SciTegic.value.IntegerValue
178

@<SCITEGIC>MOL_PROPERTY
Conf_Id
SciTegic.value.IntegerValue
64

@<SCITEGIC>MOL_PROPERTY
Delta U+W
SciTegic.value.DoubleValue
0.544

@<SCITEGIC>MOL_PROPERTY
U+W
SciTegic.value.DoubleValue
-35.732

@<SCITEGIC>MOL_PROPERTY
Grad RMS
SciTegic.value.DoubleValue
0.000000

@<SCITEGIC>MOL_PROPERTY
U
SciTegic.value.DoubleValue
22.800

@<SCITEGIC>MOL_PROPERTY
W
SciTegic.value.DoubleValue
-58.532

@<SCITEGIC>MOL_PROPERTY
W(PB)
SciTegic.value.DoubleValue
-60.437

@<SCITEGIC>MOL_PROPERTY
W(SA)
SciTegic.value.DoubleValue
1.905

@<SCITEGIC>MOL_PROPERTY
Valence
SciTegic.value.DoubleValue
2.662

@<SCITEGIC>MOL_PROPERTY
Coulomb
SciTegic.value.DoubleValue
19.485

@<SCITEGIC>MOL_PROPERTY
VdW
SciTegic.value.DoubleValue
0.653

@<SCITEGIC>MOL_PROPERTY
VdW6
SciTegic.value.DoubleValue
-5.460

@<SCITEGIC>MOL_PROPERTY
VdW12
SciTegic.value.DoubleValue
6.113

@<SCITEGIC>MOL_PROPERTY
Bond
SciTegic.value.DoubleValue
0.174

@<SCITEGIC>MOL_PROPERTY
Angle
SciTegic.value.DoubleValue
1.378

@<SCITEGIC>MOL_PROPERTY
Pdih
SciTegic.value.DoubleValue
1.109

@<SCITEGIC>MOL_PROPERTY
Idih
SciTegic.value.DoubleValue
0.000

@<SCITEGIC>MOL_PROPERTY
Tether
SciTegic.value.DoubleValue
0.000

@<TRIPOS>MOLECULE
guest-s10_confgen4.mol2 : confsearch ligand conformer 179
          20          19           1
SMALL
USER_CHARGES
 
@<TRIPOS>ATOM
       1    N1      20.674931   17.395836   21.538728 N.4        1 MOL1        -0.5937
       2    H1      21.259743   18.202612   21.309859 H          1 MOL1         0.3684
       3    H2      20.427545   16.937852   20.657443 H          1 MOL1         0.3684
       4    H3      21.252221   16.738871   22.070512 H          1 MOL1         0.3684
       5    C1      19.448790   17.804981   22.309448 C.3        1 MOL1         0.1270
       6    H4      18.889676   16.882310   22.493929 H          1 MOL1         0.0960
       7    C2      18.551713   18.724282   21.464544 C.3        1 MOL1        -0.2382
       8    H5      19.094457   19.614700   21.126472 H          1 MOL1         0.1009
       9    H6      17.672965   19.046505   22.036658 H          1 MOL1         0.1009
      10    H7      18.192568   18.195023   20.573550 H          1 MOL1         0.1009
      11    C3      19.796604   18.406627   23.694363 C.3        1 MOL1        -0.1392
      12    H8      18.876492   18.524462   24.281734 H          1 MOL1         0.0998
      13    H9      20.390562   17.659244   24.236685 H          1 MOL1         0.0998
      14    C4      20.589270   19.743332   23.683150 C.3        1 MOL1        -0.1302
      15    H10     21.241914   19.804534   22.802417 H          1 MOL1         0.0998
      16    H11     21.260099   19.755033   24.553686 H          1 MOL1         0.0998
      17    C5      19.687494   20.997418   23.765709 C.3        1 MOL1        -0.2317
      18    H12     19.016126   21.081650   22.904230 H          1 MOL1         0.1009
      19    H13     20.299591   21.908067   23.797664 H          1 MOL1         0.1009
      20    H14     19.071855   20.979606   24.674397 H          1 MOL1         0.1009
@<TRIPOS>BOND
    1     1     2    1
    2     1     3    1
    3     1     4    1
    4     1     5    1
    5     5     6    1
    6     5     7    1
    7     7     8    1
    8     7     9    1
    9     7    10    1
   10     5    11    1
   11    11    12    1
   12    11    13    1
   13    11    14    1
   14    14    15    1
   15    14    16    1
   16    14    17    1
   17    17    18    1
   18    17    19    1
   19    17    20    1
@<TRIPOS>SUBSTRUCTURE
       1 MOL1            1 RESIDUE      1      MOL     
@<SCITEGIC>MOL_PROPERTY
VConf Rank
SciTegic.value.IntegerValue
179

@<SCITEGIC>MOL_PROPERTY
Conf_Id
SciTegic.value.IntegerValue
35

@<SCITEGIC>MOL_PROPERTY
Delta U+W
SciTegic.value.DoubleValue
3.004

@<SCITEGIC>MOL_PROPERTY
U+W
SciTegic.value.DoubleValue
-33.272

@<SCITEGIC>MOL_PROPERTY
Grad RMS
SciTegic.value.DoubleValue
0.000000

@<SCITEGIC>MOL_PROPERTY
U
SciTegic.value.DoubleValue
25.367

@<SCITEGIC>MOL_PROPERTY
W
SciTegic.value.DoubleValue
-58.639

@<SCITEGIC>MOL_PROPERTY
W(PB)
SciTegic.value.DoubleValue
-60.512

@<SCITEGIC>MOL_PROPERTY
W(SA)
SciTegic.value.DoubleValue
1.873

@<SCITEGIC>MOL_PROPERTY
Valence
SciTegic.value.DoubleValue
4.943

@<SCITEGIC>MOL_PROPERTY
Coulomb
SciTegic.value.DoubleValue
19.661

@<SCITEGIC>MOL_PROPERTY
VdW
SciTegic.value.DoubleValue
0.764

@<SCITEGIC>MOL_PROPERTY
VdW6
SciTegic.value.DoubleValue
-5.871

@<SCITEGIC>MOL_PROPERTY
VdW12
SciTegic.value.DoubleValue
6.636

@<SCITEGIC>MOL_PROPERTY
Bond
SciTegic.value.DoubleValue
0.230

@<SCITEGIC>MOL_PROPERTY
Angle
SciTegic.value.DoubleValue
1.857

@<SCITEGIC>MOL_PROPERTY
Pdih
SciTegic.value.DoubleValue
2.855

@<SCITEGIC>MOL_PROPERTY
Idih
SciTegic.value.DoubleValue
0.000

@<SCITEGIC>MOL_PROPERTY
Tether
SciTegic.value.DoubleValue
0.000

@<TRIPOS>MOLECULE
guest-s10_confgen4.mol2 : confsearch ligand conformer 180
          20          19           1
SMALL
USER_CHARGES
 
@<TRIPOS>ATOM
       1    N1      19.568214   17.301481   23.280144 N.4        1 MOL1        -0.5937
       2    H1      19.197467   16.824499   24.106362 H          1 MOL1         0.3684
       3    H2      20.143151   16.625298   22.770431 H          1 MOL1         0.3684
       4    H3      18.776915   17.543528   22.680765 H          1 MOL1         0.3684
       5    C1      20.359570   18.523821   23.657111 C.3        1 MOL1         0.1270
       6    H4      21.188000   18.154450   24.269644 H          1 MOL1         0.0960
       7    C2      19.532090   19.479931   24.534403 C.3        1 MOL1        -0.2382
       8    H5      18.627022   19.821862   24.018429 H          1 MOL1         0.1009
       9    H6      20.122996   20.360965   24.813741 H          1 MOL1         0.1009
      10    H7      19.221860   18.980415   25.460259 H          1 MOL1         0.1009
      11    C3      20.990188   19.239654   22.435139 C.3        1 MOL1        -0.1392
      12    H8      21.780955   19.902697   22.810110 H          1 MOL1         0.0998
      13    H9      21.505354   18.495306   21.814037 H          1 MOL1         0.0998
      14    C4      20.044405   20.088154   21.539517 C.3        1 MOL1        -0.1302
      15    H10     20.652674   20.558836   20.754475 H          1 MOL1         0.0998
      16    H11     19.615986   20.918406   22.117247 H          1 MOL1         0.0998
      17    C5      18.910057   19.288311   20.859496 C.3        1 MOL1        -0.2317
      18    H12     19.301451   18.401396   20.344392 H          1 MOL1         0.1009
      19    H13     18.402702   19.910591   20.110812 H          1 MOL1         0.1009
      20    H14     18.149553   18.971942   21.582554 H          1 MOL1         0.1009
@<TRIPOS>BOND
    1     1     2    1
    2     1     3    1
    3     1     4    1
    4     1     5    1
    5     5     6    1
    6     5     7    1
    7     7     8    1
    8     7     9    1
    9     7    10    1
   10     5    11    1
   11    11    12    1
   12    11    13    1
   13    11    14    1
   14    14    15    1
   15    14    16    1
   16    14    17    1
   17    17    18    1
   18    17    19    1
   19    17    20    1
@<TRIPOS>SUBSTRUCTURE
       1 MOL1            1 RESIDUE      1      MOL     
@<SCITEGIC>MOL_PROPERTY
VConf Rank
SciTegic.value.IntegerValue
180

@<SCITEGIC>MOL_PROPERTY
Conf_Id
SciTegic.value.IntegerValue
55

@<SCITEGIC>MOL_PROPERTY
Delta U+W
SciTegic.value.DoubleValue
2.767

@<SCITEGIC>MOL_PROPERTY
U+W
SciTegic.value.DoubleValue
-33.509

@<SCITEGIC>MOL_PROPERTY
Grad RMS
SciTegic.value.DoubleValue
0.000000

@<SCITEGIC>MOL_PROPERTY
U
SciTegic.value.DoubleValue
24.552

@<SCITEGIC>MOL_PROPERTY
W
SciTegic.value.DoubleValue
-58.061

@<SCITEGIC>MOL_PROPERTY
W(PB)
SciTegic.value.DoubleValue
-59.930

@<SCITEGIC>MOL_PROPERTY
W(SA)
SciTegic.value.DoubleValue
1.869

@<SCITEGIC>MOL_PROPERTY
Valence
SciTegic.value.DoubleValue
3.726

@<SCITEGIC>MOL_PROPERTY
Coulomb
SciTegic.value.DoubleValue
20.219

@<SCITEGIC>MOL_PROPERTY
VdW
SciTegic.value.DoubleValue
0.606

@<SCITEGIC>MOL_PROPERTY
VdW6
SciTegic.value.DoubleValue
-6.395

@<SCITEGIC>MOL_PROPERTY
VdW12
SciTegic.value.DoubleValue
7.001

@<SCITEGIC>MOL_PROPERTY
Bond
SciTegic.value.DoubleValue
0.241

@<SCITEGIC>MOL_PROPERTY
Angle
SciTegic.value.DoubleValue
2.098

@<SCITEGIC>MOL_PROPERTY
Pdih
SciTegic.value.DoubleValue
1.387

@<SCITEGIC>MOL_PROPERTY
Idih
SciTegic.value.DoubleValue
0.000

@<SCITEGIC>MOL_PROPERTY
Tether
SciTegic.value.DoubleValue
0.000

@<TRIPOS>MOLECULE
guest-s10_confgen4.mol2 : confsearch ligand conformer 181
          20          19           1
SMALL
USER_CHARGES
 
@<TRIPOS>ATOM
       1    N1      20.590633   20.260551   23.930519 N.4        1 MOL1        -0.5937
       2    H1      21.053424   19.589034   24.548123 H          1 MOL1         0.3684
       3    H2      20.458784   21.124532   24.463256 H          1 MOL1         0.3684
       4    H3      21.236668   20.471016   23.165715 H          1 MOL1         0.3684
       5    C1      19.281387   19.725350   23.416230 C.3        1 MOL1         0.1270
       6    H4      18.858938   20.497994   22.766271 H          1 MOL1         0.0960
       7    C2      18.302526   19.485504   24.577382 C.3        1 MOL1        -0.2382
       8    H5      18.146056   20.407690   25.150406 H          1 MOL1         0.1009
       9    H6      18.680172   18.716893   25.263250 H          1 MOL1         0.1009
      10    H7      17.325000   19.157860   24.202243 H          1 MOL1         0.1009
      11    C3      19.453354   18.435482   22.583874 C.3        1 MOL1        -0.1392
      12    H8      19.898686   17.649263   23.207938 H          1 MOL1         0.0998
      13    H9      18.461139   18.072441   22.284243 H          1 MOL1         0.0998
      14    C4      20.312472   18.644410   21.313526 C.3        1 MOL1        -0.1302
      15    H10     21.329478   18.954210   21.589477 H          1 MOL1         0.0998
      16    H11     19.885862   19.456063   20.707337 H          1 MOL1         0.0998
      17    C5      20.393033   17.359058   20.462244 C.3        1 MOL1        -0.2317
      18    H12     20.844026   16.535857   21.031630 H          1 MOL1         0.1009
      19    H13     21.006519   17.524677   19.567095 H          1 MOL1         0.1009
      20    H14     19.395849   17.040041   20.131963 H          1 MOL1         0.1009
@<TRIPOS>BOND
    1     1     2    1
    2     1     3    1
    3     1     4    1
    4     1     5    1
    5     5     6    1
    6     5     7    1
    7     7     8    1
    8     7     9    1
    9     7    10    1
   10     5    11    1
   11    11    12    1
   12    11    13    1
   13    11    14    1
   14    14    15    1
   15    14    16    1
   16    14    17    1
   17    17    18    1
   18    17    19    1
   19    17    20    1
@<TRIPOS>SUBSTRUCTURE
       1 MOL1            1 RESIDUE      1      MOL     
@<SCITEGIC>MOL_PROPERTY
VConf Rank
SciTegic.value.IntegerValue
181

@<SCITEGIC>MOL_PROPERTY
Conf_Id
SciTegic.value.IntegerValue
74

@<SCITEGIC>MOL_PROPERTY
Delta U+W
SciTegic.value.DoubleValue
0.000

@<SCITEGIC>MOL_PROPERTY
U+W
SciTegic.value.DoubleValue
-36.276

@<SCITEGIC>MOL_PROPERTY
Grad RMS
SciTegic.value.DoubleValue
0.000000

@<SCITEGIC>MOL_PROPERTY
U
SciTegic.value.DoubleValue
22.080

@<SCITEGIC>MOL_PROPERTY
W
SciTegic.value.DoubleValue
-58.356

@<SCITEGIC>MOL_PROPERTY
W(PB)
SciTegic.value.DoubleValue
-60.289

@<SCITEGIC>MOL_PROPERTY
W(SA)
SciTegic.value.DoubleValue
1.932

@<SCITEGIC>MOL_PROPERTY
Valence
SciTegic.value.DoubleValue
1.885

@<SCITEGIC>MOL_PROPERTY
Coulomb
SciTegic.value.DoubleValue
19.559

@<SCITEGIC>MOL_PROPERTY
VdW
SciTegic.value.DoubleValue
0.637

@<SCITEGIC>MOL_PROPERTY
VdW6
SciTegic.value.DoubleValue
-4.482

@<SCITEGIC>MOL_PROPERTY
VdW12
SciTegic.value.DoubleValue
5.119

@<SCITEGIC>MOL_PROPERTY
Bond
SciTegic.value.DoubleValue
0.136

@<SCITEGIC>MOL_PROPERTY
Angle
SciTegic.value.DoubleValue
0.867

@<SCITEGIC>MOL_PROPERTY
Pdih
SciTegic.value.DoubleValue
0.882

@<SCITEGIC>MOL_PROPERTY
Idih
SciTegic.value.DoubleValue
0.000

@<SCITEGIC>MOL_PROPERTY
Tether
SciTegic.value.DoubleValue
0.000

@<TRIPOS>MOLECULE
guest-s10_confgen4.mol2 : confsearch ligand conformer 182
          20          19           1
SMALL
USER_CHARGES
 
@<TRIPOS>ATOM
       1    N1      18.629159   20.789166   21.699823 N.4        1 MOL1        -0.5937
       2    H1      19.384718   21.208547   21.151091 H          1 MOL1         0.3684
       3    H2      18.505612   21.361655   22.538702 H          1 MOL1         0.3684
       4    H3      17.772121   20.871759   21.146339 H          1 MOL1         0.3684
       5    C1      18.924345   19.355803   22.047389 C.3        1 MOL1         0.1270
       6    H4      19.036818   18.825161   21.096792 H          1 MOL1         0.0960
       7    C2      17.739872   18.737099   22.812261 C.3        1 MOL1        -0.2382
       8    H5      16.803948   18.883885   22.259340 H          1 MOL1         0.1009
       9    H6      17.624503   19.194121   23.802918 H          1 MOL1         0.1009
      10    H7      17.870600   17.657034   22.944900 H          1 MOL1         0.1009
      11    C3      20.252302   19.232134   22.830156 C.3        1 MOL1        -0.1392
      12    H8      21.029430   19.784225   22.285244 H          1 MOL1         0.0998
      13    H9      20.151960   19.721226   23.808200 H          1 MOL1         0.0998
      14    C4      20.730775   17.772390   23.023478 C.3        1 MOL1        -0.1302
      15    H10     20.770747   17.263412   22.050126 H          1 MOL1         0.0998
      16    H11     20.016360   17.216168   23.644870 H          1 MOL1         0.0998
      17    C5      22.122361   17.712488   23.689499 C.3        1 MOL1        -0.2317
      18    H12     22.877100   18.221805   23.076145 H          1 MOL1         0.1009
      19    H13     22.444159   16.671373   23.822216 H          1 MOL1         0.1009
      20    H14     22.107568   18.188788   24.678528 H          1 MOL1         0.1009
@<TRIPOS>BOND
    1     1     2    1
    2     1     3    1
    3     1     4    1
    4     1     5    1
    5     5     6    1
    6     5     7    1
    7     7     8    1
    8     7     9    1
    9     7    10    1
   10     5    11    1
   11    11    12    1
   12    11    13    1
   13    11    14    1
   14    14    15    1
   15    14    16    1
   16    14    17    1
   17    17    18    1
   18    17    19    1
   19    17    20    1
@<TRIPOS>SUBSTRUCTURE
       1 MOL1            1 RESIDUE      1      MOL     
@<SCITEGIC>MOL_PROPERTY
VConf Rank
SciTegic.value.IntegerValue
182

@<SCITEGIC>MOL_PROPERTY
Conf_Id
SciTegic.value.IntegerValue
80

@<SCITEGIC>MOL_PROPERTY
Delta U+W
SciTegic.value.DoubleValue
0.460

@<SCITEGIC>MOL_PROPERTY
U+W
SciTegic.value.DoubleValue
-35.817

@<SCITEGIC>MOL_PROPERTY
Grad RMS
SciTegic.value.DoubleValue
0.000000

@<SCITEGIC>MOL_PROPERTY
U
SciTegic.value.DoubleValue
22.495

@<SCITEGIC>MOL_PROPERTY
W
SciTegic.value.DoubleValue
-58.311

@<SCITEGIC>MOL_PROPERTY
W(PB)
SciTegic.value.DoubleValue
-60.259

@<SCITEGIC>MOL_PROPERTY
W(SA)
SciTegic.value.DoubleValue
1.948

@<SCITEGIC>MOL_PROPERTY
Valence
SciTegic.value.DoubleValue
2.419

@<SCITEGIC>MOL_PROPERTY
Coulomb
SciTegic.value.DoubleValue
19.304

@<SCITEGIC>MOL_PROPERTY
VdW
SciTegic.value.DoubleValue
0.772

@<SCITEGIC>MOL_PROPERTY
VdW6
SciTegic.value.DoubleValue
-4.635

@<SCITEGIC>MOL_PROPERTY
VdW12
SciTegic.value.DoubleValue
5.407

@<SCITEGIC>MOL_PROPERTY
Bond
SciTegic.value.DoubleValue
0.149

@<SCITEGIC>MOL_PROPERTY
Angle
SciTegic.value.DoubleValue
1.142

@<SCITEGIC>MOL_PROPERTY
Pdih
SciTegic.value.DoubleValue
1.129

@<SCITEGIC>MOL_PROPERTY
Idih
SciTegic.value.DoubleValue
0.000

@<SCITEGIC>MOL_PROPERTY
Tether
SciTegic.value.DoubleValue
0.000

@<TRIPOS>MOLECULE
guest-s10_confgen4.mol2 : confsearch ligand conformer 183
          20          19           1
SMALL
USER_CHARGES
 
@<TRIPOS>ATOM
       1    N1      18.493593   20.734727   21.857695 N.4        1 MOL1        -0.5937
       2    H1      17.620484   20.864123   22.376104 H          1 MOL1         0.3684
       3    H2      18.260227   20.274241   20.974416 H          1 MOL1         0.3684
       4    H3      18.850691   21.666486   21.629834 H          1 MOL1         0.3684
       5    C1      19.496290   19.938593   22.647327 C.3        1 MOL1         0.1270
       6    H4      19.686314   20.507415   23.562822 H          1 MOL1         0.0960
       7    C2      20.819151   19.828008   21.870108 C.3        1 MOL1        -0.2382
       8    H5      21.150842   20.815703   21.527204 H          1 MOL1         0.1009
       9    H6      20.711731   19.180353   20.991213 H          1 MOL1         0.1009
      10    H7      21.615497   19.424848   22.505955 H          1 MOL1         0.1009
      11    C3      18.918093   18.559881   23.050041 C.3        1 MOL1        -0.1392
      12    H8      17.963908   18.740013   23.562657 H          1 MOL1         0.0998
      13    H9      18.669593   17.976198   22.153776 H          1 MOL1         0.0998
      14    C4      19.815233   17.725565   24.002248 C.3        1 MOL1        -0.1302
      15    H10     19.169446   17.191180   24.713239 H          1 MOL1         0.0998
      16    H11     20.447596   18.388112   24.609796 H          1 MOL1         0.0998
      17    C5      20.683201   16.676760   23.267624 C.3        1 MOL1        -0.2317
      18    H12     20.054947   15.963613   22.718228 H          1 MOL1         0.1009
      19    H13     21.284311   16.104588   23.986144 H          1 MOL1         0.1009
      20    H14     21.372689   17.138651   22.552218 H          1 MOL1         0.1009
@<TRIPOS>BOND
    1     1     2    1
    2     1     3    1
    3     1     4    1
    4     1     5    1
    5     5     6    1
    6     5     7    1
    7     7     8    1
    8     7     9    1
    9     7    10    1
   10     5    11    1
   11    11    12    1
   12    11    13    1
   13    11    14    1
   14    14    15    1
   15    14    16    1
   16    14    17    1
   17    17    18    1
   18    17    19    1
   19    17    20    1
@<TRIPOS>SUBSTRUCTURE
       1 MOL1            1 RESIDUE      1      MOL     
@<SCITEGIC>MOL_PROPERTY
VConf Rank
SciTegic.value.IntegerValue
183

@<SCITEGIC>MOL_PROPERTY
Conf_Id
SciTegic.value.IntegerValue
52

@<SCITEGIC>MOL_PROPERTY
Delta U+W
SciTegic.value.DoubleValue
2.995

@<SCITEGIC>MOL_PROPERTY
U+W
SciTegic.value.DoubleValue
-33.282

@<SCITEGIC>MOL_PROPERTY
Grad RMS
SciTegic.value.DoubleValue
0.000000

@<SCITEGIC>MOL_PROPERTY
U
SciTegic.value.DoubleValue
25.224

@<SCITEGIC>MOL_PROPERTY
W
SciTegic.value.DoubleValue
-58.506

@<SCITEGIC>MOL_PROPERTY
W(PB)
SciTegic.value.DoubleValue
-60.411

@<SCITEGIC>MOL_PROPERTY
W(SA)
SciTegic.value.DoubleValue
1.905

@<SCITEGIC>MOL_PROPERTY
Valence
SciTegic.value.DoubleValue
4.945

@<SCITEGIC>MOL_PROPERTY
Coulomb
SciTegic.value.DoubleValue
19.467

@<SCITEGIC>MOL_PROPERTY
VdW
SciTegic.value.DoubleValue
0.813

@<SCITEGIC>MOL_PROPERTY
VdW6
SciTegic.value.DoubleValue
-5.458

@<SCITEGIC>MOL_PROPERTY
VdW12
SciTegic.value.DoubleValue
6.270

@<SCITEGIC>MOL_PROPERTY
Bond
SciTegic.value.DoubleValue
0.200

@<SCITEGIC>MOL_PROPERTY
Angle
SciTegic.value.DoubleValue
1.675

@<SCITEGIC>MOL_PROPERTY
Pdih
SciTegic.value.DoubleValue
3.070

@<SCITEGIC>MOL_PROPERTY
Idih
SciTegic.value.DoubleValue
0.000

@<SCITEGIC>MOL_PROPERTY
Tether
SciTegic.value.DoubleValue
0.000

@<TRIPOS>MOLECULE
guest-s10_confgen4.mol2 : confsearch ligand conformer 184
          20          19           1
SMALL
USER_CHARGES
 
@<TRIPOS>ATOM
       1    N1      20.675453   18.224371   21.666819 N.4        1 MOL1        -0.5937
       2    H1      20.244931   17.300235   21.583144 H          1 MOL1         0.3684
       3    H2      21.644146   18.140818   21.346976 H          1 MOL1         0.3684
       4    H3      20.188981   18.848192   21.019381 H          1 MOL1         0.3684
       5    C1      20.602081   18.737810   23.078998 C.3        1 MOL1         0.1270
       6    H4      21.121818   19.700722   23.099189 H          1 MOL1         0.0960
       7    C2      21.339546   17.773500   24.023461 C.3        1 MOL1        -0.2382
       8    H5      20.847999   16.793004   24.052893 H          1 MOL1         0.1009
       9    H6      21.368402   18.172257   25.045130 H          1 MOL1         0.1009
      10    H7      22.376415   17.626512   23.696915 H          1 MOL1         0.1009
      11    C3      19.148837   18.959684   23.561791 C.3        1 MOL1        -0.1392
      12    H8      18.534621   18.083462   23.315731 H          1 MOL1         0.0998
      13    H9      19.150548   19.026063   24.658001 H          1 MOL1         0.0998
      14    C4      18.475920   20.251092   23.026950 C.3        1 MOL1        -0.1302
      15    H10     19.072295   21.127199   23.318170 H          1 MOL1         0.0998
      16    H11     17.505674   20.365071   23.530594 H          1 MOL1         0.0998
      17    C5      18.236925   20.274291   21.500009 C.3        1 MOL1        -0.2317
      18    H12     17.584814   21.115666   21.231443 H          1 MOL1         0.1009
      19    H13     17.747615   19.352902   21.158050 H          1 MOL1         0.1009
      20    H14     19.173373   20.407417   20.946131 H          1 MOL1         0.1009
@<TRIPOS>BOND
    1     1     2    1
    2     1     3    1
    3     1     4    1
    4     1     5    1
    5     5     6    1
    6     5     7    1
    7     7     8    1
    8     7     9    1
    9     7    10    1
   10     5    11    1
   11    11    12    1
   12    11    13    1
   13    11    14    1
   14    14    15    1
   15    14    16    1
   16    14    17    1
   17    17    18    1
   18    17    19    1
   19    17    20    1
@<TRIPOS>SUBSTRUCTURE
       1 MOL1            1 RESIDUE      1      MOL     
@<SCITEGIC>MOL_PROPERTY
VConf Rank
SciTegic.value.IntegerValue
184

@<SCITEGIC>MOL_PROPERTY
Conf_Id
SciTegic.value.IntegerValue
54

@<SCITEGIC>MOL_PROPERTY
Delta U+W
SciTegic.value.DoubleValue
2.752

@<SCITEGIC>MOL_PROPERTY
U+W
SciTegic.value.DoubleValue
-33.525

@<SCITEGIC>MOL_PROPERTY
Grad RMS
SciTegic.value.DoubleValue
0.000000

@<SCITEGIC>MOL_PROPERTY
U
SciTegic.value.DoubleValue
24.337

@<SCITEGIC>MOL_PROPERTY
W
SciTegic.value.DoubleValue
-57.862

@<SCITEGIC>MOL_PROPERTY
W(PB)
SciTegic.value.DoubleValue
-59.764

@<SCITEGIC>MOL_PROPERTY
W(SA)
SciTegic.value.DoubleValue
1.901

@<SCITEGIC>MOL_PROPERTY
Valence
SciTegic.value.DoubleValue
3.593

@<SCITEGIC>MOL_PROPERTY
Coulomb
SciTegic.value.DoubleValue
20.067

@<SCITEGIC>MOL_PROPERTY
VdW
SciTegic.value.DoubleValue
0.677

@<SCITEGIC>MOL_PROPERTY
VdW6
SciTegic.value.DoubleValue
-5.466

@<SCITEGIC>MOL_PROPERTY
VdW12
SciTegic.value.DoubleValue
6.144

@<SCITEGIC>MOL_PROPERTY
Bond
SciTegic.value.DoubleValue
0.191

@<SCITEGIC>MOL_PROPERTY
Angle
SciTegic.value.DoubleValue
1.557

@<SCITEGIC>MOL_PROPERTY
Pdih
SciTegic.value.DoubleValue
1.845

@<SCITEGIC>MOL_PROPERTY
Idih
SciTegic.value.DoubleValue
0.000

@<SCITEGIC>MOL_PROPERTY
Tether
SciTegic.value.DoubleValue
0.000

@<TRIPOS>MOLECULE
guest-s10_confgen4.mol2 : confsearch ligand conformer 185
          20          19           1
SMALL
USER_CHARGES
 
@<TRIPOS>ATOM
       1    N1      20.110850   20.293315   24.230355 N.4        1 MOL1        -0.5937
       2    H1      19.897084   21.231219   24.580060 H          1 MOL1         0.3684
       3    H2      21.051619   20.055016   24.555746 H          1 MOL1         0.3684
       4    H3      19.457956   19.645049   24.676369 H          1 MOL1         0.3684
       5    C1      20.011470   20.228992   22.730397 C.3        1 MOL1         0.1270
       6    H4      20.728026   20.962651   22.347886 H          1 MOL1         0.0960
       7    C2      18.612227   20.653681   22.250189 C.3        1 MOL1        -0.2382
       8    H5      18.543300   20.603742   21.156467 H          1 MOL1         0.1009
       9    H6      18.401769   21.687836   22.549048 H          1 MOL1         0.1009
      10    H7      17.826722   20.016809   22.673768 H          1 MOL1         0.1009
      11    C3      20.425566   18.848164   22.167467 C.3        1 MOL1        -0.1392
      12    H8      20.417466   18.897434   21.070543 H          1 MOL1         0.0998
      13    H9      21.468288   18.655849   22.452339 H          1 MOL1         0.0998
      14    C4      19.544014   17.660445   22.632801 C.3        1 MOL1        -0.1302
      15    H10     18.504576   17.809775   22.311426 H          1 MOL1         0.0998
      16    H11     19.533641   17.602596   23.729481 H          1 MOL1         0.0998
      17    C5      20.054306   16.319272   22.063428 C.3        1 MOL1        -0.2317
      18    H12     19.419719   15.488883   22.399311 H          1 MOL1         0.1009
      19    H13     21.080426   16.113659   22.395123 H          1 MOL1         0.1009
      20    H14     20.045051   16.326916   20.965667 H          1 MOL1         0.1009
@<TRIPOS>BOND
    1     1     2    1
    2     1     3    1
    3     1     4    1
    4     1     5    1
    5     5     6    1
    6     5     7    1
    7     7     8    1
    8     7     9    1
    9     7    10    1
   10     5    11    1
   11    11    12    1
   12    11    13    1
   13    11    14    1
   14    14    15    1
   15    14    16    1
   16    14    17    1
   17    17    18    1
   18    17    19    1
   19    17    20    1
@<TRIPOS>SUBSTRUCTURE
       1 MOL1            1 RESIDUE      1      MOL     
@<SCITEGIC>MOL_PROPERTY
VConf Rank
SciTegic.value.IntegerValue
185

@<SCITEGIC>MOL_PROPERTY
Conf_Id
SciTegic.value.IntegerValue
63

@<SCITEGIC>MOL_PROPERTY
Delta U+W
SciTegic.value.DoubleValue
0.420

@<SCITEGIC>MOL_PROPERTY
U+W
SciTegic.value.DoubleValue
-35.856

@<SCITEGIC>MOL_PROPERTY
Grad RMS
SciTegic.value.DoubleValue
0.000000

@<SCITEGIC>MOL_PROPERTY
U
SciTegic.value.DoubleValue
22.625

@<SCITEGIC>MOL_PROPERTY
W
SciTegic.value.DoubleValue
-58.481

@<SCITEGIC>MOL_PROPERTY
W(PB)
SciTegic.value.DoubleValue
-60.400

@<SCITEGIC>MOL_PROPERTY
W(SA)
SciTegic.value.DoubleValue
1.919

@<SCITEGIC>MOL_PROPERTY
Valence
SciTegic.value.DoubleValue
2.404

@<SCITEGIC>MOL_PROPERTY
Coulomb
SciTegic.value.DoubleValue
19.464

@<SCITEGIC>MOL_PROPERTY
VdW
SciTegic.value.DoubleValue
0.757

@<SCITEGIC>MOL_PROPERTY
VdW6
SciTegic.value.DoubleValue
-5.074

@<SCITEGIC>MOL_PROPERTY
VdW12
SciTegic.value.DoubleValue
5.830

@<SCITEGIC>MOL_PROPERTY
Bond
SciTegic.value.DoubleValue
0.172

@<SCITEGIC>MOL_PROPERTY
Angle
SciTegic.value.DoubleValue
1.207

@<SCITEGIC>MOL_PROPERTY
Pdih
SciTegic.value.DoubleValue
1.025

@<SCITEGIC>MOL_PROPERTY
Idih
SciTegic.value.DoubleValue
0.000

@<SCITEGIC>MOL_PROPERTY
Tether
SciTegic.value.DoubleValue
0.000

@<TRIPOS>MOLECULE
guest-s10_confgen4.mol2 : confsearch ligand conformer 186
          20          19           1
SMALL
USER_CHARGES
 
@<TRIPOS>ATOM
       1    N1      21.226749   19.562279   22.111370 N.4        1 MOL1        -0.5937
       2    H1      20.705694   19.691127   21.240294 H          1 MOL1         0.3684
       3    H2      21.872662   18.781504   21.971341 H          1 MOL1         0.3684
       4    H3      21.790926   20.403649   22.257464 H          1 MOL1         0.3684
       5    C1      20.300681   19.310476   23.270323 C.3        1 MOL1         0.1270
       6    H4      19.651770   20.187708   23.350993 H          1 MOL1         0.0960
       7    C2      21.093786   19.180288   24.580876 C.3        1 MOL1        -0.2382
       8    H5      21.698000   20.078102   24.760018 H          1 MOL1         0.1009
       9    H6      21.767572   18.314827   24.553620 H          1 MOL1         0.1009
      10    H7      20.416830   19.059313   25.435696 H          1 MOL1         0.1009
      11    C3      19.409142   18.066371   23.055047 C.3        1 MOL1        -0.1392
      12    H8      20.042290   17.171693   22.987914 H          1 MOL1         0.0998
      13    H9      18.772703   17.925751   23.938846 H          1 MOL1         0.0998
      14    C4      18.504834   18.142727   21.798745 C.3        1 MOL1        -0.1302
      15    H10     17.916986   17.216600   21.730739 H          1 MOL1         0.0998
      16    H11     19.119841   18.176857   20.889257 H          1 MOL1         0.0998
      17    C5      17.538232   19.348787   21.820358 C.3        1 MOL1        -0.2317
      18    H12     16.911812   19.336156   22.721811 H          1 MOL1         0.1009
      19    H13     16.870914   19.322353   20.949119 H          1 MOL1         0.1009
      20    H14     18.079933   20.302566   21.792770 H          1 MOL1         0.1009
@<TRIPOS>BOND
    1     1     2    1
    2     1     3    1
    3     1     4    1
    4     1     5    1
    5     5     6    1
    6     5     7    1
    7     7     8    1
    8     7     9    1
    9     7    10    1
   10     5    11    1
   11    11    12    1
   12    11    13    1
   13    11    14    1
   14    14    15    1
   15    14    16    1
   16    14    17    1
   17    17    18    1
   18    17    19    1
   19    17    20    1
@<TRIPOS>SUBSTRUCTURE
       1 MOL1            1 RESIDUE      1      MOL     
@<SCITEGIC>MOL_PROPERTY
VConf Rank
SciTegic.value.IntegerValue
186

@<SCITEGIC>MOL_PROPERTY
Conf_Id
SciTegic.value.IntegerValue
50

@<SCITEGIC>MOL_PROPERTY
Delta U+W
SciTegic.value.DoubleValue
0.466

@<SCITEGIC>MOL_PROPERTY
U+W
SciTegic.value.DoubleValue
-35.811

@<SCITEGIC>MOL_PROPERTY
Grad RMS
SciTegic.value.DoubleValue
0.000000

@<SCITEGIC>MOL_PROPERTY
U
SciTegic.value.DoubleValue
22.369

@<SCITEGIC>MOL_PROPERTY
W
SciTegic.value.DoubleValue
-58.180

@<SCITEGIC>MOL_PROPERTY
W(PB)
SciTegic.value.DoubleValue
-60.103

@<SCITEGIC>MOL_PROPERTY
W(SA)
SciTegic.value.DoubleValue
1.923

@<SCITEGIC>MOL_PROPERTY
Valence
SciTegic.value.DoubleValue
2.168

@<SCITEGIC>MOL_PROPERTY
Coulomb
SciTegic.value.DoubleValue
19.636

@<SCITEGIC>MOL_PROPERTY
VdW
SciTegic.value.DoubleValue
0.566

@<SCITEGIC>MOL_PROPERTY
VdW6
SciTegic.value.DoubleValue
-5.263

@<SCITEGIC>MOL_PROPERTY
VdW12
SciTegic.value.DoubleValue
5.829

@<SCITEGIC>MOL_PROPERTY
Bond
SciTegic.value.DoubleValue
0.162

@<SCITEGIC>MOL_PROPERTY
Angle
SciTegic.value.DoubleValue
1.066

@<SCITEGIC>MOL_PROPERTY
Pdih
SciTegic.value.DoubleValue
0.939

@<SCITEGIC>MOL_PROPERTY
Idih
SciTegic.value.DoubleValue
0.000

@<SCITEGIC>MOL_PROPERTY
Tether
SciTegic.value.DoubleValue
0.000

@<TRIPOS>MOLECULE
guest-s10_confgen4.mol2 : confsearch ligand conformer 187
          20          19           1
SMALL
USER_CHARGES
 
@<TRIPOS>ATOM
       1    N1      18.736765   17.668833   24.468583 N.4        1 MOL1        -0.5937
       2    H1      18.696966   18.315923   25.260850 H          1 MOL1         0.3684
       3    H2      19.401653   16.929269   24.709083 H          1 MOL1         0.3684
       4    H3      17.813903   17.233571   24.387294 H          1 MOL1         0.3684
       5    C1      19.127997   18.371865   23.196866 C.3        1 MOL1         0.1270
       6    H4      18.366652   19.139371   23.026423 H          1 MOL1         0.0960
       7    C2      19.102873   17.381081   22.018020 C.3        1 MOL1        -0.2382
       8    H5      19.820927   16.565910   22.171515 H          1 MOL1         0.1009
       9    H6      19.351257   17.874087   21.071955 H          1 MOL1         0.1009
      10    H7      18.105765   16.937607   21.907411 H          1 MOL1         0.1009
      11    C3      20.501534   19.075692   23.324357 C.3        1 MOL1        -0.1392
      12    H8      20.757546   19.174267   24.387566 H          1 MOL1         0.0998
      13    H9      21.293484   18.453632   22.886328 H          1 MOL1         0.0998
      14    C4      20.537930   20.497031   22.707709 C.3        1 MOL1        -0.1302
      15    H10     21.520584   20.943911   22.914161 H          1 MOL1         0.0998
      16    H11     19.800153   21.135827   23.213382 H          1 MOL1         0.0998
      17    C5      20.286765   20.531691   21.183915 C.3        1 MOL1        -0.2317
      18    H12     20.981910   19.868884   20.652419 H          1 MOL1         0.1009
      19    H13     20.430247   21.548085   20.794815 H          1 MOL1         0.1009
      20    H14     19.260770   20.229510   20.939680 H          1 MOL1         0.1009
@<TRIPOS>BOND
    1     1     2    1
    2     1     3    1
    3     1     4    1
    4     1     5    1
    5     5     6    1
    6     5     7    1
    7     7     8    1
    8     7     9    1
    9     7    10    1
   10     5    11    1
   11    11    12    1
   12    11    13    1
   13    11    14    1
   14    14    15    1
   15    14    16    1
   16    14    17    1
   17    17    18    1
   18    17    19    1
   19    17    20    1
@<TRIPOS>SUBSTRUCTURE
       1 MOL1            1 RESIDUE      1      MOL     
@<SCITEGIC>MOL_PROPERTY
VConf Rank
SciTegic.value.IntegerValue
187

@<SCITEGIC>MOL_PROPERTY
Conf_Id
SciTegic.value.IntegerValue
3

@<SCITEGIC>MOL_PROPERTY
Delta U+W
SciTegic.value.DoubleValue
3.093

@<SCITEGIC>MOL_PROPERTY
U+W
SciTegic.value.DoubleValue
-33.184

@<SCITEGIC>MOL_PROPERTY
Grad RMS
SciTegic.value.DoubleValue
0.000000

@<SCITEGIC>MOL_PROPERTY
U
SciTegic.value.DoubleValue
25.256

@<SCITEGIC>MOL_PROPERTY
W
SciTegic.value.DoubleValue
-58.439

@<SCITEGIC>MOL_PROPERTY
W(PB)
SciTegic.value.DoubleValue
-60.337

@<SCITEGIC>MOL_PROPERTY
W(SA)
SciTegic.value.DoubleValue
1.898

@<SCITEGIC>MOL_PROPERTY
Valence
SciTegic.value.DoubleValue
4.963

@<SCITEGIC>MOL_PROPERTY
Coulomb
SciTegic.value.DoubleValue
19.511

@<SCITEGIC>MOL_PROPERTY
VdW
SciTegic.value.DoubleValue
0.782

@<SCITEGIC>MOL_PROPERTY
VdW6
SciTegic.value.DoubleValue
-5.429

@<SCITEGIC>MOL_PROPERTY
VdW12
SciTegic.value.DoubleValue
6.211

@<SCITEGIC>MOL_PROPERTY
Bond
SciTegic.value.DoubleValue
0.174

@<SCITEGIC>MOL_PROPERTY
Angle
SciTegic.value.DoubleValue
1.377

@<SCITEGIC>MOL_PROPERTY
Pdih
SciTegic.value.DoubleValue
3.412

@<SCITEGIC>MOL_PROPERTY
Idih
SciTegic.value.DoubleValue
0.000

@<SCITEGIC>MOL_PROPERTY
Tether
SciTegic.value.DoubleValue
0.000

@<TRIPOS>MOLECULE
guest-s10_confgen4.mol2 : confsearch ligand conformer 188
          20          19           1
SMALL
USER_CHARGES
 
@<TRIPOS>ATOM
       1    N1      21.699193   18.547536   21.784949 N.4        1 MOL1        -0.5937
       2    H1      21.823437   18.469343   20.771990 H          1 MOL1         0.3684
       3    H2      21.992388   17.656700   22.195165 H          1 MOL1         0.3684
       4    H3      22.348246   19.265658   22.116180 H          1 MOL1         0.3684
       5    C1      20.276612   18.881640   22.141347 C.3        1 MOL1         0.1270
       6    H4      19.662253   18.066900   21.746560 H          1 MOL1         0.0960
       7    C2      19.846248   20.191192   21.455810 C.3        1 MOL1        -0.2382
       8    H5      18.774350   20.376866   21.590326 H          1 MOL1         0.1009
       9    H6      20.033984   20.142379   20.376224 H          1 MOL1         0.1009
      10    H7      20.397310   21.050018   21.858597 H          1 MOL1         0.1009
      11    C3      20.082016   18.937674   23.675434 C.3        1 MOL1        -0.1392
      12    H8      20.479184   18.012751   24.113954 H          1 MOL1         0.0998
      13    H9      20.687621   19.754990   24.088923 H          1 MOL1         0.0998
      14    C4      18.614182   19.108140   24.143950 C.3        1 MOL1        -0.1302
      15    H10     18.226082   20.087843   23.834379 H          1 MOL1         0.0998
      16    H11     18.593732   19.111152   25.242773 H          1 MOL1         0.0998
      17    C5      17.680021   17.989534   23.628962 C.3        1 MOL1        -0.2317
      18    H12     18.049778   16.998983   23.924338 H          1 MOL1         0.1009
      19    H13     17.590175   18.010698   22.535552 H          1 MOL1         0.1009
      20    H14     16.671495   18.108467   24.045790 H          1 MOL1         0.1009
@<TRIPOS>BOND
    1     1     2    1
    2     1     3    1
    3     1     4    1
    4     1     5    1
    5     5     6    1
    6     5     7    1
    7     7     8    1
    8     7     9    1
    9     7    10    1
   10     5    11    1
   11    11    12    1
   12    11    13    1
   13    11    14    1
   14    14    15    1
   15    14    16    1
   16    14    17    1
   17    17    18    1
   18    17    19    1
   19    17    20    1
@<TRIPOS>SUBSTRUCTURE
       1 MOL1            1 RESIDUE      1      MOL     
@<SCITEGIC>MOL_PROPERTY
VConf Rank
SciTegic.value.IntegerValue
188

@<SCITEGIC>MOL_PROPERTY
Conf_Id
SciTegic.value.IntegerValue
64

@<SCITEGIC>MOL_PROPERTY
Delta U+W
SciTegic.value.DoubleValue
0.544

@<SCITEGIC>MOL_PROPERTY
U+W
SciTegic.value.DoubleValue
-35.732

@<SCITEGIC>MOL_PROPERTY
Grad RMS
SciTegic.value.DoubleValue
0.000000

@<SCITEGIC>MOL_PROPERTY
U
SciTegic.value.DoubleValue
22.800

@<SCITEGIC>MOL_PROPERTY
W
SciTegic.value.DoubleValue
-58.532

@<SCITEGIC>MOL_PROPERTY
W(PB)
SciTegic.value.DoubleValue
-60.437

@<SCITEGIC>MOL_PROPERTY
W(SA)
SciTegic.value.DoubleValue
1.905

@<SCITEGIC>MOL_PROPERTY
Valence
SciTegic.value.DoubleValue
2.662

@<SCITEGIC>MOL_PROPERTY
Coulomb
SciTegic.value.DoubleValue
19.485

@<SCITEGIC>MOL_PROPERTY
VdW
SciTegic.value.DoubleValue
0.653

@<SCITEGIC>MOL_PROPERTY
VdW6
SciTegic.value.DoubleValue
-5.460

@<SCITEGIC>MOL_PROPERTY
VdW12
SciTegic.value.DoubleValue
6.113

@<SCITEGIC>MOL_PROPERTY
Bond
SciTegic.value.DoubleValue
0.174

@<SCITEGIC>MOL_PROPERTY
Angle
SciTegic.value.DoubleValue
1.378

@<SCITEGIC>MOL_PROPERTY
Pdih
SciTegic.value.DoubleValue
1.109

@<SCITEGIC>MOL_PROPERTY
Idih
SciTegic.value.DoubleValue
0.000

@<SCITEGIC>MOL_PROPERTY
Tether
SciTegic.value.DoubleValue
0.000

@<TRIPOS>MOLECULE
guest-s10_confgen4.mol2 : confsearch ligand conformer 189
          20          19           1
SMALL
USER_CHARGES
 
@<TRIPOS>ATOM
       1    N1      21.775277   19.154508   22.032086 N.4        1 MOL1        -0.5937
       2    H1      21.327881   19.993708   21.656781 H          1 MOL1         0.3684
       3    H2      22.324926   18.737168   21.276224 H          1 MOL1         0.3684
       4    H3      22.433684   19.454909   22.755909 H          1 MOL1         0.3684
       5    C1      20.760366   18.184785   22.574694 C.3        1 MOL1         0.1270
       6    H4      21.332309   17.325304   22.938199 H          1 MOL1         0.0960
       7    C2      19.832853   17.679699   21.457407 C.3        1 MOL1        -0.2382
       8    H5      19.323970   18.509009   20.952440 H          1 MOL1         0.1009
       9    H6      19.074409   16.995925   21.858098 H          1 MOL1         0.1009
      10    H7      20.407929   17.131907   20.700980 H          1 MOL1         0.1009
      11    C3      19.987143   18.758572   23.788710 C.3        1 MOL1        -0.1392
      12    H8      19.392210   17.960425   24.251865 H          1 MOL1         0.0998
      13    H9      20.729656   19.040881   24.546640 H          1 MOL1         0.0998
      14    C4      19.085170   19.992564   23.507757 C.3        1 MOL1        -0.1302
      15    H10     19.499341   20.603836   22.695237 H          1 MOL1         0.0998
      16    H11     19.091615   20.635845   24.398897 H          1 MOL1         0.0998
      17    C5      17.613972   19.625904   23.201356 C.3        1 MOL1        -0.2317
      18    H12     17.519251   19.018110   22.294939 H          1 MOL1         0.1009
      19    H13     17.015433   20.534195   23.053967 H          1 MOL1         0.1009
      20    H14     17.167222   19.065689   24.032991 H          1 MOL1         0.1009
@<TRIPOS>BOND
    1     1     2    1
    2     1     3    1
    3     1     4    1
    4     1     5    1
    5     5     6    1
    6     5     7    1
    7     7     8    1
    8     7     9    1
    9     7    10    1
   10     5    11    1
   11    11    12    1
   12    11    13    1
   13    11    14    1
   14    14    15    1
   15    14    16    1
   16    14    17    1
   17    17    18    1
   18    17    19    1
   19    17    20    1
@<TRIPOS>SUBSTRUCTURE
       1 MOL1            1 RESIDUE      1      MOL     
@<SCITEGIC>MOL_PROPERTY
VConf Rank
SciTegic.value.IntegerValue
189

@<SCITEGIC>MOL_PROPERTY
Conf_Id
SciTegic.value.IntegerValue
35

@<SCITEGIC>MOL_PROPERTY
Delta U+W
SciTegic.value.DoubleValue
3.004

@<SCITEGIC>MOL_PROPERTY
U+W
SciTegic.value.DoubleValue
-33.272

@<SCITEGIC>MOL_PROPERTY
Grad RMS
SciTegic.value.DoubleValue
0.000000

@<SCITEGIC>MOL_PROPERTY
U
SciTegic.value.DoubleValue
25.367

@<SCITEGIC>MOL_PROPERTY
W
SciTegic.value.DoubleValue
-58.639

@<SCITEGIC>MOL_PROPERTY
W(PB)
SciTegic.value.DoubleValue
-60.512

@<SCITEGIC>MOL_PROPERTY
W(SA)
SciTegic.value.DoubleValue
1.873

@<SCITEGIC>MOL_PROPERTY
Valence
SciTegic.value.DoubleValue
4.943

@<SCITEGIC>MOL_PROPERTY
Coulomb
SciTegic.value.DoubleValue
19.661

@<SCITEGIC>MOL_PROPERTY
VdW
SciTegic.value.DoubleValue
0.764

@<SCITEGIC>MOL_PROPERTY
VdW6
SciTegic.value.DoubleValue
-5.871

@<SCITEGIC>MOL_PROPERTY
VdW12
SciTegic.value.DoubleValue
6.636

@<SCITEGIC>MOL_PROPERTY
Bond
SciTegic.value.DoubleValue
0.230

@<SCITEGIC>MOL_PROPERTY
Angle
SciTegic.value.DoubleValue
1.857

@<SCITEGIC>MOL_PROPERTY
Pdih
SciTegic.value.DoubleValue
2.855

@<SCITEGIC>MOL_PROPERTY
Idih
SciTegic.value.DoubleValue
0.000

@<SCITEGIC>MOL_PROPERTY
Tether
SciTegic.value.DoubleValue
0.000

@<TRIPOS>MOLECULE
guest-s10_confgen4.mol2 : confsearch ligand conformer 190
          20          19           1
SMALL
USER_CHARGES
 
@<TRIPOS>ATOM
       1    N1      19.638970   19.051926   24.470845 N.4        1 MOL1        -0.5937
       2    H1      20.157716   19.422461   25.271600 H          1 MOL1         0.3684
       3    H2      18.968632   18.368079   24.832206 H          1 MOL1         0.3684
       4    H3      19.102615   19.821571   24.065918 H          1 MOL1         0.3684
       5    C1      20.560023   18.435871   23.453692 C.3        1 MOL1         0.1270
       6    H4      21.061453   17.615642   23.976874 H          1 MOL1         0.0960
       7    C2      21.648621   19.428275   23.008046 C.3        1 MOL1        -0.2382
       8    H5      21.215443   20.328084   22.555282 H          1 MOL1         0.1009
       9    H6      22.321721   18.964451   22.276457 H          1 MOL1         0.1009
      10    H7      22.255694   19.743285   23.865484 H          1 MOL1         0.1009
      11    C3      19.806148   17.807526   22.253622 C.3        1 MOL1        -0.1392
      12    H8      20.501149   17.127230   21.744002 H          1 MOL1         0.0998
      13    H9      19.000525   17.167145   22.635855 H          1 MOL1         0.0998
      14    C4      19.226235   18.779438   21.187937 C.3        1 MOL1        -0.1302
      15    H10     18.768922   18.175752   20.391537 H          1 MOL1         0.0998
      16    H11     20.036532   19.340742   20.703182 H          1 MOL1         0.0998
      17    C5      18.160657   19.762771   21.723212 C.3        1 MOL1        -0.2317
      18    H12     17.380462   19.236022   22.287988 H          1 MOL1         0.1009
      19    H13     17.672630   20.284519   20.889678 H          1 MOL1         0.1009
      20    H14     18.606461   20.530755   22.365652 H          1 MOL1         0.1009
@<TRIPOS>BOND
    1     1     2    1
    2     1     3    1
    3     1     4    1
    4     1     5    1
    5     5     6    1
    6     5     7    1
    7     7     8    1
    8     7     9    1
    9     7    10    1
   10     5    11    1
   11    11    12    1
   12    11    13    1
   13    11    14    1
   14    14    15    1
   15    14    16    1
   16    14    17    1
   17    17    18    1
   18    17    19    1
   19    17    20    1
@<TRIPOS>SUBSTRUCTURE
       1 MOL1            1 RESIDUE      1      MOL     
@<SCITEGIC>MOL_PROPERTY
VConf Rank
SciTegic.value.IntegerValue
190

@<SCITEGIC>MOL_PROPERTY
Conf_Id
SciTegic.value.IntegerValue
55

@<SCITEGIC>MOL_PROPERTY
Delta U+W
SciTegic.value.DoubleValue
2.767

@<SCITEGIC>MOL_PROPERTY
U+W
SciTegic.value.DoubleValue
-33.509

@<SCITEGIC>MOL_PROPERTY
Grad RMS
SciTegic.value.DoubleValue
0.000000

@<SCITEGIC>MOL_PROPERTY
U
SciTegic.value.DoubleValue
24.552

@<SCITEGIC>MOL_PROPERTY
W
SciTegic.value.DoubleValue
-58.061

@<SCITEGIC>MOL_PROPERTY
W(PB)
SciTegic.value.DoubleValue
-59.930

@<SCITEGIC>MOL_PROPERTY
W(SA)
SciTegic.value.DoubleValue
1.869

@<SCITEGIC>MOL_PROPERTY
Valence
SciTegic.value.DoubleValue
3.726

@<SCITEGIC>MOL_PROPERTY
Coulomb
SciTegic.value.DoubleValue
20.219

@<SCITEGIC>MOL_PROPERTY
VdW
SciTegic.value.DoubleValue
0.606

@<SCITEGIC>MOL_PROPERTY
VdW6
SciTegic.value.DoubleValue
-6.395

@<SCITEGIC>MOL_PROPERTY
VdW12
SciTegic.value.DoubleValue
7.001

@<SCITEGIC>MOL_PROPERTY
Bond
SciTegic.value.DoubleValue
0.241

@<SCITEGIC>MOL_PROPERTY
Angle
SciTegic.value.DoubleValue
2.098

@<SCITEGIC>MOL_PROPERTY
Pdih
SciTegic.value.DoubleValue
1.387

@<SCITEGIC>MOL_PROPERTY
Idih
SciTegic.value.DoubleValue
0.000

@<SCITEGIC>MOL_PROPERTY
Tether
SciTegic.value.DoubleValue
0.000

@<TRIPOS>MOLECULE
guest-s10_confgen4.mol2 : confsearch ligand conformer 191
          20          19           1
SMALL
USER_CHARGES
 
@<TRIPOS>ATOM
       1    N1      21.632975   18.409738   22.551806 N.4        1 MOL1        -0.5937
       2    H1      21.628827   17.690870   23.279650 H          1 MOL1         0.3684
       3    H2      22.598317   18.733970   22.448637 H          1 MOL1         0.3684
       4    H3      21.368544   17.958716   21.672467 H          1 MOL1         0.3684
       5    C1      20.704292   19.544179   22.891885 C.3        1 MOL1         0.1270
       6    H4      20.766154   20.260006   22.066263 H          1 MOL1         0.0960
       7    C2      21.163918   20.251545   24.177321 C.3        1 MOL1        -0.2382
       8    H5      22.194902   20.611931   24.075064 H          1 MOL1         0.1009
       9    H6      21.122420   19.574822   25.039944 H          1 MOL1         0.1009
      10    H7      20.528717   21.119562   24.393435 H          1 MOL1         0.1009
      11    C3      19.234549   19.088147   23.026205 C.3        1 MOL1        -0.1392
      12    H8      19.148853   18.349738   23.834490 H          1 MOL1         0.0998
      13    H9      18.622149   19.949874   23.323625 H          1 MOL1         0.0998
      14    C4      18.661354   18.497714   21.715344 C.3        1 MOL1        -0.1302
      15    H10     19.222890   17.599154   21.426045 H          1 MOL1         0.0998
      16    H11     18.780304   19.224066   20.898946 H          1 MOL1         0.0998
      17    C5      17.168583   18.131656   21.860051 C.3        1 MOL1        -0.2317
      18    H12     17.020172   17.383272   22.649450 H          1 MOL1         0.1009
      19    H13     16.779248   17.713605   20.922642 H          1 MOL1         0.1009
      20    H14     16.566836   19.015359   22.109453 H          1 MOL1         0.1009
@<TRIPOS>BOND
    1     1     2    1
    2     1     3    1
    3     1     4    1
    4     1     5    1
    5     5     6    1
    6     5     7    1
    7     7     8    1
    8     7     9    1
    9     7    10    1
   10     5    11    1
   11    11    12    1
   12    11    13    1
   13    11    14    1
   14    14    15    1
   15    14    16    1
   16    14    17    1
   17    17    18    1
   18    17    19    1
   19    17    20    1
@<TRIPOS>SUBSTRUCTURE
       1 MOL1            1 RESIDUE      1      MOL     
@<SCITEGIC>MOL_PROPERTY
VConf Rank
SciTegic.value.IntegerValue
191

@<SCITEGIC>MOL_PROPERTY
Conf_Id
SciTegic.value.IntegerValue
74

@<SCITEGIC>MOL_PROPERTY
Delta U+W
SciTegic.value.DoubleValue
0.000

@<SCITEGIC>MOL_PROPERTY
U+W
SciTegic.value.DoubleValue
-36.276

@<SCITEGIC>MOL_PROPERTY
Grad RMS
SciTegic.value.DoubleValue
0.000000

@<SCITEGIC>MOL_PROPERTY
U
SciTegic.value.DoubleValue
22.080

@<SCITEGIC>MOL_PROPERTY
W
SciTegic.value.DoubleValue
-58.356

@<SCITEGIC>MOL_PROPERTY
W(PB)
SciTegic.value.DoubleValue
-60.289

@<SCITEGIC>MOL_PROPERTY
W(SA)
SciTegic.value.DoubleValue
1.932

@<SCITEGIC>MOL_PROPERTY
Valence
SciTegic.value.DoubleValue
1.885

@<SCITEGIC>MOL_PROPERTY
Coulomb
SciTegic.value.DoubleValue
19.559

@<SCITEGIC>MOL_PROPERTY
VdW
SciTegic.value.DoubleValue
0.637

@<SCITEGIC>MOL_PROPERTY
VdW6
SciTegic.value.DoubleValue
-4.482

@<SCITEGIC>MOL_PROPERTY
VdW12
SciTegic.value.DoubleValue
5.119

@<SCITEGIC>MOL_PROPERTY
Bond
SciTegic.value.DoubleValue
0.136

@<SCITEGIC>MOL_PROPERTY
Angle
SciTegic.value.DoubleValue
0.867

@<SCITEGIC>MOL_PROPERTY
Pdih
SciTegic.value.DoubleValue
0.882

@<SCITEGIC>MOL_PROPERTY
Idih
SciTegic.value.DoubleValue
0.000

@<SCITEGIC>MOL_PROPERTY
Tether
SciTegic.value.DoubleValue
0.000

@<TRIPOS>MOLECULE
guest-s10_confgen4.mol2 : confsearch ligand conformer 192
          20          19           1
SMALL
USER_CHARGES
 
@<TRIPOS>ATOM
       1    N1      19.296229   18.825036   20.372993 N.4        1 MOL1        -0.5937
       2    H1      18.309465   19.094586   20.334320 H          1 MOL1         0.3684
       3    H2      19.340578   17.808598   20.265226 H          1 MOL1         0.3684
       4    H3      19.754328   19.237752   19.555992 H          1 MOL1         0.3684
       5    C1      19.945102   19.273915   21.653594 C.3        1 MOL1         0.1270
       6    H4      19.852665   20.364152   21.680147 H          1 MOL1         0.0960
       7    C2      21.441933   18.912980   21.648747 C.3        1 MOL1        -0.2382
       8    H5      21.927396   19.290368   20.740383 H          1 MOL1         0.1009
       9    H6      21.588651   17.826396   21.686017 H          1 MOL1         0.1009
      10    H7      21.963233   19.359901   22.502990 H          1 MOL1         0.1009
      11    C3      19.210071   18.696272   22.885481 C.3        1 MOL1        -0.1392
      12    H8      18.135900   18.894498   22.773564 H          1 MOL1         0.0998
      13    H9      19.323829   17.604252   22.905501 H          1 MOL1         0.0998
      14    C4      19.682289   19.294778   24.233057 C.3        1 MOL1        -0.1302
      15    H10     19.628041   20.391746   24.190764 H          1 MOL1         0.0998
      16    H11     20.732912   19.034562   24.418471 H          1 MOL1         0.0998
      17    C5      18.827218   18.785533   25.413399 C.3        1 MOL1        -0.2317
      18    H12     17.772764   19.063956   25.287520 H          1 MOL1         0.1009
      19    H13     19.177690   19.216399   26.360295 H          1 MOL1         0.1009
      20    H14     18.884165   17.692559   25.499560 H          1 MOL1         0.1009
@<TRIPOS>BOND
    1     1     2    1
    2     1     3    1
    3     1     4    1
    4     1     5    1
    5     5     6    1
    6     5     7    1
    7     7     8    1
    8     7     9    1
    9     7    10    1
   10     5    11    1
   11    11    12    1
   12    11    13    1
   13    11    14    1
   14    14    15    1
   15    14    16    1
   16    14    17    1
   17    17    18    1
   18    17    19    1
   19    17    20    1
@<TRIPOS>SUBSTRUCTURE
       1 MOL1            1 RESIDUE      1      MOL     
@<SCITEGIC>MOL_PROPERTY
VConf Rank
SciTegic.value.IntegerValue
192

@<SCITEGIC>MOL_PROPERTY
Conf_Id
SciTegic.value.IntegerValue
80

@<SCITEGIC>MOL_PROPERTY
Delta U+W
SciTegic.value.DoubleValue
0.460

@<SCITEGIC>MOL_PROPERTY
U+W
SciTegic.value.DoubleValue
-35.817

@<SCITEGIC>MOL_PROPERTY
Grad RMS
SciTegic.value.DoubleValue
0.000000

@<SCITEGIC>MOL_PROPERTY
U
SciTegic.value.DoubleValue
22.495

@<SCITEGIC>MOL_PROPERTY
W
SciTegic.value.DoubleValue
-58.311

@<SCITEGIC>MOL_PROPERTY
W(PB)
SciTegic.value.DoubleValue
-60.259

@<SCITEGIC>MOL_PROPERTY
W(SA)
SciTegic.value.DoubleValue
1.948

@<SCITEGIC>MOL_PROPERTY
Valence
SciTegic.value.DoubleValue
2.419

@<SCITEGIC>MOL_PROPERTY
Coulomb
SciTegic.value.DoubleValue
19.304

@<SCITEGIC>MOL_PROPERTY
VdW
SciTegic.value.DoubleValue
0.772

@<SCITEGIC>MOL_PROPERTY
VdW6
SciTegic.value.DoubleValue
-4.635

@<SCITEGIC>MOL_PROPERTY
VdW12
SciTegic.value.DoubleValue
5.407

@<SCITEGIC>MOL_PROPERTY
Bond
SciTegic.value.DoubleValue
0.149

@<SCITEGIC>MOL_PROPERTY
Angle
SciTegic.value.DoubleValue
1.142

@<SCITEGIC>MOL_PROPERTY
Pdih
SciTegic.value.DoubleValue
1.129

@<SCITEGIC>MOL_PROPERTY
Idih
SciTegic.value.DoubleValue
0.000

@<SCITEGIC>MOL_PROPERTY
Tether
SciTegic.value.DoubleValue
0.000

@<TRIPOS>MOLECULE
guest-s10_confgen4.mol2 : confsearch ligand conformer 193
          20          19           1
SMALL
USER_CHARGES
 
@<TRIPOS>ATOM
       1    N1      20.075473   18.376426   20.402795 N.4        1 MOL1        -0.5937
       2    H1      21.003530   17.978110   20.235865 H          1 MOL1         0.3684
       3    H2      20.102852   19.353911   20.102025 H          1 MOL1         0.3684
       4    H3      19.421167   17.886829   19.786520 H          1 MOL1         0.3684
       5    C1      19.669265   18.254002   21.845971 C.3        1 MOL1         0.1270
       6    H4      19.662350   17.183250   22.072339 H          1 MOL1         0.0960
       7    C2      18.242653   18.793812   22.045072 C.3        1 MOL1        -0.2382
       8    H5      17.555750   18.352953   21.312302 H          1 MOL1         0.1009
       9    H6      18.209813   19.884296   21.930095 H          1 MOL1         0.1009
      10    H7      17.860434   18.535643   23.039186 H          1 MOL1         0.1009
      11    C3      20.704925   18.934299   22.774378 C.3        1 MOL1        -0.1392
      12    H8      21.689784   18.512468   22.533953 H          1 MOL1         0.0998
      13    H9      20.775032   20.005612   22.543937 H          1 MOL1         0.0998
      14    C4      20.460442   18.726695   24.292526 C.3        1 MOL1        -0.1302
      15    H10     21.433268   18.616628   24.792138 H          1 MOL1         0.0998
      16    H11     19.924016   17.783569   24.467813 H          1 MOL1         0.0998
      17    C5      19.713032   19.904229   24.961724 C.3        1 MOL1        -0.2317
      18    H12     20.279870   20.838472   24.856829 H          1 MOL1         0.1009
      19    H13     19.580871   19.714903   26.034884 H          1 MOL1         0.1009
      20    H14     18.719308   20.062954   24.528295 H          1 MOL1         0.1009
@<TRIPOS>BOND
    1     1     2    1
    2     1     3    1
    3     1     4    1
    4     1     5    1
    5     5     6    1
    6     5     7    1
    7     7     8    1
    8     7     9    1
    9     7    10    1
   10     5    11    1
   11    11    12    1
   12    11    13    1
   13    11    14    1
   14    14    15    1
   15    14    16    1
   16    14    17    1
   17    17    18    1
   18    17    19    1
   19    17    20    1
@<TRIPOS>SUBSTRUCTURE
       1 MOL1            1 RESIDUE      1      MOL     
@<SCITEGIC>MOL_PROPERTY
VConf Rank
SciTegic.value.IntegerValue
193

@<SCITEGIC>MOL_PROPERTY
Conf_Id
SciTegic.value.IntegerValue
52

@<SCITEGIC>MOL_PROPERTY
Delta U+W
SciTegic.value.DoubleValue
2.995

@<SCITEGIC>MOL_PROPERTY
U+W
SciTegic.value.DoubleValue
-33.282

@<SCITEGIC>MOL_PROPERTY
Grad RMS
SciTegic.value.DoubleValue
0.000000

@<SCITEGIC>MOL_PROPERTY
U
SciTegic.value.DoubleValue
25.224

@<SCITEGIC>MOL_PROPERTY
W
SciTegic.value.DoubleValue
-58.506

@<SCITEGIC>MOL_PROPERTY
W(PB)
SciTegic.value.DoubleValue
-60.411

@<SCITEGIC>MOL_PROPERTY
W(SA)
SciTegic.value.DoubleValue
1.905

@<SCITEGIC>MOL_PROPERTY
Valence
SciTegic.value.DoubleValue
4.945

@<SCITEGIC>MOL_PROPERTY
Coulomb
SciTegic.value.DoubleValue
19.467

@<SCITEGIC>MOL_PROPERTY
VdW
SciTegic.value.DoubleValue
0.813

@<SCITEGIC>MOL_PROPERTY
VdW6
SciTegic.value.DoubleValue
-5.458

@<SCITEGIC>MOL_PROPERTY
VdW12
SciTegic.value.DoubleValue
6.270

@<SCITEGIC>MOL_PROPERTY
Bond
SciTegic.value.DoubleValue
0.200

@<SCITEGIC>MOL_PROPERTY
Angle
SciTegic.value.DoubleValue
1.675

@<SCITEGIC>MOL_PROPERTY
Pdih
SciTegic.value.DoubleValue
3.070

@<SCITEGIC>MOL_PROPERTY
Idih
SciTegic.value.DoubleValue
0.000

@<SCITEGIC>MOL_PROPERTY
Tether
SciTegic.value.DoubleValue
0.000

@<TRIPOS>MOLECULE
guest-s10_confgen4.mol2 : confsearch ligand conformer 194
          20          19           1
SMALL
USER_CHARGES
 
@<TRIPOS>ATOM
       1    N1      19.719795   17.731472   23.737198 N.4        1 MOL1        -0.5937
       2    H1      19.786939   16.920295   23.117634 H          1 MOL1         0.3684
       3    H2      19.315718   17.409191   24.620660 H          1 MOL1         0.3684
       4    H3      20.672255   18.048424   23.930449 H          1 MOL1         0.3684
       5    C1      18.894490   18.826938   23.119075 C.3        1 MOL1         0.1270
       6    H4      18.827987   19.634469   23.854741 H          1 MOL1         0.0960
       7    C2      17.471978   18.313356   22.838980 C.3        1 MOL1        -0.2382
       8    H5      17.479875   17.509355   22.092403 H          1 MOL1         0.1009
       9    H6      16.831045   19.121244   22.464591 H          1 MOL1         0.1009
      10    H7      17.011576   17.924368   23.755525 H          1 MOL1         0.1009
      11    C3      19.526202   19.397447   21.826908 C.3        1 MOL1        -0.1392
      12    H8      19.840039   18.576086   21.169301 H          1 MOL1         0.0998
      13    H9      18.753416   19.946543   21.272491 H          1 MOL1         0.0998
      14    C4      20.706231   20.377651   22.057860 C.3        1 MOL1        -0.1302
      15    H10     20.371037   21.221044   22.677834 H          1 MOL1         0.0998
      16    H11     20.987422   20.809329   21.086977 H          1 MOL1         0.0998
      17    C5      21.965002   19.741134   22.689957 C.3        1 MOL1        -0.2317
      18    H12     22.810937   20.438663   22.633958 H          1 MOL1         0.1009
      19    H13     22.256310   18.823236   22.162777 H          1 MOL1         0.1009
      20    H14     21.812137   19.510026   23.750457 H          1 MOL1         0.1009
@<TRIPOS>BOND
    1     1     2    1
    2     1     3    1
    3     1     4    1
    4     1     5    1
    5     5     6    1
    6     5     7    1
    7     7     8    1
    8     7     9    1
    9     7    10    1
   10     5    11    1
   11    11    12    1
   12    11    13    1
   13    11    14    1
   14    14    15    1
   15    14    16    1
   16    14    17    1
   17    17    18    1
   18    17    19    1
   19    17    20    1
@<TRIPOS>SUBSTRUCTURE
       1 MOL1            1 RESIDUE      1      MOL     
@<SCITEGIC>MOL_PROPERTY
VConf Rank
SciTegic.value.IntegerValue
194

@<SCITEGIC>MOL_PROPERTY
Conf_Id
SciTegic.value.IntegerValue
54

@<SCITEGIC>MOL_PROPERTY
Delta U+W
SciTegic.value.DoubleValue
2.752

@<SCITEGIC>MOL_PROPERTY
U+W
SciTegic.value.DoubleValue
-33.525

@<SCITEGIC>MOL_PROPERTY
Grad RMS
SciTegic.value.DoubleValue
0.000000

@<SCITEGIC>MOL_PROPERTY
U
SciTegic.value.DoubleValue
24.337

@<SCITEGIC>MOL_PROPERTY
W
SciTegic.value.DoubleValue
-57.862

@<SCITEGIC>MOL_PROPERTY
W(PB)
SciTegic.value.DoubleValue
-59.764

@<SCITEGIC>MOL_PROPERTY
W(SA)
SciTegic.value.DoubleValue
1.901

@<SCITEGIC>MOL_PROPERTY
Valence
SciTegic.value.DoubleValue
3.593

@<SCITEGIC>MOL_PROPERTY
Coulomb
SciTegic.value.DoubleValue
20.067

@<SCITEGIC>MOL_PROPERTY
VdW
SciTegic.value.DoubleValue
0.677

@<SCITEGIC>MOL_PROPERTY
VdW6
SciTegic.value.DoubleValue
-5.466

@<SCITEGIC>MOL_PROPERTY
VdW12
SciTegic.value.DoubleValue
6.144

@<SCITEGIC>MOL_PROPERTY
Bond
SciTegic.value.DoubleValue
0.191

@<SCITEGIC>MOL_PROPERTY
Angle
SciTegic.value.DoubleValue
1.557

@<SCITEGIC>MOL_PROPERTY
Pdih
SciTegic.value.DoubleValue
1.845

@<SCITEGIC>MOL_PROPERTY
Idih
SciTegic.value.DoubleValue
0.000

@<SCITEGIC>MOL_PROPERTY
Tether
SciTegic.value.DoubleValue
0.000

@<TRIPOS>MOLECULE
guest-s10_confgen4.mol2 : confsearch ligand conformer 195
          20          19           1
SMALL
USER_CHARGES
 
@<TRIPOS>ATOM
       1    N1      20.947273   19.951731   24.059625 N.4        1 MOL1        -0.5937
       2    H1      21.220313   20.876118   24.404026 H          1 MOL1         0.3684
       3    H2      21.749823   19.329911   24.189877 H          1 MOL1         0.3684
       4    H3      20.194131   19.611790   24.661842 H          1 MOL1         0.3684
       5    C1      20.517470   20.005798   22.618711 C.3        1 MOL1         0.1270
       6    H4      21.375725   20.393958   22.061258 H          1 MOL1         0.0960
       7    C2      19.353723   20.994334   22.425498 C.3        1 MOL1        -0.2382
       8    H5      19.042198   21.029532   21.374220 H          1 MOL1         0.1009
       9    H6      19.658914   22.007252   22.715227 H          1 MOL1         0.1009
      10    H7      18.483175   20.720756   23.033233 H          1 MOL1         0.1009
      11    C3      20.193378   18.605987   22.043781 C.3        1 MOL1        -0.1392
      12    H8      19.976169   18.706308   20.972104 H          1 MOL1         0.0998
      13    H9      21.096752   17.985651   22.110918 H          1 MOL1         0.0998
      14    C4      19.018187   17.869548   22.737270 C.3        1 MOL1        -0.1302
      15    H10     18.092231   18.451190   22.635725 H          1 MOL1         0.0998
      16    H11     19.215432   17.769093   23.812986 H          1 MOL1         0.0998
      17    C5      18.794357   16.466232   22.134000 C.3        1 MOL1        -0.2317
      18    H12     17.958779   15.958414   22.632996 H          1 MOL1         0.1009
      19    H13     19.687354   15.838460   22.250956 H          1 MOL1         0.1009
      20    H14     18.558691   16.529238   21.063619 H          1 MOL1         0.1009
@<TRIPOS>BOND
    1     1     2    1
    2     1     3    1
    3     1     4    1
    4     1     5    1
    5     5     6    1
    6     5     7    1
    7     7     8    1
    8     7     9    1
    9     7    10    1
   10     5    11    1
   11    11    12    1
   12    11    13    1
   13    11    14    1
   14    14    15    1
   15    14    16    1
   16    14    17    1
   17    17    18    1
   18    17    19    1
   19    17    20    1
@<TRIPOS>SUBSTRUCTURE
       1 MOL1            1 RESIDUE      1      MOL     
@<SCITEGIC>MOL_PROPERTY
VConf Rank
SciTegic.value.IntegerValue
195

@<SCITEGIC>MOL_PROPERTY
Conf_Id
SciTegic.value.IntegerValue
63

@<SCITEGIC>MOL_PROPERTY
Delta U+W
SciTegic.value.DoubleValue
0.420

@<SCITEGIC>MOL_PROPERTY
U+W
SciTegic.value.DoubleValue
-35.856

@<SCITEGIC>MOL_PROPERTY
Grad RMS
SciTegic.value.DoubleValue
0.000000

@<SCITEGIC>MOL_PROPERTY
U
SciTegic.value.DoubleValue
22.625

@<SCITEGIC>MOL_PROPERTY
W
SciTegic.value.DoubleValue
-58.481

@<SCITEGIC>MOL_PROPERTY
W(PB)
SciTegic.value.DoubleValue
-60.400

@<SCITEGIC>MOL_PROPERTY
W(SA)
SciTegic.value.DoubleValue
1.919

@<SCITEGIC>MOL_PROPERTY
Valence
SciTegic.value.DoubleValue
2.404

@<SCITEGIC>MOL_PROPERTY
Coulomb
SciTegic.value.DoubleValue
19.464

@<SCITEGIC>MOL_PROPERTY
VdW
SciTegic.value.DoubleValue
0.757

@<SCITEGIC>MOL_PROPERTY
VdW6
SciTegic.value.DoubleValue
-5.074

@<SCITEGIC>MOL_PROPERTY
VdW12
SciTegic.value.DoubleValue
5.830

@<SCITEGIC>MOL_PROPERTY
Bond
SciTegic.value.DoubleValue
0.172

@<SCITEGIC>MOL_PROPERTY
Angle
SciTegic.value.DoubleValue
1.207

@<SCITEGIC>MOL_PROPERTY
Pdih
SciTegic.value.DoubleValue
1.025

@<SCITEGIC>MOL_PROPERTY
Idih
SciTegic.value.DoubleValue
0.000

@<SCITEGIC>MOL_PROPERTY
Tether
SciTegic.value.DoubleValue
0.000

@<TRIPOS>MOLECULE
guest-s10_confgen4.mol2 : confsearch ligand conformer 196
          20          19           1
SMALL
USER_CHARGES
 
@<TRIPOS>ATOM
       1    N1      18.445911   20.174338   23.181757 N.4        1 MOL1        -0.5937
       2    H1      18.952900   20.789468   22.540312 H          1 MOL1         0.3684
       3    H2      18.597688   20.525981   24.130300 H          1 MOL1         0.3684
       4    H3      17.448320   20.272468   22.975057 H          1 MOL1         0.3684
       5    C1      18.900396   18.746535   23.043916 C.3        1 MOL1         0.1270
       6    H4      18.701014   18.451286   22.009409 H          1 MOL1         0.0960
       7    C2      18.087537   17.826155   23.968943 C.3        1 MOL1        -0.2382
       8    H5      17.014882   17.910148   23.755418 H          1 MOL1         0.1009
       9    H6      18.246923   18.081543   25.023991 H          1 MOL1         0.1009
      10    H7      18.373962   16.777008   23.824460 H          1 MOL1         0.1009
      11    C3      20.413275   18.579245   23.312601 C.3        1 MOL1        -0.1392
      12    H8      20.631270   18.855583   24.352769 H          1 MOL1         0.0998
      13    H9      20.678081   17.517929   23.215572 H          1 MOL1         0.0998
      14    C4      21.321452   19.406247   22.367518 C.3        1 MOL1        -0.1302
      15    H10     22.370851   19.224669   22.638983 H          1 MOL1         0.0998
      16    H11     21.151850   20.480554   22.521350 H          1 MOL1         0.0998
      17    C5      21.122379   19.055151   20.875382 C.3        1 MOL1        -0.2317
      18    H12     21.286997   17.984568   20.696684 H          1 MOL1         0.1009
      19    H13     21.833705   19.611533   20.251264 H          1 MOL1         0.1009
      20    H14     20.111964   19.308725   20.530915 H          1 MOL1         0.1009
@<TRIPOS>BOND
    1     1     2    1
    2     1     3    1
    3     1     4    1
    4     1     5    1
    5     5     6    1
    6     5     7    1
    7     7     8    1
    8     7     9    1
    9     7    10    1
   10     5    11    1
   11    11    12    1
   12    11    13    1
   13    11    14    1
   14    14    15    1
   15    14    16    1
   16    14    17    1
   17    17    18    1
   18    17    19    1
   19    17    20    1
@<TRIPOS>SUBSTRUCTURE
       1 MOL1            1 RESIDUE      1      MOL     
@<SCITEGIC>MOL_PROPERTY
VConf Rank
SciTegic.value.IntegerValue
196

@<SCITEGIC>MOL_PROPERTY
Conf_Id
SciTegic.value.IntegerValue
50

@<SCITEGIC>MOL_PROPERTY
Delta U+W
SciTegic.value.DoubleValue
0.466

@<SCITEGIC>MOL_PROPERTY
U+W
SciTegic.value.DoubleValue
-35.811

@<SCITEGIC>MOL_PROPERTY
Grad RMS
SciTegic.value.DoubleValue
0.000000

@<SCITEGIC>MOL_PROPERTY
U
SciTegic.value.DoubleValue
22.369

@<SCITEGIC>MOL_PROPERTY
W
SciTegic.value.DoubleValue
-58.180

@<SCITEGIC>MOL_PROPERTY
W(PB)
SciTegic.value.DoubleValue
-60.103

@<SCITEGIC>MOL_PROPERTY
W(SA)
SciTegic.value.DoubleValue
1.923

@<SCITEGIC>MOL_PROPERTY
Valence
SciTegic.value.DoubleValue
2.168

@<SCITEGIC>MOL_PROPERTY
Coulomb
SciTegic.value.DoubleValue
19.636

@<SCITEGIC>MOL_PROPERTY
VdW
SciTegic.value.DoubleValue
0.566

@<SCITEGIC>MOL_PROPERTY
VdW6
SciTegic.value.DoubleValue
-5.263

@<SCITEGIC>MOL_PROPERTY
VdW12
SciTegic.value.DoubleValue
5.829

@<SCITEGIC>MOL_PROPERTY
Bond
SciTegic.value.DoubleValue
0.162

@<SCITEGIC>MOL_PROPERTY
Angle
SciTegic.value.DoubleValue
1.066

@<SCITEGIC>MOL_PROPERTY
Pdih
SciTegic.value.DoubleValue
0.939

@<SCITEGIC>MOL_PROPERTY
Idih
SciTegic.value.DoubleValue
0.000

@<SCITEGIC>MOL_PROPERTY
Tether
SciTegic.value.DoubleValue
0.000

@<TRIPOS>MOLECULE
guest-s10_confgen4.mol2 : confsearch ligand conformer 197
          20          19           1
SMALL
USER_CHARGES
 
@<TRIPOS>ATOM
       1    N1      21.512312   19.012668   24.181066 N.4        1 MOL1        -0.5937
       2    H1      22.266302   18.537878   23.677012 H          1 MOL1         0.3684
       3    H2      21.283869   18.443098   24.999769 H          1 MOL1         0.3684
       4    H3      21.889998   19.900179   24.523722 H          1 MOL1         0.3684
       5    C1      20.308435   19.228372   23.304291 C.3        1 MOL1         0.1270
       6    H4      20.649973   19.838863   22.462617 H          1 MOL1         0.0960
       7    C2      19.228529   20.010283   24.075253 C.3        1 MOL1        -0.2382
       8    H5      18.890846   19.452418   24.957536 H          1 MOL1         0.1009
       9    H6      18.352526   20.211380   23.449180 H          1 MOL1         0.1009
      10    H7      19.620239   20.976761   24.415269 H          1 MOL1         0.1009
      11    C3      19.757582   17.895406   22.740384 C.3        1 MOL1        -0.1392
      12    H8      20.524932   17.116885   22.844075 H          1 MOL1         0.0998
      13    H9      18.903564   17.549786   23.338058 H          1 MOL1         0.0998
      14    C4      19.367452   17.961508   21.241981 C.3        1 MOL1        -0.1302
      15    H10     19.064321   16.957346   20.913803 H          1 MOL1         0.0998
      16    H11     20.251215   18.224031   20.643544 H          1 MOL1         0.0998
      17    C5      18.224326   18.952377   20.929448 C.3        1 MOL1        -0.2317
      18    H12     17.339063   18.742821   21.543797 H          1 MOL1         0.1009
      19    H13     17.926417   18.873918   19.875818 H          1 MOL1         0.1009
      20    H14     18.533779   19.990068   21.105706 H          1 MOL1         0.1009
@<TRIPOS>BOND
    1     1     2    1
    2     1     3    1
    3     1     4    1
    4     1     5    1
    5     5     6    1
    6     5     7    1
    7     7     8    1
    8     7     9    1
    9     7    10    1
   10     5    11    1
   11    11    12    1
   12    11    13    1
   13    11    14    1
   14    14    15    1
   15    14    16    1
   16    14    17    1
   17    17    18    1
   18    17    19    1
   19    17    20    1
@<TRIPOS>SUBSTRUCTURE
       1 MOL1            1 RESIDUE      1      MOL     
@<SCITEGIC>MOL_PROPERTY
VConf Rank
SciTegic.value.IntegerValue
197

@<SCITEGIC>MOL_PROPERTY
Conf_Id
SciTegic.value.IntegerValue
3

@<SCITEGIC>MOL_PROPERTY
Delta U+W
SciTegic.value.DoubleValue
3.093

@<SCITEGIC>MOL_PROPERTY
U+W
SciTegic.value.DoubleValue
-33.184

@<SCITEGIC>MOL_PROPERTY
Grad RMS
SciTegic.value.DoubleValue
0.000000

@<SCITEGIC>MOL_PROPERTY
U
SciTegic.value.DoubleValue
25.256

@<SCITEGIC>MOL_PROPERTY
W
SciTegic.value.DoubleValue
-58.439

@<SCITEGIC>MOL_PROPERTY
W(PB)
SciTegic.value.DoubleValue
-60.337

@<SCITEGIC>MOL_PROPERTY
W(SA)
SciTegic.value.DoubleValue
1.898

@<SCITEGIC>MOL_PROPERTY
Valence
SciTegic.value.DoubleValue
4.963

@<SCITEGIC>MOL_PROPERTY
Coulomb
SciTegic.value.DoubleValue
19.511

@<SCITEGIC>MOL_PROPERTY
VdW
SciTegic.value.DoubleValue
0.782

@<SCITEGIC>MOL_PROPERTY
VdW6
SciTegic.value.DoubleValue
-5.429

@<SCITEGIC>MOL_PROPERTY
VdW12
SciTegic.value.DoubleValue
6.211

@<SCITEGIC>MOL_PROPERTY
Bond
SciTegic.value.DoubleValue
0.174

@<SCITEGIC>MOL_PROPERTY
Angle
SciTegic.value.DoubleValue
1.377

@<SCITEGIC>MOL_PROPERTY
Pdih
SciTegic.value.DoubleValue
3.412

@<SCITEGIC>MOL_PROPERTY
Idih
SciTegic.value.DoubleValue
0.000

@<SCITEGIC>MOL_PROPERTY
Tether
SciTegic.value.DoubleValue
0.000

@<TRIPOS>MOLECULE
guest-s10_confgen4.mol2 : confsearch ligand conformer 198
          20          19           1
SMALL
USER_CHARGES
 
@<TRIPOS>ATOM
       1    N1      19.199058   18.155651   20.675140 N.4        1 MOL1        -0.5937
       2    H1      18.376194   18.451007   20.142885 H          1 MOL1         0.3684
       3    H2      19.122804   17.144235   20.813170 H          1 MOL1         0.3684
       4    H3      20.018412   18.323478   20.085922 H          1 MOL1         0.3684
       5    C1      19.300520   18.888809   21.984554 C.3        1 MOL1         0.1270
       6    H4      18.386968   18.653953   22.538956 H          1 MOL1         0.0960
       7    C2      19.346598   20.408871   21.744988 C.3        1 MOL1        -0.2382
       8    H5      19.279906   20.962405   22.688751 H          1 MOL1         0.1009
       9    H6      18.502407   20.727881   21.121524 H          1 MOL1         0.1009
      10    H7      20.274119   20.703138   21.238432 H          1 MOL1         0.1009
      11    C3      20.511421   18.393877   22.811107 C.3        1 MOL1        -0.1392
      12    H8      20.466134   17.298982   22.879527 H          1 MOL1         0.0998
      13    H9      21.439119   18.626956   22.271861 H          1 MOL1         0.0998
      14    C4      20.602963   18.968680   24.247883 C.3        1 MOL1        -0.1302
      15    H10     20.783554   20.051535   24.214944 H          1 MOL1         0.0998
      16    H11     21.480759   18.533348   24.745679 H          1 MOL1         0.0998
      17    C5      19.347143   18.674007   25.099489 C.3        1 MOL1        -0.2317
      18    H12     19.144613   17.596002   25.144710 H          1 MOL1         0.1009
      19    H13     18.458460   19.173815   24.693906 H          1 MOL1         0.1009
      20    H14     19.487154   19.031836   26.127776 H          1 MOL1         0.1009
@<TRIPOS>BOND
    1     1     2    1
    2     1     3    1
    3     1     4    1
    4     1     5    1
    5     5     6    1
    6     5     7    1
    7     7     8    1
    8     7     9    1
    9     7    10    1
   10     5    11    1
   11    11    12    1
   12    11    13    1
   13    11    14    1
   14    14    15    1
   15    14    16    1
   16    14    17    1
   17    17    18    1
   18    17    19    1
   19    17    20    1
@<TRIPOS>SUBSTRUCTURE
       1 MOL1            1 RESIDUE      1      MOL     
@<SCITEGIC>MOL_PROPERTY
VConf Rank
SciTegic.value.IntegerValue
198

@<SCITEGIC>MOL_PROPERTY
Conf_Id
SciTegic.value.IntegerValue
64

@<SCITEGIC>MOL_PROPERTY
Delta U+W
SciTegic.value.DoubleValue
0.544

@<SCITEGIC>MOL_PROPERTY
U+W
SciTegic.value.DoubleValue
-35.732

@<SCITEGIC>MOL_PROPERTY
Grad RMS
SciTegic.value.DoubleValue
0.000000

@<SCITEGIC>MOL_PROPERTY
U
SciTegic.value.DoubleValue
22.800

@<SCITEGIC>MOL_PROPERTY
W
SciTegic.value.DoubleValue
-58.532

@<SCITEGIC>MOL_PROPERTY
W(PB)
SciTegic.value.DoubleValue
-60.437

@<SCITEGIC>MOL_PROPERTY
W(SA)
SciTegic.value.DoubleValue
1.905

@<SCITEGIC>MOL_PROPERTY
Valence
SciTegic.value.DoubleValue
2.662

@<SCITEGIC>MOL_PROPERTY
Coulomb
SciTegic.value.DoubleValue
19.485

@<SCITEGIC>MOL_PROPERTY
VdW
SciTegic.value.DoubleValue
0.653

@<SCITEGIC>MOL_PROPERTY
VdW6
SciTegic.value.DoubleValue
-5.460

@<SCITEGIC>MOL_PROPERTY
VdW12
SciTegic.value.DoubleValue
6.113

@<SCITEGIC>MOL_PROPERTY
Bond
SciTegic.value.DoubleValue
0.174

@<SCITEGIC>MOL_PROPERTY
Angle
SciTegic.value.DoubleValue
1.378

@<SCITEGIC>MOL_PROPERTY
Pdih
SciTegic.value.DoubleValue
1.109

@<SCITEGIC>MOL_PROPERTY
Idih
SciTegic.value.DoubleValue
0.000

@<SCITEGIC>MOL_PROPERTY
Tether
SciTegic.value.DoubleValue
0.000

@<TRIPOS>MOLECULE
guest-s10_confgen4.mol2 : confsearch ligand conformer 199
          20          19           1
SMALL
USER_CHARGES
 
@<TRIPOS>ATOM
       1    N1      21.774591   18.258421   22.445324 N.4        1 MOL1        -0.5937
       2    H1      21.901141   19.266815   22.556671 H          1 MOL1         0.3684
       3    H2      22.328907   17.968443   21.635225 H          1 MOL1         0.3684
       4    H3      22.180195   17.805109   23.268521 H          1 MOL1         0.3684
       5    C1      20.322711   17.900734   22.275217 C.3        1 MOL1         0.1270
       6    H4      20.294744   16.813352   22.153638 H          1 MOL1         0.0960
       7    C2      19.752325   18.521298   20.989416 C.3        1 MOL1        -0.2382
       8    H5      19.871595   19.610992   20.982322 H          1 MOL1         0.1009
       9    H6      18.686548   18.285368   20.880807 H          1 MOL1         0.1009
      10    H7      20.272207   18.123741   20.109279 H          1 MOL1         0.1009
      11    C3      19.481763   18.236159   23.532690 C.3        1 MOL1        -0.1392
      12    H8      18.479283   17.800972   23.427133 H          1 MOL1         0.0998
      13    H9      19.936577   17.708777   24.381510 H          1 MOL1         0.0998
      14    C4      19.366453   19.741714   23.900430 C.3        1 MOL1        -0.1302
      15    H10     20.268498   20.289324   23.597419 H          1 MOL1         0.0998
      16    H11     19.318123   19.827732   24.995075 H          1 MOL1         0.0998
      17    C5      18.107438   20.425708   23.317523 C.3        1 MOL1        -0.2317
      18    H12     18.103603   20.420706   22.222106 H          1 MOL1         0.1009
      19    H13     18.054693   21.472671   23.643179 H          1 MOL1         0.1009
      20    H14     17.193221   19.924911   23.661691 H          1 MOL1         0.1009
@<TRIPOS>BOND
    1     1     2    1
    2     1     3    1
    3     1     4    1
    4     1     5    1
    5     5     6    1
    6     5     7    1
    7     7     8    1
    8     7     9    1
    9     7    10    1
   10     5    11    1
   11    11    12    1
   12    11    13    1
   13    11    14    1
   14    14    15    1
   15    14    16    1
   16    14    17    1
   17    17    18    1
   18    17    19    1
   19    17    20    1
@<TRIPOS>SUBSTRUCTURE
       1 MOL1            1 RESIDUE      1      MOL     
@<SCITEGIC>MOL_PROPERTY
VConf Rank
SciTegic.value.IntegerValue
199

@<SCITEGIC>MOL_PROPERTY
Conf_Id
SciTegic.value.IntegerValue
35

@<SCITEGIC>MOL_PROPERTY
Delta U+W
SciTegic.value.DoubleValue
3.004

@<SCITEGIC>MOL_PROPERTY
U+W
SciTegic.value.DoubleValue
-33.272

@<SCITEGIC>MOL_PROPERTY
Grad RMS
SciTegic.value.DoubleValue
0.000000

@<SCITEGIC>MOL_PROPERTY
U
SciTegic.value.DoubleValue
25.367

@<SCITEGIC>MOL_PROPERTY
W
SciTegic.value.DoubleValue
-58.639

@<SCITEGIC>MOL_PROPERTY
W(PB)
SciTegic.value.DoubleValue
-60.512

@<SCITEGIC>MOL_PROPERTY
W(SA)
SciTegic.value.DoubleValue
1.873

@<SCITEGIC>MOL_PROPERTY
Valence
SciTegic.value.DoubleValue
4.943

@<SCITEGIC>MOL_PROPERTY
Coulomb
SciTegic.value.DoubleValue
19.661

@<SCITEGIC>MOL_PROPERTY
VdW
SciTegic.value.DoubleValue
0.764

@<SCITEGIC>MOL_PROPERTY
VdW6
SciTegic.value.DoubleValue
-5.871

@<SCITEGIC>MOL_PROPERTY
VdW12
SciTegic.value.DoubleValue
6.636

@<SCITEGIC>MOL_PROPERTY
Bond
SciTegic.value.DoubleValue
0.230

@<SCITEGIC>MOL_PROPERTY
Angle
SciTegic.value.DoubleValue
1.857

@<SCITEGIC>MOL_PROPERTY
Pdih
SciTegic.value.DoubleValue
2.855

@<SCITEGIC>MOL_PROPERTY
Idih
SciTegic.value.DoubleValue
0.000

@<SCITEGIC>MOL_PROPERTY
Tether
SciTegic.value.DoubleValue
0.000

@<TRIPOS>MOLECULE
guest-s10_confgen4.mol2 : confsearch ligand conformer 200
          20          19           1
SMALL
USER_CHARGES
 
@<TRIPOS>ATOM
       1    N1      19.428618   18.885206   24.438330 N.4        1 MOL1        -0.5937
       2    H1      18.800957   18.370373   25.061700 H          1 MOL1         0.3684
       3    H2      19.755031   19.710377   24.948359 H          1 MOL1         0.3684
       4    H3      20.242577   18.293755   24.260415 H          1 MOL1         0.3684
       5    C1      18.741927   19.266582   23.155570 C.3        1 MOL1         0.1270
       6    H4      17.910368   19.912753   23.453730 H          1 MOL1         0.0960
       7    C2      18.137835   18.036688   22.454894 C.3        1 MOL1        -0.2382
       8    H5      18.905538   17.293984   22.207269 H          1 MOL1         0.1009
       9    H6      17.628877   18.328214   21.527859 H          1 MOL1         0.1009
      10    H7      17.397507   17.550810   23.102045 H          1 MOL1         0.1009
      11    C3      19.642272   20.102461   22.210057 C.3        1 MOL1        -0.1392
      12    H8      18.989006   20.591099   21.475197 H          1 MOL1         0.0998
      13    H9      20.097250   20.920476   22.783697 H          1 MOL1         0.0998
      14    C4      20.752509   19.345185   21.428708 C.3        1 MOL1        -0.1302
      15    H10     21.262728   20.068807   20.777653 H          1 MOL1         0.0998
      16    H11     20.304680   18.605034   20.751762 H          1 MOL1         0.0998
      17    C5      21.814927   18.660293   22.318154 C.3        1 MOL1        -0.2317
      18    H12     22.219300   19.357063   23.063897 H          1 MOL1         0.1009
      19    H13     22.653640   18.307049   21.704192 H          1 MOL1         0.1009
      20    H14     21.405062   17.785336   22.835580 H          1 MOL1         0.1009
@<TRIPOS>BOND
    1     1     2    1
    2     1     3    1
    3     1     4    1
    4     1     5    1
    5     5     6    1
    6     5     7    1
    7     7     8    1
    8     7     9    1
    9     7    10    1
   10     5    11    1
   11    11    12    1
   12    11    13    1
   13    11    14    1
   14    14    15    1
   15    14    16    1
   16    14    17    1
   17    17    18    1
   18    17    19    1
   19    17    20    1
@<TRIPOS>SUBSTRUCTURE
       1 MOL1            1 RESIDUE      1      MOL     
@<SCITEGIC>MOL_PROPERTY
VConf Rank
SciTegic.value.IntegerValue
200

@<SCITEGIC>MOL_PROPERTY
Conf_Id
SciTegic.value.IntegerValue
55

@<SCITEGIC>MOL_PROPERTY
Delta U+W
SciTegic.value.DoubleValue
2.767

@<SCITEGIC>MOL_PROPERTY
U+W
SciTegic.value.DoubleValue
-33.509

@<SCITEGIC>MOL_PROPERTY
Grad RMS
SciTegic.value.DoubleValue
0.000000

@<SCITEGIC>MOL_PROPERTY
U
SciTegic.value.DoubleValue
24.552

@<SCITEGIC>MOL_PROPERTY
W
SciTegic.value.DoubleValue
-58.061

@<SCITEGIC>MOL_PROPERTY
W(PB)
SciTegic.value.DoubleValue
-59.930

@<SCITEGIC>MOL_PROPERTY
W(SA)
SciTegic.value.DoubleValue
1.869

@<SCITEGIC>MOL_PROPERTY
Valence
SciTegic.value.DoubleValue
3.726

@<SCITEGIC>MOL_PROPERTY
Coulomb
SciTegic.value.DoubleValue
20.219

@<SCITEGIC>MOL_PROPERTY
VdW
SciTegic.value.DoubleValue
0.606

@<SCITEGIC>MOL_PROPERTY
VdW6
SciTegic.value.DoubleValue
-6.395

@<SCITEGIC>MOL_PROPERTY
VdW12
SciTegic.value.DoubleValue
7.001

@<SCITEGIC>MOL_PROPERTY
Bond
SciTegic.value.DoubleValue
0.241

@<SCITEGIC>MOL_PROPERTY
Angle
SciTegic.value.DoubleValue
2.098

@<SCITEGIC>MOL_PROPERTY
Pdih
SciTegic.value.DoubleValue
1.387

@<SCITEGIC>MOL_PROPERTY
Idih
SciTegic.value.DoubleValue
0.000

@<SCITEGIC>MOL_PROPERTY
Tether
SciTegic.value.DoubleValue
0.000

@<TRIPOS>MOLECULE
guest-s10_confgen4.mol2 : confsearch ligand conformer 201
          20          19           1
SMALL
USER_CHARGES
 
@<TRIPOS>ATOM
       1    N1      17.915913   19.624049   23.021442 N.4        1 MOL1        -0.5937
       2    H1      18.168475   20.556942   23.356806 H          1 MOL1         0.3684
       3    H2      16.989844   19.404696   23.398188 H          1 MOL1         0.3684
       4    H3      17.824949   19.677151   22.003853 H          1 MOL1         0.3684
       5    C1      18.935280   18.595761   23.432021 C.3        1 MOL1         0.1270
       6    H4      18.592953   17.636056   23.032438 H          1 MOL1         0.0960
       7    C2      19.001675   18.482847   24.963951 C.3        1 MOL1        -0.2382
       8    H5      18.015945   18.238580   25.378601 H          1 MOL1         0.1009
       9    H6      19.339798   19.422939   25.417485 H          1 MOL1         0.1009
      10    H7      19.695344   17.688697   25.266919 H          1 MOL1         0.1009
      11    C3      20.337866   18.886630   22.853838 C.3        1 MOL1        -0.1392
      12    H8      20.695325   19.857701   23.221478 H          1 MOL1         0.0998
      13    H9      21.040163   18.131485   23.231466 H          1 MOL1         0.0998
      14    C4      20.370819   18.868731   21.306546 C.3        1 MOL1        -0.1302
      15    H10     19.717766   19.654593   20.903593 H          1 MOL1         0.0998
      16    H11     19.979141   17.909745   20.938882 H          1 MOL1         0.0998
      17    C5      21.801099   19.077987   20.764499 C.3        1 MOL1        -0.2317
      18    H12     22.209588   20.043532   21.090251 H          1 MOL1         0.1009
      19    H13     21.805673   19.063851   19.666836 H          1 MOL1         0.1009
      20    H14     22.476392   18.285952   21.113630 H          1 MOL1         0.1009
@<TRIPOS>BOND
    1     1     2    1
    2     1     3    1
    3     1     4    1
    4     1     5    1
    5     5     6    1
    6     5     7    1
    7     7     8    1
    8     7     9    1
    9     7    10    1
   10     5    11    1
   11    11    12    1
   12    11    13    1
   13    11    14    1
   14    14    15    1
   15    14    16    1
   16    14    17    1
   17    17    18    1
   18    17    19    1
   19    17    20    1
@<TRIPOS>SUBSTRUCTURE
       1 MOL1            1 RESIDUE      1      MOL     
@<SCITEGIC>MOL_PROPERTY
VConf Rank
SciTegic.value.IntegerValue
201

@<SCITEGIC>MOL_PROPERTY
Conf_Id
SciTegic.value.IntegerValue
74

@<SCITEGIC>MOL_PROPERTY
Delta U+W
SciTegic.value.DoubleValue
0.000

@<SCITEGIC>MOL_PROPERTY
U+W
SciTegic.value.DoubleValue
-36.276

@<SCITEGIC>MOL_PROPERTY
Grad RMS
SciTegic.value.DoubleValue
0.000000

@<SCITEGIC>MOL_PROPERTY
U
SciTegic.value.DoubleValue
22.080

@<SCITEGIC>MOL_PROPERTY
W
SciTegic.value.DoubleValue
-58.356

@<SCITEGIC>MOL_PROPERTY
W(PB)
SciTegic.value.DoubleValue
-60.289

@<SCITEGIC>MOL_PROPERTY
W(SA)
SciTegic.value.DoubleValue
1.932

@<SCITEGIC>MOL_PROPERTY
Valence
SciTegic.value.DoubleValue
1.885

@<SCITEGIC>MOL_PROPERTY
Coulomb
SciTegic.value.DoubleValue
19.559

@<SCITEGIC>MOL_PROPERTY
VdW
SciTegic.value.DoubleValue
0.637

@<SCITEGIC>MOL_PROPERTY
VdW6
SciTegic.value.DoubleValue
-4.482

@<SCITEGIC>MOL_PROPERTY
VdW12
SciTegic.value.DoubleValue
5.119

@<SCITEGIC>MOL_PROPERTY
Bond
SciTegic.value.DoubleValue
0.136

@<SCITEGIC>MOL_PROPERTY
Angle
SciTegic.value.DoubleValue
0.867

@<SCITEGIC>MOL_PROPERTY
Pdih
SciTegic.value.DoubleValue
0.882

@<SCITEGIC>MOL_PROPERTY
Idih
SciTegic.value.DoubleValue
0.000

@<SCITEGIC>MOL_PROPERTY
Tether
SciTegic.value.DoubleValue
0.000

@<TRIPOS>MOLECULE
guest-s10_confgen4.mol2 : confsearch ligand conformer 202
          20          19           1
SMALL
USER_CHARGES
 
@<TRIPOS>ATOM
       1    N1      19.170260   20.116304   20.721593 N.4        1 MOL1        -0.5937
       2    H1      18.623943   20.899274   21.090854 H          1 MOL1         0.3684
       3    H2      18.509745   19.436859   20.335846 H          1 MOL1         0.3684
       4    H3      19.725882   20.477076   19.941332 H          1 MOL1         0.3684
       5    C1      20.042779   19.499379   21.780167 C.3        1 MOL1         0.1270
       6    H4      20.711810   20.292369   22.128637 H          1 MOL1         0.0960
       7    C2      20.899207   18.371616   21.175615 C.3        1 MOL1        -0.2382
       8    H5      21.444488   18.730750   20.294189 H          1 MOL1         0.1009
       9    H6      20.277168   17.522083   20.867492 H          1 MOL1         0.1009
      10    H7      21.645687   18.009425   21.891722 H          1 MOL1         0.1009
      11    C3      19.202551   19.012206   22.983566 C.3        1 MOL1        -0.1392
      12    H8      18.538588   19.828686   23.296898 H          1 MOL1         0.0998
      13    H9      18.551370   18.185668   22.669487 H          1 MOL1         0.0998
      14    C4      20.050976   18.573809   24.202231 C.3        1 MOL1        -0.1302
      15    H10     20.747614   19.378154   24.477540 H          1 MOL1         0.0998
      16    H11     20.661175   17.697372   23.946464 H          1 MOL1         0.0998
      17    C5      19.164895   18.226252   25.417857 C.3        1 MOL1        -0.2317
      18    H12     18.568478   19.092200   25.733546 H          1 MOL1         0.1009
      19    H13     19.781724   17.914310   26.270677 H          1 MOL1         0.1009
      20    H14     18.476118   17.404447   25.182308 H          1 MOL1         0.1009
@<TRIPOS>BOND
    1     1     2    1
    2     1     3    1
    3     1     4    1
    4     1     5    1
    5     5     6    1
    6     5     7    1
    7     7     8    1
    8     7     9    1
    9     7    10    1
   10     5    11    1
   11    11    12    1
   12    11    13    1
   13    11    14    1
   14    14    15    1
   15    14    16    1
   16    14    17    1
   17    17    18    1
   18    17    19    1
   19    17    20    1
@<TRIPOS>SUBSTRUCTURE
       1 MOL1            1 RESIDUE      1      MOL     
@<SCITEGIC>MOL_PROPERTY
VConf Rank
SciTegic.value.IntegerValue
202

@<SCITEGIC>MOL_PROPERTY
Conf_Id
SciTegic.value.IntegerValue
80

@<SCITEGIC>MOL_PROPERTY
Delta U+W
SciTegic.value.DoubleValue
0.460

@<SCITEGIC>MOL_PROPERTY
U+W
SciTegic.value.DoubleValue
-35.817

@<SCITEGIC>MOL_PROPERTY
Grad RMS
SciTegic.value.DoubleValue
0.000000

@<SCITEGIC>MOL_PROPERTY
U
SciTegic.value.DoubleValue
22.495

@<SCITEGIC>MOL_PROPERTY
W
SciTegic.value.DoubleValue
-58.311

@<SCITEGIC>MOL_PROPERTY
W(PB)
SciTegic.value.DoubleValue
-60.259

@<SCITEGIC>MOL_PROPERTY
W(SA)
SciTegic.value.DoubleValue
1.948

@<SCITEGIC>MOL_PROPERTY
Valence
SciTegic.value.DoubleValue
2.419

@<SCITEGIC>MOL_PROPERTY
Coulomb
SciTegic.value.DoubleValue
19.304

@<SCITEGIC>MOL_PROPERTY
VdW
SciTegic.value.DoubleValue
0.772

@<SCITEGIC>MOL_PROPERTY
VdW6
SciTegic.value.DoubleValue
-4.635

@<SCITEGIC>MOL_PROPERTY
VdW12
SciTegic.value.DoubleValue
5.407

@<SCITEGIC>MOL_PROPERTY
Bond
SciTegic.value.DoubleValue
0.149

@<SCITEGIC>MOL_PROPERTY
Angle
SciTegic.value.DoubleValue
1.142

@<SCITEGIC>MOL_PROPERTY
Pdih
SciTegic.value.DoubleValue
1.129

@<SCITEGIC>MOL_PROPERTY
Idih
SciTegic.value.DoubleValue
0.000

@<SCITEGIC>MOL_PROPERTY
Tether
SciTegic.value.DoubleValue
0.000

@<TRIPOS>MOLECULE
guest-s10_confgen4.mol2 : confsearch ligand conformer 203
          20          19           1
SMALL
USER_CHARGES
 
@<TRIPOS>ATOM
       1    N1      19.959295   19.931207   24.879994 N.4        1 MOL1        -0.5937
       2    H1      19.148103   20.521479   25.083362 H          1 MOL1         0.3684
       3    H2      20.726667   20.549205   24.604480 H          1 MOL1         0.3684
       4    H3      20.232206   19.479960   25.757212 H          1 MOL1         0.3684
       5    C1      19.655408   18.917819   23.810674 C.3        1 MOL1         0.1270
       6    H4      18.834148   18.304609   24.194476 H          1 MOL1         0.0960
       7    C2      20.870445   18.001970   23.584480 C.3        1 MOL1        -0.2382
       8    H5      21.236479   17.601316   24.537705 H          1 MOL1         0.1009
       9    H6      21.694033   18.544391   23.103923 H          1 MOL1         0.1009
      10    H7      20.603903   17.144034   22.956859 H          1 MOL1         0.1009
      11    C3      19.172512   19.608415   22.511742 C.3        1 MOL1        -0.1392
      12    H8      18.333095   20.263610   22.779678 H          1 MOL1         0.0998
      13    H9      19.955559   20.271637   22.120970 H          1 MOL1         0.0998
      14    C4      18.681969   18.643744   21.399797 C.3        1 MOL1        -0.1302
      15    H10     17.825403   19.105261   20.888509 H          1 MOL1         0.0998
      16    H11     18.301782   17.712272   21.842270 H          1 MOL1         0.0998
      17    C5      19.760362   18.333659   20.334926 C.3        1 MOL1        -0.2317
      18    H12     20.091933   19.252412   19.833856 H          1 MOL1         0.1009
      19    H13     19.358033   17.662444   19.565130 H          1 MOL1         0.1009
      20    H14     20.642499   17.849615   20.768605 H          1 MOL1         0.1009
@<TRIPOS>BOND
    1     1     2    1
    2     1     3    1
    3     1     4    1
    4     1     5    1
    5     5     6    1
    6     5     7    1
    7     7     8    1
    8     7     9    1
    9     7    10    1
   10     5    11    1
   11    11    12    1
   12    11    13    1
   13    11    14    1
   14    14    15    1
   15    14    16    1
   16    14    17    1
   17    17    18    1
   18    17    19    1
   19    17    20    1
@<TRIPOS>SUBSTRUCTURE
       1 MOL1            1 RESIDUE      1      MOL     
@<SCITEGIC>MOL_PROPERTY
VConf Rank
SciTegic.value.IntegerValue
203

@<SCITEGIC>MOL_PROPERTY
Conf_Id
SciTegic.value.IntegerValue
52

@<SCITEGIC>MOL_PROPERTY
Delta U+W
SciTegic.value.DoubleValue
2.995

@<SCITEGIC>MOL_PROPERTY
U+W
SciTegic.value.DoubleValue
-33.282

@<SCITEGIC>MOL_PROPERTY
Grad RMS
SciTegic.value.DoubleValue
0.000000

@<SCITEGIC>MOL_PROPERTY
U
SciTegic.value.DoubleValue
25.224

@<SCITEGIC>MOL_PROPERTY
W
SciTegic.value.DoubleValue
-58.506

@<SCITEGIC>MOL_PROPERTY
W(PB)
SciTegic.value.DoubleValue
-60.411

@<SCITEGIC>MOL_PROPERTY
W(SA)
SciTegic.value.DoubleValue
1.905

@<SCITEGIC>MOL_PROPERTY
Valence
SciTegic.value.DoubleValue
4.945

@<SCITEGIC>MOL_PROPERTY
Coulomb
SciTegic.value.DoubleValue
19.467

@<SCITEGIC>MOL_PROPERTY
VdW
SciTegic.value.DoubleValue
0.813

@<SCITEGIC>MOL_PROPERTY
VdW6
SciTegic.value.DoubleValue
-5.458

@<SCITEGIC>MOL_PROPERTY
VdW12
SciTegic.value.DoubleValue
6.270

@<SCITEGIC>MOL_PROPERTY
Bond
SciTegic.value.DoubleValue
0.200

@<SCITEGIC>MOL_PROPERTY
Angle
SciTegic.value.DoubleValue
1.675

@<SCITEGIC>MOL_PROPERTY
Pdih
SciTegic.value.DoubleValue
3.070

@<SCITEGIC>MOL_PROPERTY
Idih
SciTegic.value.DoubleValue
0.000

@<SCITEGIC>MOL_PROPERTY
Tether
SciTegic.value.DoubleValue
0.000

@<TRIPOS>MOLECULE
guest-s10_confgen4.mol2 : confsearch ligand conformer 204
          20          19           1
SMALL
USER_CHARGES
 
@<TRIPOS>ATOM
       1    N1      18.538372   19.432589   23.736094 N.4        1 MOL1        -0.5937
       2    H1      18.618924   18.792133   24.529634 H          1 MOL1         0.3684
       3    H2      17.579177   19.789678   23.727146 H          1 MOL1         0.3684
       4    H3      19.160746   20.223171   23.916697 H          1 MOL1         0.3684
       5    C1      18.885568   18.748717   22.441867 C.3        1 MOL1         0.1270
       6    H4      18.730127   19.477619   21.640447 H          1 MOL1         0.0960
       7    C2      17.933012   17.564338   22.205983 C.3        1 MOL1        -0.2382
       8    H5      18.059629   16.793367   22.976328 H          1 MOL1         0.1009
       9    H6      18.116803   17.103377   21.227524 H          1 MOL1         0.1009
      10    H7      16.887739   17.896657   22.223375 H          1 MOL1         0.1009
      11    C3      20.357849   18.275539   22.389655 C.3        1 MOL1        -0.1392
      12    H8      20.615084   17.748982   23.318171 H          1 MOL1         0.0998
      13    H9      20.458601   17.533285   21.586542 H          1 MOL1         0.0998
      14    C4      21.391763   19.397147   22.107475 C.3        1 MOL1        -0.1302
      15    H10     21.154480   19.887825   21.153029 H          1 MOL1         0.0998
      16    H11     22.376185   18.928181   21.969597 H          1 MOL1         0.0998
      17    C5      21.512677   20.463725   23.219679 C.3        1 MOL1        -0.2317
      18    H12     22.392251   21.096649   23.043486 H          1 MOL1         0.1009
      19    H13     21.630477   19.999416   24.207534 H          1 MOL1         0.1009
      20    H14     20.640927   21.127876   23.239512 H          1 MOL1         0.1009
@<TRIPOS>BOND
    1     1     2    1
    2     1     3    1
    3     1     4    1
    4     1     5    1
    5     5     6    1
    6     5     7    1
    7     7     8    1
    8     7     9    1
    9     7    10    1
   10     5    11    1
   11    11    12    1
   12    11    13    1
   13    11    14    1
   14    14    15    1
   15    14    16    1
   16    14    17    1
   17    17    18    1
   18    17    19    1
   19    17    20    1
@<TRIPOS>SUBSTRUCTURE
       1 MOL1            1 RESIDUE      1      MOL     
@<SCITEGIC>MOL_PROPERTY
VConf Rank
SciTegic.value.IntegerValue
204

@<SCITEGIC>MOL_PROPERTY
Conf_Id
SciTegic.value.IntegerValue
54

@<SCITEGIC>MOL_PROPERTY
Delta U+W
SciTegic.value.DoubleValue
2.752

@<SCITEGIC>MOL_PROPERTY
U+W
SciTegic.value.DoubleValue
-33.525

@<SCITEGIC>MOL_PROPERTY
Grad RMS
SciTegic.value.DoubleValue
0.000000

@<SCITEGIC>MOL_PROPERTY
U
SciTegic.value.DoubleValue
24.337

@<SCITEGIC>MOL_PROPERTY
W
SciTegic.value.DoubleValue
-57.862

@<SCITEGIC>MOL_PROPERTY
W(PB)
SciTegic.value.DoubleValue
-59.764

@<SCITEGIC>MOL_PROPERTY
W(SA)
SciTegic.value.DoubleValue
1.901

@<SCITEGIC>MOL_PROPERTY
Valence
SciTegic.value.DoubleValue
3.593

@<SCITEGIC>MOL_PROPERTY
Coulomb
SciTegic.value.DoubleValue
20.067

@<SCITEGIC>MOL_PROPERTY
VdW
SciTegic.value.DoubleValue
0.677

@<SCITEGIC>MOL_PROPERTY
VdW6
SciTegic.value.DoubleValue
-5.466

@<SCITEGIC>MOL_PROPERTY
VdW12
SciTegic.value.DoubleValue
6.144

@<SCITEGIC>MOL_PROPERTY
Bond
SciTegic.value.DoubleValue
0.191

@<SCITEGIC>MOL_PROPERTY
Angle
SciTegic.value.DoubleValue
1.557

@<SCITEGIC>MOL_PROPERTY
Pdih
SciTegic.value.DoubleValue
1.845

@<SCITEGIC>MOL_PROPERTY
Idih
SciTegic.value.DoubleValue
0.000

@<SCITEGIC>MOL_PROPERTY
Tether
SciTegic.value.DoubleValue
0.000

@<TRIPOS>MOLECULE
guest-s10_confgen4.mol2 : confsearch ligand conformer 205
          20          19           1
SMALL
USER_CHARGES
 
@<TRIPOS>ATOM
       1    N1      21.456010   17.844541   22.313578 N.4        1 MOL1        -0.5937
       2    H1      22.326251   17.816962   21.775458 H          1 MOL1         0.3684
       3    H2      21.157926   16.876149   22.458746 H          1 MOL1         0.3684
       4    H3      21.676582   18.239016   23.230740 H          1 MOL1         0.3684
       5    C1      20.397977   18.649272   21.608694 C.3        1 MOL1         0.1270
       6    H4      20.244330   18.164240   20.639592 H          1 MOL1         0.0960
       7    C2      20.883923   20.084160   21.337045 C.3        1 MOL1        -0.2382
       8    H5      20.109234   20.667996   20.824732 H          1 MOL1         0.1009
       9    H6      21.771451   20.072883   20.692643 H          1 MOL1         0.1009
      10    H7      21.150504   20.605136   22.264170 H          1 MOL1         0.1009
      11    C3      19.041151   18.625527   22.352678 C.3        1 MOL1        -0.1392
      12    H8      18.295149   19.152335   21.743013 H          1 MOL1         0.0998
      13    H9      18.697867   17.584537   22.415157 H          1 MOL1         0.0998
      14    C4      19.064404   19.239561   23.776323 C.3        1 MOL1        -0.1302
      15    H10     19.356014   20.297281   23.729368 H          1 MOL1         0.0998
      16    H11     19.813078   18.729530   24.397223 H          1 MOL1         0.0998
      17    C5      17.685338   19.132377   24.461902 C.3        1 MOL1        -0.2317
      18    H12     17.716700   19.572679   25.466997 H          1 MOL1         0.1009
      19    H13     17.374619   18.084360   24.563560 H          1 MOL1         0.1009
      20    H14     16.915569   19.662761   23.886253 H          1 MOL1         0.1009
@<TRIPOS>BOND
    1     1     2    1
    2     1     3    1
    3     1     4    1
    4     1     5    1
    5     5     6    1
    6     5     7    1
    7     7     8    1
    8     7     9    1
    9     7    10    1
   10     5    11    1
   11    11    12    1
   12    11    13    1
   13    11    14    1
   14    14    15    1
   15    14    16    1
   16    14    17    1
   17    17    18    1
   18    17    19    1
   19    17    20    1
@<TRIPOS>SUBSTRUCTURE
       1 MOL1            1 RESIDUE      1      MOL     
@<SCITEGIC>MOL_PROPERTY
VConf Rank
SciTegic.value.IntegerValue
205

@<SCITEGIC>MOL_PROPERTY
Conf_Id
SciTegic.value.IntegerValue
63

@<SCITEGIC>MOL_PROPERTY
Delta U+W
SciTegic.value.DoubleValue
0.420

@<SCITEGIC>MOL_PROPERTY
U+W
SciTegic.value.DoubleValue
-35.856

@<SCITEGIC>MOL_PROPERTY
Grad RMS
SciTegic.value.DoubleValue
0.000000

@<SCITEGIC>MOL_PROPERTY
U
SciTegic.value.DoubleValue
22.625

@<SCITEGIC>MOL_PROPERTY
W
SciTegic.value.DoubleValue
-58.481

@<SCITEGIC>MOL_PROPERTY
W(PB)
SciTegic.value.DoubleValue
-60.400

@<SCITEGIC>MOL_PROPERTY
W(SA)
SciTegic.value.DoubleValue
1.919

@<SCITEGIC>MOL_PROPERTY
Valence
SciTegic.value.DoubleValue
2.404

@<SCITEGIC>MOL_PROPERTY
Coulomb
SciTegic.value.DoubleValue
19.464

@<SCITEGIC>MOL_PROPERTY
VdW
SciTegic.value.DoubleValue
0.757

@<SCITEGIC>MOL_PROPERTY
VdW6
SciTegic.value.DoubleValue
-5.074

@<SCITEGIC>MOL_PROPERTY
VdW12
SciTegic.value.DoubleValue
5.830

@<SCITEGIC>MOL_PROPERTY
Bond
SciTegic.value.DoubleValue
0.172

@<SCITEGIC>MOL_PROPERTY
Angle
SciTegic.value.DoubleValue
1.207

@<SCITEGIC>MOL_PROPERTY
Pdih
SciTegic.value.DoubleValue
1.025

@<SCITEGIC>MOL_PROPERTY
Idih
SciTegic.value.DoubleValue
0.000

@<SCITEGIC>MOL_PROPERTY
Tether
SciTegic.value.DoubleValue
0.000

@<TRIPOS>MOLECULE
guest-s10_confgen4.mol2 : confsearch ligand conformer 206
          20          19           1
SMALL
USER_CHARGES
 
@<TRIPOS>ATOM
       1    N1      18.220886   19.035129   23.758260 N.4        1 MOL1        -0.5937
       2    H1      18.422039   20.035465   23.834015 H          1 MOL1         0.3684
       3    H2      18.397404   18.615194   24.674184 H          1 MOL1         0.3684
       4    H3      17.220499   18.938221   23.564929 H          1 MOL1         0.3684
       5    C1      19.055524   18.389261   22.685687 C.3        1 MOL1         0.1270
       6    H4      18.804743   18.891559   21.746573 H          1 MOL1         0.0960
       7    C2      18.698287   16.900885   22.542059 C.3        1 MOL1        -0.2382
       8    H5      17.630319   16.777041   22.324468 H          1 MOL1         0.1009
       9    H6      18.926231   16.346742   23.461146 H          1 MOL1         0.1009
      10    H7      19.260447   16.442858   21.718767 H          1 MOL1         0.1009
      11    C3      20.571627   18.557098   22.935176 C.3        1 MOL1        -0.1392
      12    H8      20.846433   18.044717   23.866724 H          1 MOL1         0.0998
      13    H9      21.123945   18.050623   22.132458 H          1 MOL1         0.0998
      14    C4      21.043711   20.031386   23.009387 C.3        1 MOL1        -0.1302
      15    H10     22.127308   20.045754   23.192458 H          1 MOL1         0.0998
      16    H11     20.585599   20.534208   23.871865 H          1 MOL1         0.0998
      17    C5      20.743171   20.829465   21.720156 C.3        1 MOL1        -0.2317
      18    H12     21.191846   20.345366   20.842934 H          1 MOL1         0.1009
      19    H13     21.157119   21.843743   21.790543 H          1 MOL1         0.1009
      20    H14     19.664220   20.924418   21.544811 H          1 MOL1         0.1009
@<TRIPOS>BOND
    1     1     2    1
    2     1     3    1
    3     1     4    1
    4     1     5    1
    5     5     6    1
    6     5     7    1
    7     7     8    1
    8     7     9    1
    9     7    10    1
   10     5    11    1
   11    11    12    1
   12    11    13    1
   13    11    14    1
   14    14    15    1
   15    14    16    1
   16    14    17    1
   17    17    18    1
   18    17    19    1
   19    17    20    1
@<TRIPOS>SUBSTRUCTURE
       1 MOL1            1 RESIDUE      1      MOL     
@<SCITEGIC>MOL_PROPERTY
VConf Rank
SciTegic.value.IntegerValue
206

@<SCITEGIC>MOL_PROPERTY
Conf_Id
SciTegic.value.IntegerValue
50

@<SCITEGIC>MOL_PROPERTY
Delta U+W
SciTegic.value.DoubleValue
0.466

@<SCITEGIC>MOL_PROPERTY
U+W
SciTegic.value.DoubleValue
-35.811

@<SCITEGIC>MOL_PROPERTY
Grad RMS
SciTegic.value.DoubleValue
0.000000

@<SCITEGIC>MOL_PROPERTY
U
SciTegic.value.DoubleValue
22.369

@<SCITEGIC>MOL_PROPERTY
W
SciTegic.value.DoubleValue
-58.180

@<SCITEGIC>MOL_PROPERTY
W(PB)
SciTegic.value.DoubleValue
-60.103

@<SCITEGIC>MOL_PROPERTY
W(SA)
SciTegic.value.DoubleValue
1.923

@<SCITEGIC>MOL_PROPERTY
Valence
SciTegic.value.DoubleValue
2.168

@<SCITEGIC>MOL_PROPERTY
Coulomb
SciTegic.value.DoubleValue
19.636

@<SCITEGIC>MOL_PROPERTY
VdW
SciTegic.value.DoubleValue
0.566

@<SCITEGIC>MOL_PROPERTY
VdW6
SciTegic.value.DoubleValue
-5.263

@<SCITEGIC>MOL_PROPERTY
VdW12
SciTegic.value.DoubleValue
5.829

@<SCITEGIC>MOL_PROPERTY
Bond
SciTegic.value.DoubleValue
0.162

@<SCITEGIC>MOL_PROPERTY
Angle
SciTegic.value.DoubleValue
1.066

@<SCITEGIC>MOL_PROPERTY
Pdih
SciTegic.value.DoubleValue
0.939

@<SCITEGIC>MOL_PROPERTY
Idih
SciTegic.value.DoubleValue
0.000

@<SCITEGIC>MOL_PROPERTY
Tether
SciTegic.value.DoubleValue
0.000

@<TRIPOS>MOLECULE
guest-s10_confgen4.mol2 : confsearch ligand conformer 207
          20          19           1
SMALL
USER_CHARGES
 
@<TRIPOS>ATOM
       1    N1      19.216714   16.645854   22.533148 N.4        1 MOL1        -0.5937
       2    H1      20.072550   16.236758   22.148204 H          1 MOL1         0.3684
       3    H2      18.490763   16.570637   21.816064 H          1 MOL1         0.3684
       4    H3      18.928646   16.058535   23.320428 H          1 MOL1         0.3684
       5    C1      19.427019   18.073700   22.959303 C.3        1 MOL1         0.1270
       6    H4      20.215806   18.052274   23.717669 H          1 MOL1         0.0960
       7    C2      18.140634   18.627063   23.600369 C.3        1 MOL1        -0.2382
       8    H5      17.308735   18.621735   22.885119 H          1 MOL1         0.1009
       9    H6      18.275641   19.655877   23.951231 H          1 MOL1         0.1009
      10    H7      17.847610   18.019103   24.465037 H          1 MOL1         0.1009
      11    C3      19.910346   18.961921   21.786405 C.3        1 MOL1        -0.1392
      12    H8      20.287136   18.318800   20.980118 H          1 MOL1         0.0998
      13    H9      19.067567   19.516402   21.352487 H          1 MOL1         0.0998
      14    C4      21.051157   19.939034   22.167961 C.3        1 MOL1        -0.1302
      15    H10     21.378918   20.466760   21.261313 H          1 MOL1         0.0998
      16    H11     21.921763   19.367784   22.519812 H          1 MOL1         0.0998
      17    C5      20.658116   20.983582   23.235984 C.3        1 MOL1        -0.2317
      18    H12     19.763799   21.543303   22.932771 H          1 MOL1         0.1009
      19    H13     21.471218   21.706334   23.382733 H          1 MOL1         0.1009
      20    H14     20.461543   20.510591   24.206174 H          1 MOL1         0.1009
@<TRIPOS>BOND
    1     1     2    1
    2     1     3    1
    3     1     4    1
    4     1     5    1
    5     5     6    1
    6     5     7    1
    7     7     8    1
    8     7     9    1
    9     7    10    1
   10     5    11    1
   11    11    12    1
   12    11    13    1
   13    11    14    1
   14    14    15    1
   15    14    16    1
   16    14    17    1
   17    17    18    1
   18    17    19    1
   19    17    20    1
@<TRIPOS>SUBSTRUCTURE
       1 MOL1            1 RESIDUE      1      MOL     
@<SCITEGIC>MOL_PROPERTY
VConf Rank
SciTegic.value.IntegerValue
207

@<SCITEGIC>MOL_PROPERTY
Conf_Id
SciTegic.value.IntegerValue
3

@<SCITEGIC>MOL_PROPERTY
Delta U+W
SciTegic.value.DoubleValue
3.093

@<SCITEGIC>MOL_PROPERTY
U+W
SciTegic.value.DoubleValue
-33.184

@<SCITEGIC>MOL_PROPERTY
Grad RMS
SciTegic.value.DoubleValue
0.000000

@<SCITEGIC>MOL_PROPERTY
U
SciTegic.value.DoubleValue
25.256

@<SCITEGIC>MOL_PROPERTY
W
SciTegic.value.DoubleValue
-58.439

@<SCITEGIC>MOL_PROPERTY
W(PB)
SciTegic.value.DoubleValue
-60.337

@<SCITEGIC>MOL_PROPERTY
W(SA)
SciTegic.value.DoubleValue
1.898

@<SCITEGIC>MOL_PROPERTY
Valence
SciTegic.value.DoubleValue
4.963

@<SCITEGIC>MOL_PROPERTY
Coulomb
SciTegic.value.DoubleValue
19.511

@<SCITEGIC>MOL_PROPERTY
VdW
SciTegic.value.DoubleValue
0.782

@<SCITEGIC>MOL_PROPERTY
VdW6
SciTegic.value.DoubleValue
-5.429

@<SCITEGIC>MOL_PROPERTY
VdW12
SciTegic.value.DoubleValue
6.211

@<SCITEGIC>MOL_PROPERTY
Bond
SciTegic.value.DoubleValue
0.174

@<SCITEGIC>MOL_PROPERTY
Angle
SciTegic.value.DoubleValue
1.377

@<SCITEGIC>MOL_PROPERTY
Pdih
SciTegic.value.DoubleValue
3.412

@<SCITEGIC>MOL_PROPERTY
Idih
SciTegic.value.DoubleValue
0.000

@<SCITEGIC>MOL_PROPERTY
Tether
SciTegic.value.DoubleValue
0.000

@<TRIPOS>MOLECULE
guest-s10_confgen4.mol2 : confsearch ligand conformer 208
          20          19           1
SMALL
USER_CHARGES
 
@<TRIPOS>ATOM
       1    N1      17.489397   18.338775   23.007431 N.4        1 MOL1        -0.5937
       2    H1      17.141314   17.399517   22.797030 H          1 MOL1         0.3684
       3    H2      16.995374   18.989471   22.390692 H          1 MOL1         0.3684
       4    H3      17.212842   18.557264   23.967881 H          1 MOL1         0.3684
       5    C1      18.980181   18.426846   22.828023 C.3        1 MOL1         0.1270
       6    H4      19.178403   18.175425   21.781796 H          1 MOL1         0.0960
       7    C2      19.688943   17.391077   23.719618 C.3        1 MOL1        -0.2382
       8    H5      20.761850   17.345006   23.499884 H          1 MOL1         0.1009
       9    H6      19.279344   16.388147   23.547883 H          1 MOL1         0.1009
      10    H7      19.565601   17.631612   24.782829 H          1 MOL1         0.1009
      11    C3      19.491540   19.864019   23.087783 C.3        1 MOL1        -0.1392
      12    H8      18.896318   20.562919   22.485475 H          1 MOL1         0.0998
      13    H9      19.306049   20.131720   24.136432 H          1 MOL1         0.0998
      14    C4      20.989790   20.094999   22.763748 C.3        1 MOL1        -0.1302
      15    H10     21.622134   19.507546   23.442948 H          1 MOL1         0.0998
      16    H11     21.234326   21.147963   22.962010 H          1 MOL1         0.0998
      17    C5      21.350440   19.764861   21.297429 C.3        1 MOL1        -0.2317
      18    H12     20.728208   20.339150   20.598732 H          1 MOL1         0.1009
      19    H13     21.216342   18.697798   21.079581 H          1 MOL1         0.1009
      20    H14     22.399911   20.014350   21.093996 H          1 MOL1         0.1009
@<TRIPOS>BOND
    1     1     2    1
    2     1     3    1
    3     1     4    1
    4     1     5    1
    5     5     6    1
    6     5     7    1
    7     7     8    1
    8     7     9    1
    9     7    10    1
   10     5    11    1
   11    11    12    1
   12    11    13    1
   13    11    14    1
   14    14    15    1
   15    14    16    1
   16    14    17    1
   17    17    18    1
   18    17    19    1
   19    17    20    1
@<TRIPOS>SUBSTRUCTURE
       1 MOL1            1 RESIDUE      1      MOL     
@<SCITEGIC>MOL_PROPERTY
VConf Rank
SciTegic.value.IntegerValue
208

@<SCITEGIC>MOL_PROPERTY
Conf_Id
SciTegic.value.IntegerValue
64

@<SCITEGIC>MOL_PROPERTY
Delta U+W
SciTegic.value.DoubleValue
0.544

@<SCITEGIC>MOL_PROPERTY
U+W
SciTegic.value.DoubleValue
-35.732

@<SCITEGIC>MOL_PROPERTY
Grad RMS
SciTegic.value.DoubleValue
0.000000

@<SCITEGIC>MOL_PROPERTY
U
SciTegic.value.DoubleValue
22.800

@<SCITEGIC>MOL_PROPERTY
W
SciTegic.value.DoubleValue
-58.532

@<SCITEGIC>MOL_PROPERTY
W(PB)
SciTegic.value.DoubleValue
-60.437

@<SCITEGIC>MOL_PROPERTY
W(SA)
SciTegic.value.DoubleValue
1.905

@<SCITEGIC>MOL_PROPERTY
Valence
SciTegic.value.DoubleValue
2.662

@<SCITEGIC>MOL_PROPERTY
Coulomb
SciTegic.value.DoubleValue
19.485

@<SCITEGIC>MOL_PROPERTY
VdW
SciTegic.value.DoubleValue
0.653

@<SCITEGIC>MOL_PROPERTY
VdW6
SciTegic.value.DoubleValue
-5.460

@<SCITEGIC>MOL_PROPERTY
VdW12
SciTegic.value.DoubleValue
6.113

@<SCITEGIC>MOL_PROPERTY
Bond
SciTegic.value.DoubleValue
0.174

@<SCITEGIC>MOL_PROPERTY
Angle
SciTegic.value.DoubleValue
1.378

@<SCITEGIC>MOL_PROPERTY
Pdih
SciTegic.value.DoubleValue
1.109

@<SCITEGIC>MOL_PROPERTY
Idih
SciTegic.value.DoubleValue
0.000

@<SCITEGIC>MOL_PROPERTY
Tether
SciTegic.value.DoubleValue
0.000

@<TRIPOS>MOLECULE
guest-s10_confgen4.mol2 : confsearch ligand conformer 209
          20          19           1
SMALL
USER_CHARGES
 
@<TRIPOS>ATOM
       1    N1      17.990905   18.730809   23.797847 N.4        1 MOL1        -0.5937
       2    H1      17.738068   19.437046   23.103170 H          1 MOL1         0.3684
       3    H2      17.677304   19.073296   24.709971 H          1 MOL1         0.3684
       4    H3      17.450911   17.886848   23.588571 H          1 MOL1         0.3684
       5    C1      19.470715   18.457023   23.791885 C.3        1 MOL1         0.1270
       6    H4      19.638904   17.704713   24.568869 H          1 MOL1         0.0960
       7    C2      20.262199   19.713420   24.190310 C.3        1 MOL1        -0.2382
       8    H5      20.036052   20.557229   23.528076 H          1 MOL1         0.1009
       9    H6      21.341873   19.522275   24.157062 H          1 MOL1         0.1009
      10    H7      20.009572   20.016380   25.213718 H          1 MOL1         0.1009
      11    C3      19.950528   17.839511   22.454201 C.3        1 MOL1        -0.1392
      12    H8      20.988925   17.499432   22.561784 H          1 MOL1         0.0998
      13    H9      19.364581   16.926393   22.285791 H          1 MOL1         0.0998
      14    C4      19.819218   18.741116   21.195197 C.3        1 MOL1        -0.1302
      15    H10     18.963015   19.422009   21.288374 H          1 MOL1         0.0998
      16    H11     19.597692   18.098791   20.331294 H          1 MOL1         0.0998
      17    C5      21.102861   19.541159   20.871255 C.3        1 MOL1        -0.2317
      18    H12     21.366589   20.241722   21.671028 H          1 MOL1         0.1009
      19    H13     20.968472   20.125243   19.951608 H          1 MOL1         0.1009
      20    H14     21.956233   18.868526   20.715170 H          1 MOL1         0.1009
@<TRIPOS>BOND
    1     1     2    1
    2     1     3    1
    3     1     4    1
    4     1     5    1
    5     5     6    1
    6     5     7    1
    7     7     8    1
    8     7     9    1
    9     7    10    1
   10     5    11    1
   11    11    12    1
   12    11    13    1
   13    11    14    1
   14    14    15    1
   15    14    16    1
   16    14    17    1
   17    17    18    1
   18    17    19    1
   19    17    20    1
@<TRIPOS>SUBSTRUCTURE
       1 MOL1            1 RESIDUE      1      MOL     
@<SCITEGIC>MOL_PROPERTY
VConf Rank
SciTegic.value.IntegerValue
209

@<SCITEGIC>MOL_PROPERTY
Conf_Id
SciTegic.value.IntegerValue
35

@<SCITEGIC>MOL_PROPERTY
Delta U+W
SciTegic.value.DoubleValue
3.004

@<SCITEGIC>MOL_PROPERTY
U+W
SciTegic.value.DoubleValue
-33.272

@<SCITEGIC>MOL_PROPERTY
Grad RMS
SciTegic.value.DoubleValue
0.000000

@<SCITEGIC>MOL_PROPERTY
U
SciTegic.value.DoubleValue
25.367

@<SCITEGIC>MOL_PROPERTY
W
SciTegic.value.DoubleValue
-58.639

@<SCITEGIC>MOL_PROPERTY
W(PB)
SciTegic.value.DoubleValue
-60.512

@<SCITEGIC>MOL_PROPERTY
W(SA)
SciTegic.value.DoubleValue
1.873

@<SCITEGIC>MOL_PROPERTY
Valence
SciTegic.value.DoubleValue
4.943

@<SCITEGIC>MOL_PROPERTY
Coulomb
SciTegic.value.DoubleValue
19.661

@<SCITEGIC>MOL_PROPERTY
VdW
SciTegic.value.DoubleValue
0.764

@<SCITEGIC>MOL_PROPERTY
VdW6
SciTegic.value.DoubleValue
-5.871

@<SCITEGIC>MOL_PROPERTY
VdW12
SciTegic.value.DoubleValue
6.636

@<SCITEGIC>MOL_PROPERTY
Bond
SciTegic.value.DoubleValue
0.230

@<SCITEGIC>MOL_PROPERTY
Angle
SciTegic.value.DoubleValue
1.857

@<SCITEGIC>MOL_PROPERTY
Pdih
SciTegic.value.DoubleValue
2.855

@<SCITEGIC>MOL_PROPERTY
Idih
SciTegic.value.DoubleValue
0.000

@<SCITEGIC>MOL_PROPERTY
Tether
SciTegic.value.DoubleValue
0.000

@<TRIPOS>MOLECULE
guest-s10_confgen4.mol2 : confsearch ligand conformer 210
          20          19           1
SMALL
USER_CHARGES
 
@<TRIPOS>ATOM
       1    N1      20.291937   20.077114   21.389086 N.4        1 MOL1        -0.5937
       2    H1      20.246455   21.077190   21.176056 H          1 MOL1         0.3684
       3    H2      20.471280   19.586088   20.509137 H          1 MOL1         0.3684
       4    H3      21.101047   19.925573   21.994374 H          1 MOL1         0.3684
       5    C1      19.025816   19.593570   22.041456 C.3        1 MOL1         0.1270
       6    H4      18.234427   19.776409   21.307835 H          1 MOL1         0.0960
       7    C2      18.688598   20.420723   23.294698 C.3        1 MOL1        -0.2382
       8    H5      19.486333   20.362943   24.044747 H          1 MOL1         0.1009
       9    H6      17.757236   20.067829   23.754536 H          1 MOL1         0.1009
      10    H7      18.550664   21.476742   23.032465 H          1 MOL1         0.1009
      11    C3      19.031921   18.069199   22.323534 C.3        1 MOL1        -0.1392
      12    H8      17.992767   17.758853   22.494962 H          1 MOL1         0.0998
      13    H9      19.346777   17.540731   21.414246 H          1 MOL1         0.0998
      14    C4      19.880916   17.570024   23.526292 C.3        1 MOL1        -0.1302
      15    H10     19.739816   16.483588   23.613305 H          1 MOL1         0.0998
      16    H11     19.497327   17.992638   24.464848 H          1 MOL1         0.0998
      17    C5      21.395664   17.854151   23.409091 C.3        1 MOL1        -0.2317
      18    H12     21.790248   17.518296   22.441287 H          1 MOL1         0.1009
      19    H13     21.944278   17.319344   24.195332 H          1 MOL1         0.1009
      20    H14     21.617098   18.920538   23.531779 H          1 MOL1         0.1009
@<TRIPOS>BOND
    1     1     2    1
    2     1     3    1
    3     1     4    1
    4     1     5    1
    5     5     6    1
    6     5     7    1
    7     7     8    1
    8     7     9    1
    9     7    10    1
   10     5    11    1
   11    11    12    1
   12    11    13    1
   13    11    14    1
   14    14    15    1
   15    14    16    1
   16    14    17    1
   17    17    18    1
   18    17    19    1
   19    17    20    1
@<TRIPOS>SUBSTRUCTURE
       1 MOL1            1 RESIDUE      1      MOL     
@<SCITEGIC>MOL_PROPERTY
VConf Rank
SciTegic.value.IntegerValue
210

@<SCITEGIC>MOL_PROPERTY
Conf_Id
SciTegic.value.IntegerValue
55

@<SCITEGIC>MOL_PROPERTY
Delta U+W
SciTegic.value.DoubleValue
2.767

@<SCITEGIC>MOL_PROPERTY
U+W
SciTegic.value.DoubleValue
-33.509

@<SCITEGIC>MOL_PROPERTY
Grad RMS
SciTegic.value.DoubleValue
0.000000

@<SCITEGIC>MOL_PROPERTY
U
SciTegic.value.DoubleValue
24.552

@<SCITEGIC>MOL_PROPERTY
W
SciTegic.value.DoubleValue
-58.061

@<SCITEGIC>MOL_PROPERTY
W(PB)
SciTegic.value.DoubleValue
-59.930

@<SCITEGIC>MOL_PROPERTY
W(SA)
SciTegic.value.DoubleValue
1.869

@<SCITEGIC>MOL_PROPERTY
Valence
SciTegic.value.DoubleValue
3.726

@<SCITEGIC>MOL_PROPERTY
Coulomb
SciTegic.value.DoubleValue
20.219

@<SCITEGIC>MOL_PROPERTY
VdW
SciTegic.value.DoubleValue
0.606

@<SCITEGIC>MOL_PROPERTY
VdW6
SciTegic.value.DoubleValue
-6.395

@<SCITEGIC>MOL_PROPERTY
VdW12
SciTegic.value.DoubleValue
7.001

@<SCITEGIC>MOL_PROPERTY
Bond
SciTegic.value.DoubleValue
0.241

@<SCITEGIC>MOL_PROPERTY
Angle
SciTegic.value.DoubleValue
2.098

@<SCITEGIC>MOL_PROPERTY
Pdih
SciTegic.value.DoubleValue
1.387

@<SCITEGIC>MOL_PROPERTY
Idih
SciTegic.value.DoubleValue
0.000

@<SCITEGIC>MOL_PROPERTY
Tether
SciTegic.value.DoubleValue
0.000

@<TRIPOS>MOLECULE
guest-s10_confgen4.mol2 : confsearch ligand conformer 211
          20          19           1
SMALL
USER_CHARGES
 
@<TRIPOS>ATOM
       1    N1      18.427913   20.260428   22.049149 N.4        1 MOL1        -0.5937
       2    H1      17.586008   19.715140   22.250151 H          1 MOL1         0.3684
       3    H2      18.195832   20.913667   21.296106 H          1 MOL1         0.3684
       4    H3      18.639039   20.818019   22.880473 H          1 MOL1         0.3684
       5    C1      19.582939   19.372499   21.671578 C.3        1 MOL1         0.1270
       6    H4      20.436026   20.030515   21.478845 H          1 MOL1         0.0960
       7    C2      19.270136   18.599545   20.379810 C.3        1 MOL1        -0.2382
       8    H5      19.028853   19.290250   19.562513 H          1 MOL1         0.1009
       9    H6      18.417742   17.922729   20.518145 H          1 MOL1         0.1009
      10    H7      20.133777   18.000923   20.064510 H          1 MOL1         0.1009
      11    C3      19.973561   18.394190   22.801389 C.3        1 MOL1        -0.1392
      12    H8      19.124662   17.736497   23.031012 H          1 MOL1         0.0998
      13    H9      20.784046   17.745286   22.443474 H          1 MOL1         0.0998
      14    C4      20.442064   19.112706   24.089706 C.3        1 MOL1        -0.1302
      15    H10     19.628400   19.726000   24.499886 H          1 MOL1         0.0998
      16    H11     21.268318   19.797617   23.852124 H          1 MOL1         0.0998
      17    C5      20.904918   18.107896   25.166471 C.3        1 MOL1        -0.2317
      18    H12     20.090573   17.427519   25.447870 H          1 MOL1         0.1009
      19    H13     21.232052   18.634016   26.072708 H          1 MOL1         0.1009
      20    H14     21.747145   17.502483   24.806803 H          1 MOL1         0.1009
@<TRIPOS>BOND
    1     1     2    1
    2     1     3    1
    3     1     4    1
    4     1     5    1
    5     5     6    1
    6     5     7    1
    7     7     8    1
    8     7     9    1
    9     7    10    1
   10     5    11    1
   11    11    12    1
   12    11    13    1
   13    11    14    1
   14    14    15    1
   15    14    16    1
   16    14    17    1
   17    17    18    1
   18    17    19    1
   19    17    20    1
@<TRIPOS>SUBSTRUCTURE
       1 MOL1            1 RESIDUE      1      MOL     
@<SCITEGIC>MOL_PROPERTY
VConf Rank
SciTegic.value.IntegerValue
211

@<SCITEGIC>MOL_PROPERTY
Conf_Id
SciTegic.value.IntegerValue
74

@<SCITEGIC>MOL_PROPERTY
Delta U+W
SciTegic.value.DoubleValue
0.000

@<SCITEGIC>MOL_PROPERTY
U+W
SciTegic.value.DoubleValue
-36.276

@<SCITEGIC>MOL_PROPERTY
Grad RMS
SciTegic.value.DoubleValue
0.000000

@<SCITEGIC>MOL_PROPERTY
U
SciTegic.value.DoubleValue
22.080

@<SCITEGIC>MOL_PROPERTY
W
SciTegic.value.DoubleValue
-58.356

@<SCITEGIC>MOL_PROPERTY
W(PB)
SciTegic.value.DoubleValue
-60.289

@<SCITEGIC>MOL_PROPERTY
W(SA)
SciTegic.value.DoubleValue
1.932

@<SCITEGIC>MOL_PROPERTY
Valence
SciTegic.value.DoubleValue
1.885

@<SCITEGIC>MOL_PROPERTY
Coulomb
SciTegic.value.DoubleValue
19.559

@<SCITEGIC>MOL_PROPERTY
VdW
SciTegic.value.DoubleValue
0.637

@<SCITEGIC>MOL_PROPERTY
VdW6
SciTegic.value.DoubleValue
-4.482

@<SCITEGIC>MOL_PROPERTY
VdW12
SciTegic.value.DoubleValue
5.119

@<SCITEGIC>MOL_PROPERTY
Bond
SciTegic.value.DoubleValue
0.136

@<SCITEGIC>MOL_PROPERTY
Angle
SciTegic.value.DoubleValue
0.867

@<SCITEGIC>MOL_PROPERTY
Pdih
SciTegic.value.DoubleValue
0.882

@<SCITEGIC>MOL_PROPERTY
Idih
SciTegic.value.DoubleValue
0.000

@<SCITEGIC>MOL_PROPERTY
Tether
SciTegic.value.DoubleValue
0.000

@<TRIPOS>MOLECULE
guest-s10_confgen4.mol2 : confsearch ligand conformer 212
          20          19           1
SMALL
USER_CHARGES
 
@<TRIPOS>ATOM
       1    N1      21.148909   17.049212   23.147884 N.4        1 MOL1        -0.5937
       2    H1      21.979349   17.495772   23.546395 H          1 MOL1         0.3684
       3    H2      21.366118   16.809185   22.177352 H          1 MOL1         0.3684
       4    H3      21.006136   16.170912   23.653734 H          1 MOL1         0.3684
       5    C1      19.940664   17.940377   23.239732 C.3        1 MOL1         0.1270
       6    H4      19.785008   18.139590   24.304603 H          1 MOL1         0.0960
       7    C2      18.697970   17.212812   22.694606 C.3        1 MOL1        -0.2382
       8    H5      18.577150   16.237115   23.181063 H          1 MOL1         0.1009
       9    H6      18.777944   17.045762   21.613275 H          1 MOL1         0.1009
      10    H7      17.783453   17.785256   22.887453 H          1 MOL1         0.1009
      11    C3      20.185742   19.290271   22.526141 C.3        1 MOL1        -0.1392
      12    H8      21.139082   19.703070   22.881670 H          1 MOL1         0.0998
      13    H9      20.303216   19.122278   21.447333 H          1 MOL1         0.0998
      14    C4      19.073815   20.339057   22.772777 C.3        1 MOL1        -0.1302
      15    H10     18.912304   20.461002   23.853107 H          1 MOL1         0.0998
      16    H11     18.122899   19.994204   22.345301 H          1 MOL1         0.0998
      17    C5      19.432409   21.706299   22.151697 C.3        1 MOL1        -0.2317
      18    H12     20.357675   22.107676   22.585306 H          1 MOL1         0.1009
      19    H13     18.632509   22.436047   22.332571 H          1 MOL1         0.1009
      20    H14     19.572105   21.622342   21.066019 H          1 MOL1         0.1009
@<TRIPOS>BOND
    1     1     2    1
    2     1     3    1
    3     1     4    1
    4     1     5    1
    5     5     6    1
    6     5     7    1
    7     7     8    1
    8     7     9    1
    9     7    10    1
   10     5    11    1
   11    11    12    1
   12    11    13    1
   13    11    14    1
   14    14    15    1
   15    14    16    1
   16    14    17    1
   17    17    18    1
   18    17    19    1
   19    17    20    1
@<TRIPOS>SUBSTRUCTURE
       1 MOL1            1 RESIDUE      1      MOL     
@<SCITEGIC>MOL_PROPERTY
VConf Rank
SciTegic.value.IntegerValue
212

@<SCITEGIC>MOL_PROPERTY
Conf_Id
SciTegic.value.IntegerValue
80

@<SCITEGIC>MOL_PROPERTY
Delta U+W
SciTegic.value.DoubleValue
0.460

@<SCITEGIC>MOL_PROPERTY
U+W
SciTegic.value.DoubleValue
-35.817

@<SCITEGIC>MOL_PROPERTY
Grad RMS
SciTegic.value.DoubleValue
0.000000

@<SCITEGIC>MOL_PROPERTY
U
SciTegic.value.DoubleValue
22.495

@<SCITEGIC>MOL_PROPERTY
W
SciTegic.value.DoubleValue
-58.311

@<SCITEGIC>MOL_PROPERTY
W(PB)
SciTegic.value.DoubleValue
-60.259

@<SCITEGIC>MOL_PROPERTY
W(SA)
SciTegic.value.DoubleValue
1.948

@<SCITEGIC>MOL_PROPERTY
Valence
SciTegic.value.DoubleValue
2.419

@<SCITEGIC>MOL_PROPERTY
Coulomb
SciTegic.value.DoubleValue
19.304

@<SCITEGIC>MOL_PROPERTY
VdW
SciTegic.value.DoubleValue
0.772

@<SCITEGIC>MOL_PROPERTY
VdW6
SciTegic.value.DoubleValue
-4.635

@<SCITEGIC>MOL_PROPERTY
VdW12
SciTegic.value.DoubleValue
5.407

@<SCITEGIC>MOL_PROPERTY
Bond
SciTegic.value.DoubleValue
0.149

@<SCITEGIC>MOL_PROPERTY
Angle
SciTegic.value.DoubleValue
1.142

@<SCITEGIC>MOL_PROPERTY
Pdih
SciTegic.value.DoubleValue
1.129

@<SCITEGIC>MOL_PROPERTY
Idih
SciTegic.value.DoubleValue
0.000

@<SCITEGIC>MOL_PROPERTY
Tether
SciTegic.value.DoubleValue
0.000

@<TRIPOS>MOLECULE
guest-s10_confgen4.mol2 : confsearch ligand conformer 213
          20          19           1
SMALL
USER_CHARGES
 
@<TRIPOS>ATOM
       1    N1      18.373899   18.920617   24.693030 N.4        1 MOL1        -0.5937
       2    H1      18.487377   19.797291   25.209148 H          1 MOL1         0.3684
       3    H2      18.907679   18.202023   25.188399 H          1 MOL1         0.3684
       4    H3      17.385735   18.660614   24.752568 H          1 MOL1         0.3684
       5    C1      18.822888   19.054822   23.263642 C.3        1 MOL1         0.1270
       6    H4      18.197036   19.834259   22.818012 H          1 MOL1         0.0960
       7    C2      18.568936   17.743541   22.500551 C.3        1 MOL1        -0.2382
       8    H5      17.537940   17.400854   22.651401 H          1 MOL1         0.1009
       9    H6      19.245280   16.948689   22.838521 H          1 MOL1         0.1009
      10    H7      18.706021   17.883940   21.422357 H          1 MOL1         0.1009
      11    C3      20.297550   19.520272   23.185772 C.3        1 MOL1        -0.1392
      12    H8      20.386085   20.435464   23.786005 H          1 MOL1         0.0998
      13    H9      20.953966   18.783276   23.667108 H          1 MOL1         0.0998
      14    C4      20.808856   19.841954   21.756531 C.3        1 MOL1        -0.1302
      15    H10     21.486175   20.705764   21.812990 H          1 MOL1         0.0998
      16    H11     19.974421   20.155689   21.113683 H          1 MOL1         0.0998
      17    C5      21.582910   18.673021   21.102719 C.3        1 MOL1        -0.2317
      18    H12     22.462883   18.402604   21.700748 H          1 MOL1         0.1009
      19    H13     21.935745   18.957683   20.102990 H          1 MOL1         0.1009
      20    H14     20.962454   17.776682   20.992474 H          1 MOL1         0.1009
@<TRIPOS>BOND
    1     1     2    1
    2     1     3    1
    3     1     4    1
    4     1     5    1
    5     5     6    1
    6     5     7    1
    7     7     8    1
    8     7     9    1
    9     7    10    1
   10     5    11    1
   11    11    12    1
   12    11    13    1
   13    11    14    1
   14    14    15    1
   15    14    16    1
   16    14    17    1
   17    17    18    1
   18    17    19    1
   19    17    20    1
@<TRIPOS>SUBSTRUCTURE
       1 MOL1            1 RESIDUE      1      MOL     
@<SCITEGIC>MOL_PROPERTY
VConf Rank
SciTegic.value.IntegerValue
213

@<SCITEGIC>MOL_PROPERTY
Conf_Id
SciTegic.value.IntegerValue
52

@<SCITEGIC>MOL_PROPERTY
Delta U+W
SciTegic.value.DoubleValue
2.995

@<SCITEGIC>MOL_PROPERTY
U+W
SciTegic.value.DoubleValue
-33.282

@<SCITEGIC>MOL_PROPERTY
Grad RMS
SciTegic.value.DoubleValue
0.000000

@<SCITEGIC>MOL_PROPERTY
U
SciTegic.value.DoubleValue
25.224

@<SCITEGIC>MOL_PROPERTY
W
SciTegic.value.DoubleValue
-58.506

@<SCITEGIC>MOL_PROPERTY
W(PB)
SciTegic.value.DoubleValue
-60.411

@<SCITEGIC>MOL_PROPERTY
W(SA)
SciTegic.value.DoubleValue
1.905

@<SCITEGIC>MOL_PROPERTY
Valence
SciTegic.value.DoubleValue
4.945

@<SCITEGIC>MOL_PROPERTY
Coulomb
SciTegic.value.DoubleValue
19.467

@<SCITEGIC>MOL_PROPERTY
VdW
SciTegic.value.DoubleValue
0.813

@<SCITEGIC>MOL_PROPERTY
VdW6
SciTegic.value.DoubleValue
-5.458

@<SCITEGIC>MOL_PROPERTY
VdW12
SciTegic.value.DoubleValue
6.270

@<SCITEGIC>MOL_PROPERTY
Bond
SciTegic.value.DoubleValue
0.200

@<SCITEGIC>MOL_PROPERTY
Angle
SciTegic.value.DoubleValue
1.675

@<SCITEGIC>MOL_PROPERTY
Pdih
SciTegic.value.DoubleValue
3.070

@<SCITEGIC>MOL_PROPERTY
Idih
SciTegic.value.DoubleValue
0.000

@<SCITEGIC>MOL_PROPERTY
Tether
SciTegic.value.DoubleValue
0.000

@<TRIPOS>MOLECULE
guest-s10_confgen4.mol2 : confsearch ligand conformer 214
          20          19           1
SMALL
USER_CHARGES
 
@<TRIPOS>ATOM
       1    N1      18.346702   19.510228   22.100137 N.4        1 MOL1        -0.5937
       2    H1      17.626815   19.095263   22.696747 H          1 MOL1         0.3684
       3    H2      17.908232   19.735745   21.203179 H          1 MOL1         0.3684
       4    H3      18.633453   20.390362   22.533869 H          1 MOL1         0.3684
       5    C1      19.516743   18.580909   21.925150 C.3        1 MOL1         0.1270
       6    H4      20.217297   19.070054   21.241266 H          1 MOL1         0.0960
       7    C2      19.047484   17.268314   21.275036 C.3        1 MOL1        -0.2382
       8    H5      18.351974   16.727665   21.929118 H          1 MOL1         0.1009
       9    H6      19.899376   16.610177   21.063418 H          1 MOL1         0.1009
      10    H7      18.538507   17.465935   20.323603 H          1 MOL1         0.1009
      11    C3      20.256233   18.290945   23.253048 C.3        1 MOL1        -0.1392
      12    H8      19.531118   18.039660   24.038311 H          1 MOL1         0.0998
      13    H9      20.876249   17.394342   23.119759 H          1 MOL1         0.0998
      14    C4      21.194755   19.427685   23.736377 C.3        1 MOL1        -0.1302
      15    H10     21.946820   19.640572   22.963646 H          1 MOL1         0.0998
      16    H11     21.753596   19.062009   24.609305 H          1 MOL1         0.0998
      17    C5      20.477036   20.738099   24.132481 C.3        1 MOL1        -0.2317
      18    H12     21.174733   21.411307   24.647552 H          1 MOL1         0.1009
      19    H13     19.638638   20.544215   24.814254 H          1 MOL1         0.1009
      20    H14     20.104631   21.276783   23.253520 H          1 MOL1         0.1009
@<TRIPOS>BOND
    1     1     2    1
    2     1     3    1
    3     1     4    1
    4     1     5    1
    5     5     6    1
    6     5     7    1
    7     7     8    1
    8     7     9    1
    9     7    10    1
   10     5    11    1
   11    11    12    1
   12    11    13    1
   13    11    14    1
   14    14    15    1
   15    14    16    1
   16    14    17    1
   17    17    18    1
   18    17    19    1
   19    17    20    1
@<TRIPOS>SUBSTRUCTURE
       1 MOL1            1 RESIDUE      1      MOL     
@<SCITEGIC>MOL_PROPERTY
VConf Rank
SciTegic.value.IntegerValue
214

@<SCITEGIC>MOL_PROPERTY
Conf_Id
SciTegic.value.IntegerValue
54

@<SCITEGIC>MOL_PROPERTY
Delta U+W
SciTegic.value.DoubleValue
2.752

@<SCITEGIC>MOL_PROPERTY
U+W
SciTegic.value.DoubleValue
-33.525

@<SCITEGIC>MOL_PROPERTY
Grad RMS
SciTegic.value.DoubleValue
0.000000

@<SCITEGIC>MOL_PROPERTY
U
SciTegic.value.DoubleValue
24.337

@<SCITEGIC>MOL_PROPERTY
W
SciTegic.value.DoubleValue
-57.862

@<SCITEGIC>MOL_PROPERTY
W(PB)
SciTegic.value.DoubleValue
-59.764

@<SCITEGIC>MOL_PROPERTY
W(SA)
SciTegic.value.DoubleValue
1.901

@<SCITEGIC>MOL_PROPERTY
Valence
SciTegic.value.DoubleValue
3.593

@<SCITEGIC>MOL_PROPERTY
Coulomb
SciTegic.value.DoubleValue
20.067

@<SCITEGIC>MOL_PROPERTY
VdW
SciTegic.value.DoubleValue
0.677

@<SCITEGIC>MOL_PROPERTY
VdW6
SciTegic.value.DoubleValue
-5.466

@<SCITEGIC>MOL_PROPERTY
VdW12
SciTegic.value.DoubleValue
6.144

@<SCITEGIC>MOL_PROPERTY
Bond
SciTegic.value.DoubleValue
0.191

@<SCITEGIC>MOL_PROPERTY
Angle
SciTegic.value.DoubleValue
1.557

@<SCITEGIC>MOL_PROPERTY
Pdih
SciTegic.value.DoubleValue
1.845

@<SCITEGIC>MOL_PROPERTY
Idih
SciTegic.value.DoubleValue
0.000

@<SCITEGIC>MOL_PROPERTY
Tether
SciTegic.value.DoubleValue
0.000

@<TRIPOS>MOLECULE
guest-s10_confgen4.mol2 : confsearch ligand conformer 215
          20          19           1
SMALL
USER_CHARGES
 
@<TRIPOS>ATOM
       1    N1      21.409843   19.676603   23.704043 N.4        1 MOL1        -0.5937
       2    H1      21.949383   19.607975   24.571131 H          1 MOL1         0.3684
       3    H2      21.514602   20.633524   23.356136 H          1 MOL1         0.3684
       4    H3      21.846745   19.052169   23.022393 H          1 MOL1         0.3684
       5    C1      19.964077   19.323741   23.925711 C.3        1 MOL1         0.1270
       6    H4      19.592023   20.028828   24.675678 H          1 MOL1         0.0960
       7    C2      19.824076   17.907326   24.511383 C.3        1 MOL1        -0.2382
       8    H5      18.768708   17.653235   24.669835 H          1 MOL1         0.1009
       9    H6      20.330461   17.842018   25.482153 H          1 MOL1         0.1009
      10    H7      20.265056   17.149937   23.852641 H          1 MOL1         0.1009
      11    C3      19.105327   19.514375   22.652424 C.3        1 MOL1        -0.1392
      12    H8      18.053115   19.328281   22.905318 H          1 MOL1         0.0998
      13    H9      19.160496   20.568755   22.351351 H          1 MOL1         0.0998
      14    C4      19.508564   18.620788   21.451072 C.3        1 MOL1        -0.1302
      15    H10     19.410009   17.559750   21.716588 H          1 MOL1         0.0998
      16    H11     20.562372   18.787940   21.190861 H          1 MOL1         0.0998
      17    C5      18.633160   18.908337   20.212399 C.3        1 MOL1        -0.2317
      18    H12     18.928575   18.267417   19.371555 H          1 MOL1         0.1009
      19    H13     18.734349   19.953024   19.890514 H          1 MOL1         0.1009
      20    H14     17.573134   18.717279   20.424684 H          1 MOL1         0.1009
@<TRIPOS>BOND
    1     1     2    1
    2     1     3    1
    3     1     4    1
    4     1     5    1
    5     5     6    1
    6     5     7    1
    7     7     8    1
    8     7     9    1
    9     7    10    1
   10     5    11    1
   11    11    12    1
   12    11    13    1
   13    11    14    1
   14    14    15    1
   15    14    16    1
   16    14    17    1
   17    17    18    1
   18    17    19    1
   19    17    20    1
@<TRIPOS>SUBSTRUCTURE
       1 MOL1            1 RESIDUE      1      MOL     
@<SCITEGIC>MOL_PROPERTY
VConf Rank
SciTegic.value.IntegerValue
215

@<SCITEGIC>MOL_PROPERTY
Conf_Id
SciTegic.value.IntegerValue
63

@<SCITEGIC>MOL_PROPERTY
Delta U+W
SciTegic.value.DoubleValue
0.420

@<SCITEGIC>MOL_PROPERTY
U+W
SciTegic.value.DoubleValue
-35.856

@<SCITEGIC>MOL_PROPERTY
Grad RMS
SciTegic.value.DoubleValue
0.000000

@<SCITEGIC>MOL_PROPERTY
U
SciTegic.value.DoubleValue
22.625

@<SCITEGIC>MOL_PROPERTY
W
SciTegic.value.DoubleValue
-58.481

@<SCITEGIC>MOL_PROPERTY
W(PB)
SciTegic.value.DoubleValue
-60.400

@<SCITEGIC>MOL_PROPERTY
W(SA)
SciTegic.value.DoubleValue
1.919

@<SCITEGIC>MOL_PROPERTY
Valence
SciTegic.value.DoubleValue
2.404

@<SCITEGIC>MOL_PROPERTY
Coulomb
SciTegic.value.DoubleValue
19.464

@<SCITEGIC>MOL_PROPERTY
VdW
SciTegic.value.DoubleValue
0.757

@<SCITEGIC>MOL_PROPERTY
VdW6
SciTegic.value.DoubleValue
-5.074

@<SCITEGIC>MOL_PROPERTY
VdW12
SciTegic.value.DoubleValue
5.830

@<SCITEGIC>MOL_PROPERTY
Bond
SciTegic.value.DoubleValue
0.172

@<SCITEGIC>MOL_PROPERTY
Angle
SciTegic.value.DoubleValue
1.207

@<SCITEGIC>MOL_PROPERTY
Pdih
SciTegic.value.DoubleValue
1.025

@<SCITEGIC>MOL_PROPERTY
Idih
SciTegic.value.DoubleValue
0.000

@<SCITEGIC>MOL_PROPERTY
Tether
SciTegic.value.DoubleValue
0.000

@<TRIPOS>MOLECULE
guest-s10_confgen4.mol2 : confsearch ligand conformer 216
          20          19           1
SMALL
USER_CHARGES
 
@<TRIPOS>ATOM
       1    N1      19.551593   20.692636   22.329547 N.4        1 MOL1        -0.5937
       2    H1      20.426007   20.537664   21.821354 H          1 MOL1         0.3684
       3    H2      19.765512   21.281348   23.138298 H          1 MOL1         0.3684
       4    H3      18.932312   21.228915   21.716002 H          1 MOL1         0.3684
       5    C1      18.923299   19.390473   22.746432 C.3        1 MOL1         0.1270
       6    H4      18.725916   18.828268   21.828775 H          1 MOL1         0.0960
       7    C2      17.580967   19.637153   23.454109 C.3        1 MOL1        -0.2382
       8    H5      16.899166   20.202947   22.807378 H          1 MOL1         0.1009
       9    H6      17.719552   20.203849   24.383304 H          1 MOL1         0.1009
      10    H7      17.091343   18.687460   23.703053 H          1 MOL1         0.1009
      11    C3      19.856226   18.544064   23.642100 C.3        1 MOL1        -0.1392
      12    H8      20.053257   19.085327   24.577004 H          1 MOL1         0.0998
      13    H9      19.336049   17.619819   23.926909 H          1 MOL1         0.0998
      14    C4      21.206089   18.170176   22.978793 C.3        1 MOL1        -0.1302
      15    H10     21.796411   17.576735   23.691008 H          1 MOL1         0.0998
      16    H11     21.795346   19.075529   22.779601 H          1 MOL1         0.0998
      17    C5      21.035873   17.360792   21.672925 C.3        1 MOL1        -0.2317
      18    H12     20.449116   16.449483   21.847311 H          1 MOL1         0.1009
      19    H13     22.014327   17.057970   21.277962 H          1 MOL1         0.1009
      20    H14     20.532998   17.948527   20.894733 H          1 MOL1         0.1009
@<TRIPOS>BOND
    1     1     2    1
    2     1     3    1
    3     1     4    1
    4     1     5    1
    5     5     6    1
    6     5     7    1
    7     7     8    1
    8     7     9    1
    9     7    10    1
   10     5    11    1
   11    11    12    1
   12    11    13    1
   13    11    14    1
   14    14    15    1
   15    14    16    1
   16    14    17    1
   17    17    18    1
   18    17    19    1
   19    17    20    1
@<TRIPOS>SUBSTRUCTURE
       1 MOL1            1 RESIDUE      1      MOL     
@<SCITEGIC>MOL_PROPERTY
VConf Rank
SciTegic.value.IntegerValue
216

@<SCITEGIC>MOL_PROPERTY
Conf_Id
SciTegic.value.IntegerValue
50

@<SCITEGIC>MOL_PROPERTY
Delta U+W
SciTegic.value.DoubleValue
0.466

@<SCITEGIC>MOL_PROPERTY
U+W
SciTegic.value.DoubleValue
-35.811

@<SCITEGIC>MOL_PROPERTY
Grad RMS
SciTegic.value.DoubleValue
0.000000

@<SCITEGIC>MOL_PROPERTY
U
SciTegic.value.DoubleValue
22.369

@<SCITEGIC>MOL_PROPERTY
W
SciTegic.value.DoubleValue
-58.180

@<SCITEGIC>MOL_PROPERTY
W(PB)
SciTegic.value.DoubleValue
-60.103

@<SCITEGIC>MOL_PROPERTY
W(SA)
SciTegic.value.DoubleValue
1.923

@<SCITEGIC>MOL_PROPERTY
Valence
SciTegic.value.DoubleValue
2.168

@<SCITEGIC>MOL_PROPERTY
Coulomb
SciTegic.value.DoubleValue
19.636

@<SCITEGIC>MOL_PROPERTY
VdW
SciTegic.value.DoubleValue
0.566

@<SCITEGIC>MOL_PROPERTY
VdW6
SciTegic.value.DoubleValue
-5.263

@<SCITEGIC>MOL_PROPERTY
VdW12
SciTegic.value.DoubleValue
5.829

@<SCITEGIC>MOL_PROPERTY
Bond
SciTegic.value.DoubleValue
0.162

@<SCITEGIC>MOL_PROPERTY
Angle
SciTegic.value.DoubleValue
1.066

@<SCITEGIC>MOL_PROPERTY
Pdih
SciTegic.value.DoubleValue
0.939

@<SCITEGIC>MOL_PROPERTY
Idih
SciTegic.value.DoubleValue
0.000

@<SCITEGIC>MOL_PROPERTY
Tether
SciTegic.value.DoubleValue
0.000

@<TRIPOS>MOLECULE
guest-s10_confgen4.mol2 : confsearch ligand conformer 217
          20          19           1
SMALL
USER_CHARGES
 
@<TRIPOS>ATOM
       1    N1      19.615596   20.259517   20.900379 N.4        1 MOL1        -0.5937
       2    H1      18.773190   19.965160   20.398679 H          1 MOL1         0.3684
       3    H2      20.421020   20.012650   20.319672 H          1 MOL1         0.3684
       4    H3      19.588051   21.280756   20.964009 H          1 MOL1         0.3684
       5    C1      19.700712   19.625002   22.262262 C.3        1 MOL1         0.1270
       6    H4      18.803119   19.941584   22.802507 H          1 MOL1         0.0960
       7    C2      20.939240   20.150526   23.011820 C.3        1 MOL1        -0.2382
       8    H5      21.862615   19.895073   22.477229 H          1 MOL1         0.1009
       9    H6      21.007878   19.730224   24.020990 H          1 MOL1         0.1009
      10    H7      20.896348   21.242065   23.110973 H          1 MOL1         0.1009
      11    C3      19.693811   18.078527   22.181035 C.3        1 MOL1        -0.1392
      12    H8      19.325785   17.772172   21.192918 H          1 MOL1         0.0998
      13    H9      20.717221   17.686186   22.249691 H          1 MOL1         0.0998
      14    C4      18.790200   17.398536   23.240696 C.3        1 MOL1        -0.1302
      15    H10     18.787629   16.315067   23.056253 H          1 MOL1         0.0998
      16    H11     17.751775   17.733048   23.107072 H          1 MOL1         0.0998
      17    C5      19.226524   17.652836   24.700555 C.3        1 MOL1        -0.2317
      18    H12     20.275192   17.368045   24.856175 H          1 MOL1         0.1009
      19    H13     18.613099   17.061291   25.392527 H          1 MOL1         0.1009
      20    H14     19.106675   18.707780   24.976887 H          1 MOL1         0.1009
@<TRIPOS>BOND
    1     1     2    1
    2     1     3    1
    3     1     4    1
    4     1     5    1
    5     5     6    1
    6     5     7    1
    7     7     8    1
    8     7     9    1
    9     7    10    1
   10     5    11    1
   11    11    12    1
   12    11    13    1
   13    11    14    1
   14    14    15    1
   15    14    16    1
   16    14    17    1
   17    17    18    1
   18    17    19    1
   19    17    20    1
@<TRIPOS>SUBSTRUCTURE
       1 MOL1            1 RESIDUE      1      MOL     
@<SCITEGIC>MOL_PROPERTY
VConf Rank
SciTegic.value.IntegerValue
217

@<SCITEGIC>MOL_PROPERTY
Conf_Id
SciTegic.value.IntegerValue
3

@<SCITEGIC>MOL_PROPERTY
Delta U+W
SciTegic.value.DoubleValue
3.093

@<SCITEGIC>MOL_PROPERTY
U+W
SciTegic.value.DoubleValue
-33.184

@<SCITEGIC>MOL_PROPERTY
Grad RMS
SciTegic.value.DoubleValue
0.000000

@<SCITEGIC>MOL_PROPERTY
U
SciTegic.value.DoubleValue
25.256

@<SCITEGIC>MOL_PROPERTY
W
SciTegic.value.DoubleValue
-58.439

@<SCITEGIC>MOL_PROPERTY
W(PB)
SciTegic.value.DoubleValue
-60.337

@<SCITEGIC>MOL_PROPERTY
W(SA)
SciTegic.value.DoubleValue
1.898

@<SCITEGIC>MOL_PROPERTY
Valence
SciTegic.value.DoubleValue
4.963

@<SCITEGIC>MOL_PROPERTY
Coulomb
SciTegic.value.DoubleValue
19.511

@<SCITEGIC>MOL_PROPERTY
VdW
SciTegic.value.DoubleValue
0.782

@<SCITEGIC>MOL_PROPERTY
VdW6
SciTegic.value.DoubleValue
-5.429

@<SCITEGIC>MOL_PROPERTY
VdW12
SciTegic.value.DoubleValue
6.211

@<SCITEGIC>MOL_PROPERTY
Bond
SciTegic.value.DoubleValue
0.174

@<SCITEGIC>MOL_PROPERTY
Angle
SciTegic.value.DoubleValue
1.377

@<SCITEGIC>MOL_PROPERTY
Pdih
SciTegic.value.DoubleValue
3.412

@<SCITEGIC>MOL_PROPERTY
Idih
SciTegic.value.DoubleValue
0.000

@<SCITEGIC>MOL_PROPERTY
Tether
SciTegic.value.DoubleValue
0.000

@<TRIPOS>MOLECULE
guest-s10_confgen4.mol2 : confsearch ligand conformer 218
          20          19           1
SMALL
USER_CHARGES
 
@<TRIPOS>ATOM
       1    N1      17.542431   18.943513   23.568662 N.4        1 MOL1        -0.5937
       2    H1      16.763214   19.394556   23.081819 H          1 MOL1         0.3684
       3    H2      17.634427   19.400200   24.480146 H          1 MOL1         0.3684
       4    H3      17.272558   17.971472   23.738926 H          1 MOL1         0.3684
       5    C1      18.815173   19.032226   22.772018 C.3        1 MOL1         0.1270
       6    H4      19.019230   20.098765   22.638036 H          1 MOL1         0.0960
       7    C2      18.623205   18.395793   21.383421 C.3        1 MOL1        -0.2382
       8    H5      19.492776   18.574460   20.740413 H          1 MOL1         0.1009
       9    H6      17.751276   18.827788   20.877204 H          1 MOL1         0.1009
      10    H7      18.469548   17.312341   21.460943 H          1 MOL1         0.1009
      11    C3      20.001828   18.403161   23.540495 C.3        1 MOL1        -0.1392
      12    H8      20.038154   18.838225   24.547930 H          1 MOL1         0.0998
      13    H9      19.816844   17.329707   23.679101 H          1 MOL1         0.0998
      14    C4      21.388971   18.596146   22.875895 C.3        1 MOL1        -0.1302
      15    H10     21.432318   18.057480   21.919740 H          1 MOL1         0.0998
      16    H11     22.153124   18.133072   23.515794 H          1 MOL1         0.0998
      17    C5      21.753836   20.081917   22.655648 C.3        1 MOL1        -0.2317
      18    H12     21.714539   20.642288   23.598833 H          1 MOL1         0.1009
      19    H13     21.073262   20.562765   21.941737 H          1 MOL1         0.1009
      20    H14     22.771593   20.172588   22.254441 H          1 MOL1         0.1009
@<TRIPOS>BOND
    1     1     2    1
    2     1     3    1
    3     1     4    1
    4     1     5    1
    5     5     6    1
    6     5     7    1
    7     7     8    1
    8     7     9    1
    9     7    10    1
   10     5    11    1
   11    11    12    1
   12    11    13    1
   13    11    14    1
   14    14    15    1
   15    14    16    1
   16    14    17    1
   17    17    18    1
   18    17    19    1
   19    17    20    1
@<TRIPOS>SUBSTRUCTURE
       1 MOL1            1 RESIDUE      1      MOL     
@<SCITEGIC>MOL_PROPERTY
VConf Rank
SciTegic.value.IntegerValue
218

@<SCITEGIC>MOL_PROPERTY
Conf_Id
SciTegic.value.IntegerValue
64

@<SCITEGIC>MOL_PROPERTY
Delta U+W
SciTegic.value.DoubleValue
0.544

@<SCITEGIC>MOL_PROPERTY
U+W
SciTegic.value.DoubleValue
-35.732

@<SCITEGIC>MOL_PROPERTY
Grad RMS
SciTegic.value.DoubleValue
0.000000

@<SCITEGIC>MOL_PROPERTY
U
SciTegic.value.DoubleValue
22.800

@<SCITEGIC>MOL_PROPERTY
W
SciTegic.value.DoubleValue
-58.532

@<SCITEGIC>MOL_PROPERTY
W(PB)
SciTegic.value.DoubleValue
-60.437

@<SCITEGIC>MOL_PROPERTY
W(SA)
SciTegic.value.DoubleValue
1.905

@<SCITEGIC>MOL_PROPERTY
Valence
SciTegic.value.DoubleValue
2.662

@<SCITEGIC>MOL_PROPERTY
Coulomb
SciTegic.value.DoubleValue
19.485

@<SCITEGIC>MOL_PROPERTY
VdW
SciTegic.value.DoubleValue
0.653

@<SCITEGIC>MOL_PROPERTY
VdW6
SciTegic.value.DoubleValue
-5.460

@<SCITEGIC>MOL_PROPERTY
VdW12
SciTegic.value.DoubleValue
6.113

@<SCITEGIC>MOL_PROPERTY
Bond
SciTegic.value.DoubleValue
0.174

@<SCITEGIC>MOL_PROPERTY
Angle
SciTegic.value.DoubleValue
1.378

@<SCITEGIC>MOL_PROPERTY
Pdih
SciTegic.value.DoubleValue
1.109

@<SCITEGIC>MOL_PROPERTY
Idih
SciTegic.value.DoubleValue
0.000

@<SCITEGIC>MOL_PROPERTY
Tether
SciTegic.value.DoubleValue
0.000

@<TRIPOS>MOLECULE
guest-s10_confgen4.mol2 : confsearch ligand conformer 219
          20          19           1
SMALL
USER_CHARGES
 
@<TRIPOS>ATOM
       1    N1      19.822075   19.471015   24.737583 N.4        1 MOL1        -0.5937
       2    H1      19.564569   20.351745   24.286719 H          1 MOL1         0.3684
       3    H2      20.571116   19.676476   25.404168 H          1 MOL1         0.3684
       4    H3      19.012791   19.154662   25.278546 H          1 MOL1         0.3684
       5    C1      20.250861   18.440145   23.728484 C.3        1 MOL1         0.1270
       6    H4      20.513872   17.548014   24.305452 H          1 MOL1         0.0960
       7    C2      21.516768   18.895192   22.984080 C.3        1 MOL1        -0.2382
       8    H5      21.366036   19.861727   22.489308 H          1 MOL1         0.1009
       9    H6      21.812162   18.157451   22.227892 H          1 MOL1         0.1009
      10    H7      22.353421   19.006607   23.684486 H          1 MOL1         0.1009
      11    C3      19.099994   18.036552   22.772683 C.3        1 MOL1        -0.1392
      12    H8      19.408564   17.166692   22.178019 H          1 MOL1         0.0998
      13    H9      18.267776   17.680030   23.393801 H          1 MOL1         0.0998
      14    C4      18.563245   19.152807   21.834014 C.3        1 MOL1        -0.1302
      15    H10     18.655781   20.139760   22.305969 H          1 MOL1         0.0998
      16    H11     17.486102   18.992049   21.686022 H          1 MOL1         0.0998
      17    C5      19.234305   19.164106   20.440351 C.3        1 MOL1        -0.2317
      18    H12     20.309564   19.364536   20.500547 H          1 MOL1         0.1009
      19    H13     18.788401   19.941655   19.806669 H          1 MOL1         0.1009
      20    H14     19.097215   18.201722   19.930384 H          1 MOL1         0.1009
@<TRIPOS>BOND
    1     1     2    1
    2     1     3    1
    3     1     4    1
    4     1     5    1
    5     5     6    1
    6     5     7    1
    7     7     8    1
    8     7     9    1
    9     7    10    1
   10     5    11    1
   11    11    12    1
   12    11    13    1
   13    11    14    1
   14    14    15    1
   15    14    16    1
   16    14    17    1
   17    17    18    1
   18    17    19    1
   19    17    20    1
@<TRIPOS>SUBSTRUCTURE
       1 MOL1            1 RESIDUE      1      MOL     
@<SCITEGIC>MOL_PROPERTY
VConf Rank
SciTegic.value.IntegerValue
219

@<SCITEGIC>MOL_PROPERTY
Conf_Id
SciTegic.value.IntegerValue
35

@<SCITEGIC>MOL_PROPERTY
Delta U+W
SciTegic.value.DoubleValue
3.004

@<SCITEGIC>MOL_PROPERTY
U+W
SciTegic.value.DoubleValue
-33.272

@<SCITEGIC>MOL_PROPERTY
Grad RMS
SciTegic.value.DoubleValue
0.000000

@<SCITEGIC>MOL_PROPERTY
U
SciTegic.value.DoubleValue
25.367

@<SCITEGIC>MOL_PROPERTY
W
SciTegic.value.DoubleValue
-58.639

@<SCITEGIC>MOL_PROPERTY
W(PB)
SciTegic.value.DoubleValue
-60.512

@<SCITEGIC>MOL_PROPERTY
W(SA)
SciTegic.value.DoubleValue
1.873

@<SCITEGIC>MOL_PROPERTY
Valence
SciTegic.value.DoubleValue
4.943

@<SCITEGIC>MOL_PROPERTY
Coulomb
SciTegic.value.DoubleValue
19.661

@<SCITEGIC>MOL_PROPERTY
VdW
SciTegic.value.DoubleValue
0.764

@<SCITEGIC>MOL_PROPERTY
VdW6
SciTegic.value.DoubleValue
-5.871

@<SCITEGIC>MOL_PROPERTY
VdW12
SciTegic.value.DoubleValue
6.636

@<SCITEGIC>MOL_PROPERTY
Bond
SciTegic.value.DoubleValue
0.230

@<SCITEGIC>MOL_PROPERTY
Angle
SciTegic.value.DoubleValue
1.857

@<SCITEGIC>MOL_PROPERTY
Pdih
SciTegic.value.DoubleValue
2.855

@<SCITEGIC>MOL_PROPERTY
Idih
SciTegic.value.DoubleValue
0.000

@<SCITEGIC>MOL_PROPERTY
Tether
SciTegic.value.DoubleValue
0.000

@<TRIPOS>MOLECULE
guest-s10_confgen4.mol2 : confsearch ligand conformer 220
          20          19           1
SMALL
USER_CHARGES
 
@<TRIPOS>ATOM
       1    N1      18.498455   20.174680   22.836629 N.4        1 MOL1        -0.5937
       2    H1      17.495626   20.196483   23.040247 H          1 MOL1         0.3684
       3    H2      18.737184   21.062221   22.386227 H          1 MOL1         0.3684
       4    H3      18.995283   20.141035   23.728832 H          1 MOL1         0.3684
       5    C1      18.859877   19.001360   21.967631 C.3        1 MOL1         0.1270
       6    H4      18.300263   19.146546   21.038287 H          1 MOL1         0.0960
       7    C2      18.382900   17.675774   22.587168 C.3        1 MOL1        -0.2382
       8    H5      18.832379   17.504437   23.572515 H          1 MOL1         0.1009
       9    H6      18.640286   16.828843   21.939186 H          1 MOL1         0.1009
      10    H7      17.293210   17.679991   22.711770 H          1 MOL1         0.1009
      11    C3      20.362004   18.968438   21.585741 C.3        1 MOL1        -0.1392
      12    H8      20.471558   18.294412   20.725957 H          1 MOL1         0.0998
      13    H9      20.656888   19.959666   21.217328 H          1 MOL1         0.0998
      14    C4      21.366011   18.508943   22.680012 C.3        1 MOL1        -0.1302
      15    H10     22.371098   18.499336   22.235566 H          1 MOL1         0.0998
      16    H11     21.163007   17.469337   22.970942 H          1 MOL1         0.0998
      17    C5      21.401710   19.403725   23.939780 C.3        1 MOL1        -0.2317
      18    H12     21.517861   20.462333   23.673324 H          1 MOL1         0.1009
      19    H13     22.250593   19.126688   24.578387 H          1 MOL1         0.1009
      20    H14     20.494414   19.287293   24.543539 H          1 MOL1         0.1009
@<TRIPOS>BOND
    1     1     2    1
    2     1     3    1
    3     1     4    1
    4     1     5    1
    5     5     6    1
    6     5     7    1
    7     7     8    1
    8     7     9    1
    9     7    10    1
   10     5    11    1
   11    11    12    1
   12    11    13    1
   13    11    14    1
   14    14    15    1
   15    14    16    1
   16    14    17    1
   17    17    18    1
   18    17    19    1
   19    17    20    1
@<TRIPOS>SUBSTRUCTURE
       1 MOL1            1 RESIDUE      1      MOL     
@<SCITEGIC>MOL_PROPERTY
VConf Rank
SciTegic.value.IntegerValue
220

@<SCITEGIC>MOL_PROPERTY
Conf_Id
SciTegic.value.IntegerValue
55

@<SCITEGIC>MOL_PROPERTY
Delta U+W
SciTegic.value.DoubleValue
2.767

@<SCITEGIC>MOL_PROPERTY
U+W
SciTegic.value.DoubleValue
-33.509

@<SCITEGIC>MOL_PROPERTY
Grad RMS
SciTegic.value.DoubleValue
0.000000

@<SCITEGIC>MOL_PROPERTY
U
SciTegic.value.DoubleValue
24.552

@<SCITEGIC>MOL_PROPERTY
W
SciTegic.value.DoubleValue
-58.061

@<SCITEGIC>MOL_PROPERTY
W(PB)
SciTegic.value.DoubleValue
-59.930

@<SCITEGIC>MOL_PROPERTY
W(SA)
SciTegic.value.DoubleValue
1.869

@<SCITEGIC>MOL_PROPERTY
Valence
SciTegic.value.DoubleValue
3.726

@<SCITEGIC>MOL_PROPERTY
Coulomb
SciTegic.value.DoubleValue
20.219

@<SCITEGIC>MOL_PROPERTY
VdW
SciTegic.value.DoubleValue
0.606

@<SCITEGIC>MOL_PROPERTY
VdW6
SciTegic.value.DoubleValue
-6.395

@<SCITEGIC>MOL_PROPERTY
VdW12
SciTegic.value.DoubleValue
7.001

@<SCITEGIC>MOL_PROPERTY
Bond
SciTegic.value.DoubleValue
0.241

@<SCITEGIC>MOL_PROPERTY
Angle
SciTegic.value.DoubleValue
2.098

@<SCITEGIC>MOL_PROPERTY
Pdih
SciTegic.value.DoubleValue
1.387

@<SCITEGIC>MOL_PROPERTY
Idih
SciTegic.value.DoubleValue
0.000

@<SCITEGIC>MOL_PROPERTY
Tether
SciTegic.value.DoubleValue
0.000

@<TRIPOS>MOLECULE
guest-s10_confgen4.mol2 : confsearch ligand conformer 221
          20          19           1
SMALL
USER_CHARGES
 
@<TRIPOS>ATOM
       1    N1      20.250404   20.006224   24.308183 N.4        1 MOL1        -0.5937
       2    H1      21.265043   19.938167   24.196733 H          1 MOL1         0.3684
       3    H2      20.063137   20.177454   25.299782 H          1 MOL1         0.3684
       4    H3      19.939163   20.833527   23.793130 H          1 MOL1         0.3684
       5    C1      19.557682   18.760985   23.823850 C.3        1 MOL1         0.1270
       6    H4      18.485109   18.918637   23.974253 H          1 MOL1         0.0960
       7    C2      19.986968   17.544240   24.660040 C.3        1 MOL1        -0.2382
       8    H5      19.782280   17.712601   25.724475 H          1 MOL1         0.1009
       9    H6      21.059304   17.342014   24.546053 H          1 MOL1         0.1009
      10    H7      19.435760   16.646404   24.353938 H          1 MOL1         0.1009
      11    C3      19.800194   18.492860   22.322036 C.3        1 MOL1        -0.1392
      12    H8      20.874214   18.354306   22.139827 H          1 MOL1         0.0998
      13    H9      19.312010   17.548175   22.047607 H          1 MOL1         0.0998
      14    C4      19.255876   19.618764   21.410127 C.3        1 MOL1        -0.1302
      15    H10     19.769943   20.564926   21.626783 H          1 MOL1         0.0998
      16    H11     18.188948   19.781060   21.618851 H          1 MOL1         0.0998
      17    C5      19.438167   19.279504   19.915144 C.3        1 MOL1        -0.2317
      18    H12     20.498844   19.141087   19.668040 H          1 MOL1         0.1009
      19    H13     19.048400   20.088448   19.283657 H          1 MOL1         0.1009
      20    H14     18.902559   18.358543   19.650214 H          1 MOL1         0.1009
@<TRIPOS>BOND
    1     1     2    1
    2     1     3    1
    3     1     4    1
    4     1     5    1
    5     5     6    1
    6     5     7    1
    7     7     8    1
    8     7     9    1
    9     7    10    1
   10     5    11    1
   11    11    12    1
   12    11    13    1
   13    11    14    1
   14    14    15    1
   15    14    16    1
   16    14    17    1
   17    17    18    1
   18    17    19    1
   19    17    20    1
@<TRIPOS>SUBSTRUCTURE
       1 MOL1            1 RESIDUE      1      MOL     
@<SCITEGIC>MOL_PROPERTY
VConf Rank
SciTegic.value.IntegerValue
221

@<SCITEGIC>MOL_PROPERTY
Conf_Id
SciTegic.value.IntegerValue
74

@<SCITEGIC>MOL_PROPERTY
Delta U+W
SciTegic.value.DoubleValue
0.000

@<SCITEGIC>MOL_PROPERTY
U+W
SciTegic.value.DoubleValue
-36.276

@<SCITEGIC>MOL_PROPERTY
Grad RMS
SciTegic.value.DoubleValue
0.000000

@<SCITEGIC>MOL_PROPERTY
U
SciTegic.value.DoubleValue
22.080

@<SCITEGIC>MOL_PROPERTY
W
SciTegic.value.DoubleValue
-58.356

@<SCITEGIC>MOL_PROPERTY
W(PB)
SciTegic.value.DoubleValue
-60.289

@<SCITEGIC>MOL_PROPERTY
W(SA)
SciTegic.value.DoubleValue
1.932

@<SCITEGIC>MOL_PROPERTY
Valence
SciTegic.value.DoubleValue
1.885

@<SCITEGIC>MOL_PROPERTY
Coulomb
SciTegic.value.DoubleValue
19.559

@<SCITEGIC>MOL_PROPERTY
VdW
SciTegic.value.DoubleValue
0.637

@<SCITEGIC>MOL_PROPERTY
VdW6
SciTegic.value.DoubleValue
-4.482

@<SCITEGIC>MOL_PROPERTY
VdW12
SciTegic.value.DoubleValue
5.119

@<SCITEGIC>MOL_PROPERTY
Bond
SciTegic.value.DoubleValue
0.136

@<SCITEGIC>MOL_PROPERTY
Angle
SciTegic.value.DoubleValue
0.867

@<SCITEGIC>MOL_PROPERTY
Pdih
SciTegic.value.DoubleValue
0.882

@<SCITEGIC>MOL_PROPERTY
Idih
SciTegic.value.DoubleValue
0.000

@<SCITEGIC>MOL_PROPERTY
Tether
SciTegic.value.DoubleValue
0.000

@<TRIPOS>MOLECULE
guest-s10_confgen4.mol2 : confsearch ligand conformer 222
          20          19           1
SMALL
USER_CHARGES
 
@<TRIPOS>ATOM
       1    N1      18.136333   20.358211   23.777682 N.4        1 MOL1        -0.5937
       2    H1      17.496412   20.561760   23.005072 H          1 MOL1         0.3684
       3    H2      18.734503   21.178519   23.904223 H          1 MOL1         0.3684
       4    H3      17.567921   20.262918   24.623559 H          1 MOL1         0.3684
       5    C1      18.946676   19.118303   23.516072 C.3        1 MOL1         0.1270
       6    H4      18.229014   18.300460   23.397919 H          1 MOL1         0.0960
       7    C2      19.847073   18.804047   24.724926 C.3        1 MOL1        -0.2382
       8    H5      19.256119   18.770472   25.648435 H          1 MOL1         0.1009
       9    H6      20.626895   19.565816   24.848066 H          1 MOL1         0.1009
      10    H7      20.333754   17.827941   24.617299 H          1 MOL1         0.1009
      11    C3      19.755410   19.245139   22.204070 C.3        1 MOL1        -0.1392
      12    H8      19.075496   19.574837   21.407402 H          1 MOL1         0.0998
      13    H9      20.513022   20.032770   22.311356 H          1 MOL1         0.0998
      14    C4      20.433141   17.926766   21.757152 C.3        1 MOL1        -0.1302
      15    H10     19.685215   17.122703   21.710678 H          1 MOL1         0.0998
      16    H11     21.187941   17.617805   22.492490 H          1 MOL1         0.0998
      17    C5      21.112023   18.074125   20.378353 C.3        1 MOL1        -0.2317
      18    H12     20.381277   18.341015   19.603745 H          1 MOL1         0.1009
      19    H13     21.590091   17.132367   20.078968 H          1 MOL1         0.1009
      20    H14     21.886145   18.852265   20.400551 H          1 MOL1         0.1009
@<TRIPOS>BOND
    1     1     2    1
    2     1     3    1
    3     1     4    1
    4     1     5    1
    5     5     6    1
    6     5     7    1
    7     7     8    1
    8     7     9    1
    9     7    10    1
   10     5    11    1
   11    11    12    1
   12    11    13    1
   13    11    14    1
   14    14    15    1
   15    14    16    1
   16    14    17    1
   17    17    18    1
   18    17    19    1
   19    17    20    1
@<TRIPOS>SUBSTRUCTURE
       1 MOL1            1 RESIDUE      1      MOL     
@<SCITEGIC>MOL_PROPERTY
VConf Rank
SciTegic.value.IntegerValue
222

@<SCITEGIC>MOL_PROPERTY
Conf_Id
SciTegic.value.IntegerValue
80

@<SCITEGIC>MOL_PROPERTY
Delta U+W
SciTegic.value.DoubleValue
0.460

@<SCITEGIC>MOL_PROPERTY
U+W
SciTegic.value.DoubleValue
-35.817

@<SCITEGIC>MOL_PROPERTY
Grad RMS
SciTegic.value.DoubleValue
0.000000

@<SCITEGIC>MOL_PROPERTY
U
SciTegic.value.DoubleValue
22.495

@<SCITEGIC>MOL_PROPERTY
W
SciTegic.value.DoubleValue
-58.311

@<SCITEGIC>MOL_PROPERTY
W(PB)
SciTegic.value.DoubleValue
-60.259

@<SCITEGIC>MOL_PROPERTY
W(SA)
SciTegic.value.DoubleValue
1.948

@<SCITEGIC>MOL_PROPERTY
Valence
SciTegic.value.DoubleValue
2.419

@<SCITEGIC>MOL_PROPERTY
Coulomb
SciTegic.value.DoubleValue
19.304

@<SCITEGIC>MOL_PROPERTY
VdW
SciTegic.value.DoubleValue
0.772

@<SCITEGIC>MOL_PROPERTY
VdW6
SciTegic.value.DoubleValue
-4.635

@<SCITEGIC>MOL_PROPERTY
VdW12
SciTegic.value.DoubleValue
5.407

@<SCITEGIC>MOL_PROPERTY
Bond
SciTegic.value.DoubleValue
0.149

@<SCITEGIC>MOL_PROPERTY
Angle
SciTegic.value.DoubleValue
1.142

@<SCITEGIC>MOL_PROPERTY
Pdih
SciTegic.value.DoubleValue
1.129

@<SCITEGIC>MOL_PROPERTY
Idih
SciTegic.value.DoubleValue
0.000

@<SCITEGIC>MOL_PROPERTY
Tether
SciTegic.value.DoubleValue
0.000

@<TRIPOS>MOLECULE
guest-s10_confgen4.mol2 : confsearch ligand conformer 223
          20          19           1
SMALL
USER_CHARGES
 
@<TRIPOS>ATOM
       1    N1      20.349458   20.533678   24.369714 N.4        1 MOL1        -0.5937
       2    H1      20.690461   20.094069   25.228942 H          1 MOL1         0.3684
       3    H2      19.387826   20.837597   24.541722 H          1 MOL1         0.3684
       4    H3      20.911683   21.375246   24.217132 H          1 MOL1         0.3684
       5    C1      20.430738   19.596735   23.195712 C.3        1 MOL1         0.1270
       6    H4      21.487442   19.333540   23.086603 H          1 MOL1         0.0960
       7    C2      19.981513   20.313200   21.910748 C.3        1 MOL1        -0.2382
       8    H5      20.502957   21.271717   21.799016 H          1 MOL1         0.1009
       9    H6      18.902581   20.511297   21.921643 H          1 MOL1         0.1009
      10    H7      20.217778   19.713985   21.024110 H          1 MOL1         0.1009
      11    C3      19.637389   18.295181   23.467535 C.3        1 MOL1        -0.1392
      12    H8      20.001413   17.879811   24.416559 H          1 MOL1         0.0998
      13    H9      18.575972   18.524742   23.630092 H          1 MOL1         0.0998
      14    C4      19.788855   17.196390   22.382472 C.3        1 MOL1        -0.1302
      15    H10     19.807825   16.215322   22.877713 H          1 MOL1         0.0998
      16    H11     20.757247   17.294263   21.871978 H          1 MOL1         0.0998
      17    C5      18.635038   17.186407   21.352113 C.3        1 MOL1        -0.2317
      18    H12     17.670057   17.013223   21.846013 H          1 MOL1         0.1009
      19    H13     18.781734   16.382538   20.619134 H          1 MOL1         0.1009
      20    H14     18.565870   18.130119   20.799696 H          1 MOL1         0.1009
@<TRIPOS>BOND
    1     1     2    1
    2     1     3    1
    3     1     4    1
    4     1     5    1
    5     5     6    1
    6     5     7    1
    7     7     8    1
    8     7     9    1
    9     7    10    1
   10     5    11    1
   11    11    12    1
   12    11    13    1
   13    11    14    1
   14    14    15    1
   15    14    16    1
   16    14    17    1
   17    17    18    1
   18    17    19    1
   19    17    20    1
@<TRIPOS>SUBSTRUCTURE
       1 MOL1            1 RESIDUE      1      MOL     
@<SCITEGIC>MOL_PROPERTY
VConf Rank
SciTegic.value.IntegerValue
223

@<SCITEGIC>MOL_PROPERTY
Conf_Id
SciTegic.value.IntegerValue
52

@<SCITEGIC>MOL_PROPERTY
Delta U+W
SciTegic.value.DoubleValue
2.995

@<SCITEGIC>MOL_PROPERTY
U+W
SciTegic.value.DoubleValue
-33.282

@<SCITEGIC>MOL_PROPERTY
Grad RMS
SciTegic.value.DoubleValue
0.000000

@<SCITEGIC>MOL_PROPERTY
U
SciTegic.value.DoubleValue
25.224

@<SCITEGIC>MOL_PROPERTY
W
SciTegic.value.DoubleValue
-58.506

@<SCITEGIC>MOL_PROPERTY
W(PB)
SciTegic.value.DoubleValue
-60.411

@<SCITEGIC>MOL_PROPERTY
W(SA)
SciTegic.value.DoubleValue
1.905

@<SCITEGIC>MOL_PROPERTY
Valence
SciTegic.value.DoubleValue
4.945

@<SCITEGIC>MOL_PROPERTY
Coulomb
SciTegic.value.DoubleValue
19.467

@<SCITEGIC>MOL_PROPERTY
VdW
SciTegic.value.DoubleValue
0.813

@<SCITEGIC>MOL_PROPERTY
VdW6
SciTegic.value.DoubleValue
-5.458

@<SCITEGIC>MOL_PROPERTY
VdW12
SciTegic.value.DoubleValue
6.270

@<SCITEGIC>MOL_PROPERTY
Bond
SciTegic.value.DoubleValue
0.200

@<SCITEGIC>MOL_PROPERTY
Angle
SciTegic.value.DoubleValue
1.675

@<SCITEGIC>MOL_PROPERTY
Pdih
SciTegic.value.DoubleValue
3.070

@<SCITEGIC>MOL_PROPERTY
Idih
SciTegic.value.DoubleValue
0.000

@<SCITEGIC>MOL_PROPERTY
Tether
SciTegic.value.DoubleValue
0.000

@<TRIPOS>MOLECULE
guest-s10_confgen4.mol2 : confsearch ligand conformer 224
          20          19           1
SMALL
USER_CHARGES
 
@<TRIPOS>ATOM
       1    N1      20.770664   19.210627   23.991232 N.4        1 MOL1        -0.5937
       2    H1      20.188455   19.581300   24.746223 H          1 MOL1         0.3684
       3    H2      21.741497   19.453597   24.205935 H          1 MOL1         0.3684
       4    H3      20.693989   18.191613   24.017982 H          1 MOL1         0.3684
       5    C1      20.347383   19.755274   22.654279 C.3        1 MOL1         0.1270
       6    H4      21.041497   19.354950   21.908840 H          1 MOL1         0.0960
       7    C2      20.471740   21.288341   22.652644 C.3        1 MOL1        -0.2382
       8    H5      19.782359   21.743448   23.374787 H          1 MOL1         0.1009
       9    H6      20.246595   21.698016   21.660112 H          1 MOL1         0.1009
      10    H7      21.491951   21.595921   22.913219 H          1 MOL1         0.1009
      11    C3      18.912737   19.330030   22.260334 C.3        1 MOL1        -0.1392
      12    H8      18.229462   19.490455   23.104712 H          1 MOL1         0.0998
      13    H9      18.559110   19.992263   21.458786 H          1 MOL1         0.0998
      14    C4      18.785882   17.874265   21.739505 C.3        1 MOL1        -0.1302
      15    H10     19.437598   17.735680   20.865380 H          1 MOL1         0.0998
      16    H11     17.758641   17.729060   21.376576 H          1 MOL1         0.0998
      17    C5      19.090262   16.780445   22.788369 C.3        1 MOL1        -0.2317
      18    H12     18.785935   15.796352   22.408590 H          1 MOL1         0.1009
      19    H13     18.542535   16.959386   23.722870 H          1 MOL1         0.1009
      20    H14     20.162101   16.719245   23.009401 H          1 MOL1         0.1009
@<TRIPOS>BOND
    1     1     2    1
    2     1     3    1
    3     1     4    1
    4     1     5    1
    5     5     6    1
    6     5     7    1
    7     7     8    1
    8     7     9    1
    9     7    10    1
   10     5    11    1
   11    11    12    1
   12    11    13    1
   13    11    14    1
   14    14    15    1
   15    14    16    1
   16    14    17    1
   17    17    18    1
   18    17    19    1
   19    17    20    1
@<TRIPOS>SUBSTRUCTURE
       1 MOL1            1 RESIDUE      1      MOL     
@<SCITEGIC>MOL_PROPERTY
VConf Rank
SciTegic.value.IntegerValue
224

@<SCITEGIC>MOL_PROPERTY
Conf_Id
SciTegic.value.IntegerValue
54

@<SCITEGIC>MOL_PROPERTY
Delta U+W
SciTegic.value.DoubleValue
2.752

@<SCITEGIC>MOL_PROPERTY
U+W
SciTegic.value.DoubleValue
-33.525

@<SCITEGIC>MOL_PROPERTY
Grad RMS
SciTegic.value.DoubleValue
0.000000

@<SCITEGIC>MOL_PROPERTY
U
SciTegic.value.DoubleValue
24.337

@<SCITEGIC>MOL_PROPERTY
W
SciTegic.value.DoubleValue
-57.862

@<SCITEGIC>MOL_PROPERTY
W(PB)
SciTegic.value.DoubleValue
-59.764

@<SCITEGIC>MOL_PROPERTY
W(SA)
SciTegic.value.DoubleValue
1.901

@<SCITEGIC>MOL_PROPERTY
Valence
SciTegic.value.DoubleValue
3.593

@<SCITEGIC>MOL_PROPERTY
Coulomb
SciTegic.value.DoubleValue
20.067

@<SCITEGIC>MOL_PROPERTY
VdW
SciTegic.value.DoubleValue
0.677

@<SCITEGIC>MOL_PROPERTY
VdW6
SciTegic.value.DoubleValue
-5.466

@<SCITEGIC>MOL_PROPERTY
VdW12
SciTegic.value.DoubleValue
6.144

@<SCITEGIC>MOL_PROPERTY
Bond
SciTegic.value.DoubleValue
0.191

@<SCITEGIC>MOL_PROPERTY
Angle
SciTegic.value.DoubleValue
1.557

@<SCITEGIC>MOL_PROPERTY
Pdih
SciTegic.value.DoubleValue
1.845

@<SCITEGIC>MOL_PROPERTY
Idih
SciTegic.value.DoubleValue
0.000

@<SCITEGIC>MOL_PROPERTY
Tether
SciTegic.value.DoubleValue
0.000

@<TRIPOS>MOLECULE
guest-s10_confgen4.mol2 : confsearch ligand conformer 225
          20          19           1
SMALL
USER_CHARGES
 
@<TRIPOS>ATOM
       1    N1      19.434141   20.843076   21.922811 N.4        1 MOL1        -0.5937
       2    H1      19.887103   21.649387   21.484242 H          1 MOL1         0.3684
       3    H2      18.634153   21.196331   22.454734 H          1 MOL1         0.3684
       4    H3      19.067884   20.253094   21.172328 H          1 MOL1         0.3684
       5    C1      20.391232   20.084372   22.801579 C.3        1 MOL1         0.1270
       6    H4      20.739048   20.796914   23.556118 H          1 MOL1         0.0960
       7    C2      21.621573   19.616161   22.004157 C.3        1 MOL1        -0.2382
       8    H5      22.315912   19.062031   22.647822 H          1 MOL1         0.1009
       9    H6      22.163847   20.477370   21.595080 H          1 MOL1         0.1009
      10    H7      21.339715   18.969243   21.165052 H          1 MOL1         0.1009
      11    C3      19.707373   18.917889   23.554379 C.3        1 MOL1        -0.1392
      12    H8      20.435253   18.466428   24.241481 H          1 MOL1         0.0998
      13    H9      18.912444   19.332539   24.188066 H          1 MOL1         0.0998
      14    C4      19.108833   17.813585   22.645200 C.3        1 MOL1        -0.1302
      15    H10     19.899063   17.350142   22.039585 H          1 MOL1         0.0998
      16    H11     18.384683   18.250359   21.944487 H          1 MOL1         0.0998
      17    C5      18.407359   16.716195   23.474052 C.3        1 MOL1        -0.2317
      18    H12     17.990926   15.941100   22.817638 H          1 MOL1         0.1009
      19    H13     17.582613   17.134112   24.065964 H          1 MOL1         0.1009
      20    H14     19.110923   16.230974   24.163096 H          1 MOL1         0.1009
@<TRIPOS>BOND
    1     1     2    1
    2     1     3    1
    3     1     4    1
    4     1     5    1
    5     5     6    1
    6     5     7    1
    7     7     8    1
    8     7     9    1
    9     7    10    1
   10     5    11    1
   11    11    12    1
   12    11    13    1
   13    11    14    1
   14    14    15    1
   15    14    16    1
   16    14    17    1
   17    17    18    1
   18    17    19    1
   19    17    20    1
@<TRIPOS>SUBSTRUCTURE
       1 MOL1            1 RESIDUE      1      MOL     
@<SCITEGIC>MOL_PROPERTY
VConf Rank
SciTegic.value.IntegerValue
225

@<SCITEGIC>MOL_PROPERTY
Conf_Id
SciTegic.value.IntegerValue
63

@<SCITEGIC>MOL_PROPERTY
Delta U+W
SciTegic.value.DoubleValue
0.420

@<SCITEGIC>MOL_PROPERTY
U+W
SciTegic.value.DoubleValue
-35.856

@<SCITEGIC>MOL_PROPERTY
Grad RMS
SciTegic.value.DoubleValue
0.000000

@<SCITEGIC>MOL_PROPERTY
U
SciTegic.value.DoubleValue
22.625

@<SCITEGIC>MOL_PROPERTY
W
SciTegic.value.DoubleValue
-58.481

@<SCITEGIC>MOL_PROPERTY
W(PB)
SciTegic.value.DoubleValue
-60.400

@<SCITEGIC>MOL_PROPERTY
W(SA)
SciTegic.value.DoubleValue
1.919

@<SCITEGIC>MOL_PROPERTY
Valence
SciTegic.value.DoubleValue
2.404

@<SCITEGIC>MOL_PROPERTY
Coulomb
SciTegic.value.DoubleValue
19.464

@<SCITEGIC>MOL_PROPERTY
VdW
SciTegic.value.DoubleValue
0.757

@<SCITEGIC>MOL_PROPERTY
VdW6
SciTegic.value.DoubleValue
-5.074

@<SCITEGIC>MOL_PROPERTY
VdW12
SciTegic.value.DoubleValue
5.830

@<SCITEGIC>MOL_PROPERTY
Bond
SciTegic.value.DoubleValue
0.172

@<SCITEGIC>MOL_PROPERTY
Angle
SciTegic.value.DoubleValue
1.207

@<SCITEGIC>MOL_PROPERTY
Pdih
SciTegic.value.DoubleValue
1.025

@<SCITEGIC>MOL_PROPERTY
Idih
SciTegic.value.DoubleValue
0.000

@<SCITEGIC>MOL_PROPERTY
Tether
SciTegic.value.DoubleValue
0.000

@<TRIPOS>MOLECULE
guest-s10_confgen4.mol2 : confsearch ligand conformer 226
          20          19           1
SMALL
USER_CHARGES
 
@<TRIPOS>ATOM
       1    N1      19.831147   17.408010   23.567693 N.4        1 MOL1        -0.5937
       2    H1      20.108627   17.957290   24.385110 H          1 MOL1         0.3684
       3    H2      20.661068   16.911878   23.233770 H          1 MOL1         0.3684
       4    H3      19.160831   16.703178   23.886174 H          1 MOL1         0.3684
       5    C1      19.243372   18.283653   22.494404 C.3        1 MOL1         0.1270
       6    H4      18.366186   18.770638   22.930888 H          1 MOL1         0.0960
       7    C2      18.775308   17.437636   21.299129 C.3        1 MOL1        -0.2382
       8    H5      18.047740   16.681814   21.619466 H          1 MOL1         0.1009
       9    H6      19.618107   16.920655   20.823552 H          1 MOL1         0.1009
      10    H7      18.289760   18.066720   20.542743 H          1 MOL1         0.1009
      11    C3      20.224069   19.382195   22.024914 C.3        1 MOL1        -0.1392
      12    H8      21.105414   18.912719   21.568125 H          1 MOL1         0.0998
      13    H9      19.745956   19.972756   21.232087 H          1 MOL1         0.0998
      14    C4      20.687172   20.342955   23.149359 C.3        1 MOL1        -0.1302
      15    H10     21.380269   21.079974   22.720031 H          1 MOL1         0.0998
      16    H11     21.262827   19.792919   23.906094 H          1 MOL1         0.0998
      17    C5      19.516754   21.091685   23.826775 C.3        1 MOL1        -0.2317
      18    H12     18.925844   21.649906   23.088944 H          1 MOL1         0.1009
      19    H13     19.895940   21.810714   24.564530 H          1 MOL1         0.1009
      20    H14     18.844968   20.401841   24.352813 H          1 MOL1         0.1009
@<TRIPOS>BOND
    1     1     2    1
    2     1     3    1
    3     1     4    1
    4     1     5    1
    5     5     6    1
    6     5     7    1
    7     7     8    1
    8     7     9    1
    9     7    10    1
   10     5    11    1
   11    11    12    1
   12    11    13    1
   13    11    14    1
   14    14    15    1
   15    14    16    1
   16    14    17    1
   17    17    18    1
   18    17    19    1
   19    17    20    1
@<TRIPOS>SUBSTRUCTURE
       1 MOL1            1 RESIDUE      1      MOL     
@<SCITEGIC>MOL_PROPERTY
VConf Rank
SciTegic.value.IntegerValue
226

@<SCITEGIC>MOL_PROPERTY
Conf_Id
SciTegic.value.IntegerValue
50

@<SCITEGIC>MOL_PROPERTY
Delta U+W
SciTegic.value.DoubleValue
0.466

@<SCITEGIC>MOL_PROPERTY
U+W
SciTegic.value.DoubleValue
-35.811

@<SCITEGIC>MOL_PROPERTY
Grad RMS
SciTegic.value.DoubleValue
0.000000

@<SCITEGIC>MOL_PROPERTY
U
SciTegic.value.DoubleValue
22.369

@<SCITEGIC>MOL_PROPERTY
W
SciTegic.value.DoubleValue
-58.180

@<SCITEGIC>MOL_PROPERTY
W(PB)
SciTegic.value.DoubleValue
-60.103

@<SCITEGIC>MOL_PROPERTY
W(SA)
SciTegic.value.DoubleValue
1.923

@<SCITEGIC>MOL_PROPERTY
Valence
SciTegic.value.DoubleValue
2.168

@<SCITEGIC>MOL_PROPERTY
Coulomb
SciTegic.value.DoubleValue
19.636

@<SCITEGIC>MOL_PROPERTY
VdW
SciTegic.value.DoubleValue
0.566

@<SCITEGIC>MOL_PROPERTY
VdW6
SciTegic.value.DoubleValue
-5.263

@<SCITEGIC>MOL_PROPERTY
VdW12
SciTegic.value.DoubleValue
5.829

@<SCITEGIC>MOL_PROPERTY
Bond
SciTegic.value.DoubleValue
0.162

@<SCITEGIC>MOL_PROPERTY
Angle
SciTegic.value.DoubleValue
1.066

@<SCITEGIC>MOL_PROPERTY
Pdih
SciTegic.value.DoubleValue
0.939

@<SCITEGIC>MOL_PROPERTY
Idih
SciTegic.value.DoubleValue
0.000

@<SCITEGIC>MOL_PROPERTY
Tether
SciTegic.value.DoubleValue
0.000

@<TRIPOS>MOLECULE
guest-s10_confgen4.mol2 : confsearch ligand conformer 227
          20          19           1
SMALL
USER_CHARGES
 
@<TRIPOS>ATOM
       1    N1      19.238163   16.676510   23.218180 N.4        1 MOL1        -0.5937
       2    H1      18.683981   16.698207   24.078650 H          1 MOL1         0.3684
       3    H2      20.132437   16.231540   23.439871 H          1 MOL1         0.3684
       4    H3      18.749105   16.064768   22.559143 H          1 MOL1         0.3684
       5    C1      19.433081   18.055709   22.648620 C.3        1 MOL1         0.1270
       6    H4      18.430825   18.447220   22.448709 H          1 MOL1         0.0960
       7    C2      20.204909   17.972140   21.318484 C.3        1 MOL1        -0.2382
       8    H5      21.201975   17.539045   21.466653 H          1 MOL1         0.1009
       9    H6      20.331957   18.960423   20.863573 H          1 MOL1         0.1009
      10    H7      19.666507   17.343926   20.598346 H          1 MOL1         0.1009
      11    C3      20.128764   19.004201   23.655903 C.3        1 MOL1        -0.1392
      12    H8      20.059033   18.572512   24.663104 H          1 MOL1         0.0998
      13    H9      21.202892   19.073945   23.438191 H          1 MOL1         0.0998
      14    C4      19.504393   20.421295   23.717468 C.3        1 MOL1        -0.1302
      15    H10     20.009196   20.992949   24.508870 H          1 MOL1         0.0998
      16    H11     18.450680   20.345567   24.020841 H          1 MOL1         0.0998
      17    C5      19.600981   21.212724   22.394385 C.3        1 MOL1        -0.2317
      18    H12     20.638866   21.269690   22.041430 H          1 MOL1         0.1009
      19    H13     19.238565   22.239395   22.534538 H          1 MOL1         0.1009
      20    H14     18.989369   20.754280   21.607371 H          1 MOL1         0.1009
@<TRIPOS>BOND
    1     1     2    1
    2     1     3    1
    3     1     4    1
    4     1     5    1
    5     5     6    1
    6     5     7    1
    7     7     8    1
    8     7     9    1
    9     7    10    1
   10     5    11    1
   11    11    12    1
   12    11    13    1
   13    11    14    1
   14    14    15    1
   15    14    16    1
   16    14    17    1
   17    17    18    1
   18    17    19    1
   19    17    20    1
@<TRIPOS>SUBSTRUCTURE
       1 MOL1            1 RESIDUE      1      MOL     
@<SCITEGIC>MOL_PROPERTY
VConf Rank
SciTegic.value.IntegerValue
227

@<SCITEGIC>MOL_PROPERTY
Conf_Id
SciTegic.value.IntegerValue
3

@<SCITEGIC>MOL_PROPERTY
Delta U+W
SciTegic.value.DoubleValue
3.093

@<SCITEGIC>MOL_PROPERTY
U+W
SciTegic.value.DoubleValue
-33.184

@<SCITEGIC>MOL_PROPERTY
Grad RMS
SciTegic.value.DoubleValue
0.000000

@<SCITEGIC>MOL_PROPERTY
U
SciTegic.value.DoubleValue
25.256

@<SCITEGIC>MOL_PROPERTY
W
SciTegic.value.DoubleValue
-58.439

@<SCITEGIC>MOL_PROPERTY
W(PB)
SciTegic.value.DoubleValue
-60.337

@<SCITEGIC>MOL_PROPERTY
W(SA)
SciTegic.value.DoubleValue
1.898

@<SCITEGIC>MOL_PROPERTY
Valence
SciTegic.value.DoubleValue
4.963

@<SCITEGIC>MOL_PROPERTY
Coulomb
SciTegic.value.DoubleValue
19.511

@<SCITEGIC>MOL_PROPERTY
VdW
SciTegic.value.DoubleValue
0.782

@<SCITEGIC>MOL_PROPERTY
VdW6
SciTegic.value.DoubleValue
-5.429

@<SCITEGIC>MOL_PROPERTY
VdW12
SciTegic.value.DoubleValue
6.211

@<SCITEGIC>MOL_PROPERTY
Bond
SciTegic.value.DoubleValue
0.174

@<SCITEGIC>MOL_PROPERTY
Angle
SciTegic.value.DoubleValue
1.377

@<SCITEGIC>MOL_PROPERTY
Pdih
SciTegic.value.DoubleValue
3.412

@<SCITEGIC>MOL_PROPERTY
Idih
SciTegic.value.DoubleValue
0.000

@<SCITEGIC>MOL_PROPERTY
Tether
SciTegic.value.DoubleValue
0.000

@<TRIPOS>MOLECULE
guest-s10_confgen4.mol2 : confsearch ligand conformer 228
          20          19           1
SMALL
USER_CHARGES
 
@<TRIPOS>ATOM
       1    N1      21.701639   19.465008   23.670907 N.4        1 MOL1        -0.5937
       2    H1      21.917413   19.342018   24.663857 H          1 MOL1         0.3684
       3    H2      21.803273   20.461643   23.460623 H          1 MOL1         0.3684
       4    H3      22.419145   18.965175   23.139836 H          1 MOL1         0.3684
       5    C1      20.321697   18.965684   23.341036 C.3        1 MOL1         0.1270
       6    H4      19.629404   19.550624   23.953957 H          1 MOL1         0.0960
       7    C2      20.181588   17.482769   23.730180 C.3        1 MOL1        -0.2382
       8    H5      19.145285   17.140753   23.627041 H          1 MOL1         0.1009
       9    H6      20.471389   17.328542   24.776776 H          1 MOL1         0.1009
      10    H7      20.817998   16.845872   23.103416 H          1 MOL1         0.1009
      11    C3      19.978586   19.210632   21.852176 C.3        1 MOL1        -0.1392
      12    H8      20.173814   20.264862   21.615507 H          1 MOL1         0.0998
      13    H9      20.660737   18.625713   21.221085 H          1 MOL1         0.0998
      14    C4      18.516181   18.884518   21.454526 C.3        1 MOL1        -0.1302
      15    H10     18.325103   17.807431   21.552734 H          1 MOL1         0.0998
      16    H11     18.381184   19.117014   20.388899 H          1 MOL1         0.0998
      17    C5      17.473865   19.677161   22.275771 C.3        1 MOL1        -0.2317
      18    H12     17.646689   20.758261   22.195066 H          1 MOL1         0.1009
      19    H13     17.503928   19.402776   23.337785 H          1 MOL1         0.1009
      20    H14     16.459390   19.472010   21.910025 H          1 MOL1         0.1009
@<TRIPOS>BOND
    1     1     2    1
    2     1     3    1
    3     1     4    1
    4     1     5    1
    5     5     6    1
    6     5     7    1
    7     7     8    1
    8     7     9    1
    9     7    10    1
   10     5    11    1
   11    11    12    1
   12    11    13    1
   13    11    14    1
   14    14    15    1
   15    14    16    1
   16    14    17    1
   17    17    18    1
   18    17    19    1
   19    17    20    1
@<TRIPOS>SUBSTRUCTURE
       1 MOL1            1 RESIDUE      1      MOL     
@<SCITEGIC>MOL_PROPERTY
VConf Rank
SciTegic.value.IntegerValue
228

@<SCITEGIC>MOL_PROPERTY
Conf_Id
SciTegic.value.IntegerValue
64

@<SCITEGIC>MOL_PROPERTY
Delta U+W
SciTegic.value.DoubleValue
0.544

@<SCITEGIC>MOL_PROPERTY
U+W
SciTegic.value.DoubleValue
-35.732

@<SCITEGIC>MOL_PROPERTY
Grad RMS
SciTegic.value.DoubleValue
0.000000

@<SCITEGIC>MOL_PROPERTY
U
SciTegic.value.DoubleValue
22.800

@<SCITEGIC>MOL_PROPERTY
W
SciTegic.value.DoubleValue
-58.532

@<SCITEGIC>MOL_PROPERTY
W(PB)
SciTegic.value.DoubleValue
-60.437

@<SCITEGIC>MOL_PROPERTY
W(SA)
SciTegic.value.DoubleValue
1.905

@<SCITEGIC>MOL_PROPERTY
Valence
SciTegic.value.DoubleValue
2.662

@<SCITEGIC>MOL_PROPERTY
Coulomb
SciTegic.value.DoubleValue
19.485

@<SCITEGIC>MOL_PROPERTY
VdW
SciTegic.value.DoubleValue
0.653

@<SCITEGIC>MOL_PROPERTY
VdW6
SciTegic.value.DoubleValue
-5.460

@<SCITEGIC>MOL_PROPERTY
VdW12
SciTegic.value.DoubleValue
6.113

@<SCITEGIC>MOL_PROPERTY
Bond
SciTegic.value.DoubleValue
0.174

@<SCITEGIC>MOL_PROPERTY
Angle
SciTegic.value.DoubleValue
1.378

@<SCITEGIC>MOL_PROPERTY
Pdih
SciTegic.value.DoubleValue
1.109

@<SCITEGIC>MOL_PROPERTY
Idih
SciTegic.value.DoubleValue
0.000

@<SCITEGIC>MOL_PROPERTY
Tether
SciTegic.value.DoubleValue
0.000

@<TRIPOS>MOLECULE
guest-s10_confgen4.mol2 : confsearch ligand conformer 229
          20          19           1
SMALL
USER_CHARGES
 
@<TRIPOS>ATOM
       1    N1      18.277368   19.610546   21.389996 N.4        1 MOL1        -0.5937
       2    H1      18.838929   19.021281   20.771379 H          1 MOL1         0.3684
       3    H2      18.110883   20.494626   20.901837 H          1 MOL1         0.3684
       4    H3      17.369148   19.153659   21.508540 H          1 MOL1         0.3684
       5    C1      18.962444   19.832120   22.711513 C.3        1 MOL1         0.1270
       6    H4      18.293800   20.476585   23.290775 H          1 MOL1         0.0960
       7    C2      20.284511   20.593821   22.522637 C.3        1 MOL1        -0.2382
       8    H5      20.957650   20.065930   21.837127 H          1 MOL1         0.1009
       9    H6      20.798344   20.729156   23.482324 H          1 MOL1         0.1009
      10    H7      20.095993   21.589541   22.103146 H          1 MOL1         0.1009
      11    C3      19.131519   18.518303   23.515402 C.3        1 MOL1        -0.1392
      12    H8      19.471479   18.754717   24.532275 H          1 MOL1         0.0998
      13    H9      18.132807   18.079657   23.640485 H          1 MOL1         0.0998
      14    C4      20.060139   17.442664   22.886203 C.3        1 MOL1        -0.1302
      15    H10     20.035213   17.496246   21.789897 H          1 MOL1         0.0998
      16    H11     19.665626   16.450275   23.146021 H          1 MOL1         0.0998
      17    C5      21.520892   17.516158   23.389736 C.3        1 MOL1        -0.2317
      18    H12     22.001425   18.465158   23.128082 H          1 MOL1         0.1009
      19    H13     22.119779   16.709674   22.947147 H          1 MOL1         0.1009
      20    H14     21.566669   17.402828   24.480654 H          1 MOL1         0.1009
@<TRIPOS>BOND
    1     1     2    1
    2     1     3    1
    3     1     4    1
    4     1     5    1
    5     5     6    1
    6     5     7    1
    7     7     8    1
    8     7     9    1
    9     7    10    1
   10     5    11    1
   11    11    12    1
   12    11    13    1
   13    11    14    1
   14    14    15    1
   15    14    16    1
   16    14    17    1
   17    17    18    1
   18    17    19    1
   19    17    20    1
@<TRIPOS>SUBSTRUCTURE
       1 MOL1            1 RESIDUE      1      MOL     
@<SCITEGIC>MOL_PROPERTY
VConf Rank
SciTegic.value.IntegerValue
229

@<SCITEGIC>MOL_PROPERTY
Conf_Id
SciTegic.value.IntegerValue
35

@<SCITEGIC>MOL_PROPERTY
Delta U+W
SciTegic.value.DoubleValue
3.004

@<SCITEGIC>MOL_PROPERTY
U+W
SciTegic.value.DoubleValue
-33.272

@<SCITEGIC>MOL_PROPERTY
Grad RMS
SciTegic.value.DoubleValue
0.000000

@<SCITEGIC>MOL_PROPERTY
U
SciTegic.value.DoubleValue
25.367

@<SCITEGIC>MOL_PROPERTY
W
SciTegic.value.DoubleValue
-58.639

@<SCITEGIC>MOL_PROPERTY
W(PB)
SciTegic.value.DoubleValue
-60.512

@<SCITEGIC>MOL_PROPERTY
W(SA)
SciTegic.value.DoubleValue
1.873

@<SCITEGIC>MOL_PROPERTY
Valence
SciTegic.value.DoubleValue
4.943

@<SCITEGIC>MOL_PROPERTY
Coulomb
SciTegic.value.DoubleValue
19.661

@<SCITEGIC>MOL_PROPERTY
VdW
SciTegic.value.DoubleValue
0.764

@<SCITEGIC>MOL_PROPERTY
VdW6
SciTegic.value.DoubleValue
-5.871

@<SCITEGIC>MOL_PROPERTY
VdW12
SciTegic.value.DoubleValue
6.636

@<SCITEGIC>MOL_PROPERTY
Bond
SciTegic.value.DoubleValue
0.230

@<SCITEGIC>MOL_PROPERTY
Angle
SciTegic.value.DoubleValue
1.857

@<SCITEGIC>MOL_PROPERTY
Pdih
SciTegic.value.DoubleValue
2.855

@<SCITEGIC>MOL_PROPERTY
Idih
SciTegic.value.DoubleValue
0.000

@<SCITEGIC>MOL_PROPERTY
Tether
SciTegic.value.DoubleValue
0.000

@<TRIPOS>MOLECULE
guest-s10_confgen4.mol2 : confsearch ligand conformer 230
          20          19           1
SMALL
USER_CHARGES
 
@<TRIPOS>ATOM
       1    N1      18.544452   19.747529   21.705819 N.4        1 MOL1        -0.5937
       2    H1      18.223068   20.692690   21.480021 H          1 MOL1         0.3684
       3    H2      17.790889   19.101672   21.455634 H          1 MOL1         0.3684
       4    H3      19.340536   19.537923   21.100581 H          1 MOL1         0.3684
       5    C1      18.916886   19.623303   23.157826 C.3        1 MOL1         0.1270
       6    H4      17.998059   19.840071   23.711626 H          1 MOL1         0.0960
       7    C2      19.956859   20.682781   23.563379 C.3        1 MOL1        -0.2382
       8    H5      20.879953   20.588515   22.979165 H          1 MOL1         0.1009
       9    H6      20.211196   20.591030   24.626541 H          1 MOL1         0.1009
      10    H7      19.559709   21.692399   23.402408 H          1 MOL1         0.1009
      11    C3      19.350290   18.188256   23.552938 C.3        1 MOL1        -0.1392
      12    H8      19.295852   18.114117   24.647051 H          1 MOL1         0.0998
      13    H9      18.605264   17.475485   23.175961 H          1 MOL1         0.0998
      14    C4      20.768714   17.726029   23.115884 C.3        1 MOL1        -0.1302
      15    H10     20.932324   16.713732   23.511246 H          1 MOL1         0.0998
      16    H11     21.536381   18.353965   23.588130 H          1 MOL1         0.0998
      17    C5      20.993676   17.691461   21.587120 C.3        1 MOL1        -0.2317
      18    H12     20.191373   17.140985   21.078764 H          1 MOL1         0.1009
      19    H13     21.941219   17.188476   21.354014 H          1 MOL1         0.1009
      20    H14     21.053908   18.701126   21.164963 H          1 MOL1         0.1009
@<TRIPOS>BOND
    1     1     2    1
    2     1     3    1
    3     1     4    1
    4     1     5    1
    5     5     6    1
    6     5     7    1
    7     7     8    1
    8     7     9    1
    9     7    10    1
   10     5    11    1
   11    11    12    1
   12    11    13    1
   13    11    14    1
   14    14    15    1
   15    14    16    1
   16    14    17    1
   17    17    18    1
   18    17    19    1
   19    17    20    1
@<TRIPOS>SUBSTRUCTURE
       1 MOL1            1 RESIDUE      1      MOL     
@<SCITEGIC>MOL_PROPERTY
VConf Rank
SciTegic.value.IntegerValue
230

@<SCITEGIC>MOL_PROPERTY
Conf_Id
SciTegic.value.IntegerValue
55

@<SCITEGIC>MOL_PROPERTY
Delta U+W
SciTegic.value.DoubleValue
2.767

@<SCITEGIC>MOL_PROPERTY
U+W
SciTegic.value.DoubleValue
-33.509

@<SCITEGIC>MOL_PROPERTY
Grad RMS
SciTegic.value.DoubleValue
0.000000

@<SCITEGIC>MOL_PROPERTY
U
SciTegic.value.DoubleValue
24.552

@<SCITEGIC>MOL_PROPERTY
W
SciTegic.value.DoubleValue
-58.061

@<SCITEGIC>MOL_PROPERTY
W(PB)
SciTegic.value.DoubleValue
-59.930

@<SCITEGIC>MOL_PROPERTY
W(SA)
SciTegic.value.DoubleValue
1.869

@<SCITEGIC>MOL_PROPERTY
Valence
SciTegic.value.DoubleValue
3.726

@<SCITEGIC>MOL_PROPERTY
Coulomb
SciTegic.value.DoubleValue
20.219

@<SCITEGIC>MOL_PROPERTY
VdW
SciTegic.value.DoubleValue
0.606

@<SCITEGIC>MOL_PROPERTY
VdW6
SciTegic.value.DoubleValue
-6.395

@<SCITEGIC>MOL_PROPERTY
VdW12
SciTegic.value.DoubleValue
7.001

@<SCITEGIC>MOL_PROPERTY
Bond
SciTegic.value.DoubleValue
0.241

@<SCITEGIC>MOL_PROPERTY
Angle
SciTegic.value.DoubleValue
2.098

@<SCITEGIC>MOL_PROPERTY
Pdih
SciTegic.value.DoubleValue
1.387

@<SCITEGIC>MOL_PROPERTY
Idih
SciTegic.value.DoubleValue
0.000

@<SCITEGIC>MOL_PROPERTY
Tether
SciTegic.value.DoubleValue
0.000

@<TRIPOS>MOLECULE
guest-s10_confgen4.mol2 : confsearch ligand conformer 231
          20          19           1
SMALL
USER_CHARGES
 
@<TRIPOS>ATOM
       1    N1      20.705045   19.881212   24.170629 N.4        1 MOL1        -0.5937
       2    H1      20.551898   19.180284   24.899870 H          1 MOL1         0.3684
       3    H2      20.864979   20.777746   24.637860 H          1 MOL1         0.3684
       4    H3      21.569983   19.634224   23.683331 H          1 MOL1         0.3684
       5    C1      19.538489   19.954579   23.222565 C.3        1 MOL1         0.1270
       6    H4      19.784847   20.718758   22.478774 H          1 MOL1         0.0960
       7    C2      18.266738   20.397638   23.964399 C.3        1 MOL1        -0.2382
       8    H5      18.423357   21.362729   24.461727 H          1 MOL1         0.1009
       9    H6      17.975025   19.663955   24.726242 H          1 MOL1         0.1009
      10    H7      17.428972   20.516151   23.266014 H          1 MOL1         0.1009
      11    C3      19.291090   18.621915   22.481654 C.3        1 MOL1        -0.1392
      12    H8      19.064487   17.830969   23.208958 H          1 MOL1         0.0998
      13    H9      18.400320   18.728914   21.848292 H          1 MOL1         0.0998
      14    C4      20.484454   18.191150   21.595175 C.3        1 MOL1        -0.1302
      15    H10     21.376006   18.022491   22.214138 H          1 MOL1         0.0998
      16    H11     20.733363   18.998142   20.891576 H          1 MOL1         0.0998
      17    C5      20.171278   16.902615   20.804668 C.3        1 MOL1        -0.2317
      18    H12     19.947734   16.068142   21.482119 H          1 MOL1         0.1009
      19    H13     21.027934   16.611169   20.183149 H          1 MOL1         0.1009
      20    H14     19.308008   17.045143   20.141582 H          1 MOL1         0.1009
@<TRIPOS>BOND
    1     1     2    1
    2     1     3    1
    3     1     4    1
    4     1     5    1
    5     5     6    1
    6     5     7    1
    7     7     8    1
    8     7     9    1
    9     7    10    1
   10     5    11    1
   11    11    12    1
   12    11    13    1
   13    11    14    1
   14    14    15    1
   15    14    16    1
   16    14    17    1
   17    17    18    1
   18    17    19    1
   19    17    20    1
@<TRIPOS>SUBSTRUCTURE
       1 MOL1            1 RESIDUE      1      MOL     
@<SCITEGIC>MOL_PROPERTY
VConf Rank
SciTegic.value.IntegerValue
231

@<SCITEGIC>MOL_PROPERTY
Conf_Id
SciTegic.value.IntegerValue
74

@<SCITEGIC>MOL_PROPERTY
Delta U+W
SciTegic.value.DoubleValue
0.000

@<SCITEGIC>MOL_PROPERTY
U+W
SciTegic.value.DoubleValue
-36.276

@<SCITEGIC>MOL_PROPERTY
Grad RMS
SciTegic.value.DoubleValue
0.000000

@<SCITEGIC>MOL_PROPERTY
U
SciTegic.value.DoubleValue
22.080

@<SCITEGIC>MOL_PROPERTY
W
SciTegic.value.DoubleValue
-58.356

@<SCITEGIC>MOL_PROPERTY
W(PB)
SciTegic.value.DoubleValue
-60.289

@<SCITEGIC>MOL_PROPERTY
W(SA)
SciTegic.value.DoubleValue
1.932

@<SCITEGIC>MOL_PROPERTY
Valence
SciTegic.value.DoubleValue
1.885

@<SCITEGIC>MOL_PROPERTY
Coulomb
SciTegic.value.DoubleValue
19.559

@<SCITEGIC>MOL_PROPERTY
VdW
SciTegic.value.DoubleValue
0.637

@<SCITEGIC>MOL_PROPERTY
VdW6
SciTegic.value.DoubleValue
-4.482

@<SCITEGIC>MOL_PROPERTY
VdW12
SciTegic.value.DoubleValue
5.119

@<SCITEGIC>MOL_PROPERTY
Bond
SciTegic.value.DoubleValue
0.136

@<SCITEGIC>MOL_PROPERTY
Angle
SciTegic.value.DoubleValue
0.867

@<SCITEGIC>MOL_PROPERTY
Pdih
SciTegic.value.DoubleValue
0.882

@<SCITEGIC>MOL_PROPERTY
Idih
SciTegic.value.DoubleValue
0.000

@<SCITEGIC>MOL_PROPERTY
Tether
SciTegic.value.DoubleValue
0.000

@<TRIPOS>MOLECULE
guest-s10_confgen4.mol2 : confsearch ligand conformer 232
          20          19           1
SMALL
USER_CHARGES
 
@<TRIPOS>ATOM
       1    N1      21.389091   19.789515   21.215267 N.4        1 MOL1        -0.5937
       2    H1      21.598798   18.965781   20.644879 H          1 MOL1         0.3684
       3    H2      22.153017   19.899643   21.886845 H          1 MOL1         0.3684
       4    H3      21.411945   20.601719   20.592787 H          1 MOL1         0.3684
       5    C1      20.059299   19.662745   21.906678 C.3        1 MOL1         0.1270
       6    H4      19.310276   19.553160   21.116223 H          1 MOL1         0.0960
       7    C2      19.745378   20.944856   22.699424 C.3        1 MOL1        -0.2382
       8    H5      19.837324   21.828845   22.056516 H          1 MOL1         0.1009
       9    H6      20.432947   21.067089   23.545526 H          1 MOL1         0.1009
      10    H7      18.720609   20.933284   23.087933 H          1 MOL1         0.1009
      11    C3      20.010271   18.399690   22.797619 C.3        1 MOL1        -0.1392
      12    H8      20.347403   17.541112   22.201928 H          1 MOL1         0.0998
      13    H9      20.724564   18.503008   23.625242 H          1 MOL1         0.0998
      14    C4      18.602381   18.085092   23.359791 C.3        1 MOL1        -0.1302
      15    H10     17.875210   18.044034   22.536623 H          1 MOL1         0.0998
      16    H11     18.273976   18.886024   24.035483 H          1 MOL1         0.0998
      17    C5      18.581777   16.745856   24.127715 C.3        1 MOL1        -0.2317
      18    H12     18.863210   15.910137   23.473798 H          1 MOL1         0.1009
      19    H13     17.578109   16.540520   24.522146 H          1 MOL1         0.1009
      20    H14     19.278872   16.766129   24.975599 H          1 MOL1         0.1009
@<TRIPOS>BOND
    1     1     2    1
    2     1     3    1
    3     1     4    1
    4     1     5    1
    5     5     6    1
    6     5     7    1
    7     7     8    1
    8     7     9    1
    9     7    10    1
   10     5    11    1
   11    11    12    1
   12    11    13    1
   13    11    14    1
   14    14    15    1
   15    14    16    1
   16    14    17    1
   17    17    18    1
   18    17    19    1
   19    17    20    1
@<TRIPOS>SUBSTRUCTURE
       1 MOL1            1 RESIDUE      1      MOL     
@<SCITEGIC>MOL_PROPERTY
VConf Rank
SciTegic.value.IntegerValue
232

@<SCITEGIC>MOL_PROPERTY
Conf_Id
SciTegic.value.IntegerValue
80

@<SCITEGIC>MOL_PROPERTY
Delta U+W
SciTegic.value.DoubleValue
0.460

@<SCITEGIC>MOL_PROPERTY
U+W
SciTegic.value.DoubleValue
-35.817

@<SCITEGIC>MOL_PROPERTY
Grad RMS
SciTegic.value.DoubleValue
0.000000

@<SCITEGIC>MOL_PROPERTY
U
SciTegic.value.DoubleValue
22.495

@<SCITEGIC>MOL_PROPERTY
W
SciTegic.value.DoubleValue
-58.311

@<SCITEGIC>MOL_PROPERTY
W(PB)
SciTegic.value.DoubleValue
-60.259

@<SCITEGIC>MOL_PROPERTY
W(SA)
SciTegic.value.DoubleValue
1.948

@<SCITEGIC>MOL_PROPERTY
Valence
SciTegic.value.DoubleValue
2.419

@<SCITEGIC>MOL_PROPERTY
Coulomb
SciTegic.value.DoubleValue
19.304

@<SCITEGIC>MOL_PROPERTY
VdW
SciTegic.value.DoubleValue
0.772

@<SCITEGIC>MOL_PROPERTY
VdW6
SciTegic.value.DoubleValue
-4.635

@<SCITEGIC>MOL_PROPERTY
VdW12
SciTegic.value.DoubleValue
5.407

@<SCITEGIC>MOL_PROPERTY
Bond
SciTegic.value.DoubleValue
0.149

@<SCITEGIC>MOL_PROPERTY
Angle
SciTegic.value.DoubleValue
1.142

@<SCITEGIC>MOL_PROPERTY
Pdih
SciTegic.value.DoubleValue
1.129

@<SCITEGIC>MOL_PROPERTY
Idih
SciTegic.value.DoubleValue
0.000

@<SCITEGIC>MOL_PROPERTY
Tether
SciTegic.value.DoubleValue
0.000

@<TRIPOS>MOLECULE
guest-s10_confgen4.mol2 : confsearch ligand conformer 233
          20          19           1
SMALL
USER_CHARGES
 
@<TRIPOS>ATOM
       1    N1      19.846235   19.173204   25.110478 N.4        1 MOL1        -0.5937
       2    H1      19.447095   20.073389   25.390059 H          1 MOL1         0.3684
       3    H2      20.864531   19.264327   25.148696 H          1 MOL1         0.3684
       4    H3      19.575273   18.488595   25.821466 H          1 MOL1         0.3684
       5    C1      19.379941   18.759391   23.741509 C.3        1 MOL1         0.1270
       6    H4      18.289742   18.682637   23.799606 H          1 MOL1         0.0960
       7    C2      19.938540   17.370921   23.386018 C.3        1 MOL1        -0.2382
       8    H5      19.746787   16.656999   24.196381 H          1 MOL1         0.1009
       9    H6      21.021403   17.409251   23.214573 H          1 MOL1         0.1009
      10    H7      19.456248   16.972351   22.486272 H          1 MOL1         0.1009
      11    C3      19.729794   19.836866   22.686053 C.3        1 MOL1        -0.1392
      12    H8      19.323451   20.792223   23.043641 H          1 MOL1         0.0998
      13    H9      20.817606   19.976715   22.632792 H          1 MOL1         0.0998
      14    C4      19.151786   19.578856   21.269374 C.3        1 MOL1        -0.1302
      15    H10     18.854945   20.542271   20.831386 H          1 MOL1         0.0998
      16    H11     18.231200   18.982051   21.335042 H          1 MOL1         0.0998
      17    C5      20.160416   18.909542   20.306193 C.3        1 MOL1        -0.2317
      18    H12     21.052285   19.536091   20.175336 H          1 MOL1         0.1009
      19    H13     19.708234   18.764958   19.316441 H          1 MOL1         0.1009
      20    H14     20.488323   17.928421   20.667332 H          1 MOL1         0.1009
@<TRIPOS>BOND
    1     1     2    1
    2     1     3    1
    3     1     4    1
    4     1     5    1
    5     5     6    1
    6     5     7    1
    7     7     8    1
    8     7     9    1
    9     7    10    1
   10     5    11    1
   11    11    12    1
   12    11    13    1
   13    11    14    1
   14    14    15    1
   15    14    16    1
   16    14    17    1
   17    17    18    1
   18    17    19    1
   19    17    20    1
@<TRIPOS>SUBSTRUCTURE
       1 MOL1            1 RESIDUE      1      MOL     
@<SCITEGIC>MOL_PROPERTY
VConf Rank
SciTegic.value.IntegerValue
233

@<SCITEGIC>MOL_PROPERTY
Conf_Id
SciTegic.value.IntegerValue
52

@<SCITEGIC>MOL_PROPERTY
Delta U+W
SciTegic.value.DoubleValue
2.995

@<SCITEGIC>MOL_PROPERTY
U+W
SciTegic.value.DoubleValue
-33.282

@<SCITEGIC>MOL_PROPERTY
Grad RMS
SciTegic.value.DoubleValue
0.000000

@<SCITEGIC>MOL_PROPERTY
U
SciTegic.value.DoubleValue
25.224

@<SCITEGIC>MOL_PROPERTY
W
SciTegic.value.DoubleValue
-58.506

@<SCITEGIC>MOL_PROPERTY
W(PB)
SciTegic.value.DoubleValue
-60.411

@<SCITEGIC>MOL_PROPERTY
W(SA)
SciTegic.value.DoubleValue
1.905

@<SCITEGIC>MOL_PROPERTY
Valence
SciTegic.value.DoubleValue
4.945

@<SCITEGIC>MOL_PROPERTY
Coulomb
SciTegic.value.DoubleValue
19.467

@<SCITEGIC>MOL_PROPERTY
VdW
SciTegic.value.DoubleValue
0.813

@<SCITEGIC>MOL_PROPERTY
VdW6
SciTegic.value.DoubleValue
-5.458

@<SCITEGIC>MOL_PROPERTY
VdW12
SciTegic.value.DoubleValue
6.270

@<SCITEGIC>MOL_PROPERTY
Bond
SciTegic.value.DoubleValue
0.200

@<SCITEGIC>MOL_PROPERTY
Angle
SciTegic.value.DoubleValue
1.675

@<SCITEGIC>MOL_PROPERTY
Pdih
SciTegic.value.DoubleValue
3.070

@<SCITEGIC>MOL_PROPERTY
Idih
SciTegic.value.DoubleValue
0.000

@<SCITEGIC>MOL_PROPERTY
Tether
SciTegic.value.DoubleValue
0.000

@<TRIPOS>MOLECULE
guest-s10_confgen4.mol2 : confsearch ligand conformer 234
          20          19           1
SMALL
USER_CHARGES
 
@<TRIPOS>ATOM
       1    N1      19.162166   20.468892   22.330914 N.4        1 MOL1        -0.5937
       2    H1      19.782614   21.140545   22.789503 H          1 MOL1         0.3684
       3    H2      18.282487   20.952251   22.130472 H          1 MOL1         0.3684
       4    H3      19.588852   20.219953   21.435953 H          1 MOL1         0.3684
       5    C1      18.941434   19.252309   23.187916 C.3        1 MOL1         0.1270
       6    H4      18.234765   18.607548   22.656279 H          1 MOL1         0.0960
       7    C2      18.303328   19.665193   24.525117 C.3        1 MOL1        -0.2382
       8    H5      18.979825   20.302910   25.107806 H          1 MOL1         0.1009
       9    H6      18.058534   18.783569   25.130477 H          1 MOL1         0.1009
      10    H7      17.371634   20.219181   24.356657 H          1 MOL1         0.1009
      11    C3      20.240677   18.449221   23.435406 C.3        1 MOL1        -0.1392
      12    H8      21.050504   19.129084   23.731279 H          1 MOL1         0.0998
      13    H9      20.081541   17.781766   24.292881 H          1 MOL1         0.0998
      14    C4      20.694509   17.563710   22.245232 C.3        1 MOL1        -0.1302
      15    H10     19.896082   16.854207   21.986091 H          1 MOL1         0.0998
      16    H11     21.545277   16.952739   22.578301 H          1 MOL1         0.0998
      17    C5      21.121477   18.343945   20.981057 C.3        1 MOL1        -0.2317
      18    H12     21.613823   17.669716   20.268107 H          1 MOL1         0.1009
      19    H13     21.832191   19.143998   21.226247 H          1 MOL1         0.1009
      20    H14     20.258671   18.779533   20.464079 H          1 MOL1         0.1009
@<TRIPOS>BOND
    1     1     2    1
    2     1     3    1
    3     1     4    1
    4     1     5    1
    5     5     6    1
    6     5     7    1
    7     7     8    1
    8     7     9    1
    9     7    10    1
   10     5    11    1
   11    11    12    1
   12    11    13    1
   13    11    14    1
   14    14    15    1
   15    14    16    1
   16    14    17    1
   17    17    18    1
   18    17    19    1
   19    17    20    1
@<TRIPOS>SUBSTRUCTURE
       1 MOL1            1 RESIDUE      1      MOL     
@<SCITEGIC>MOL_PROPERTY
VConf Rank
SciTegic.value.IntegerValue
234

@<SCITEGIC>MOL_PROPERTY
Conf_Id
SciTegic.value.IntegerValue
54

@<SCITEGIC>MOL_PROPERTY
Delta U+W
SciTegic.value.DoubleValue
2.752

@<SCITEGIC>MOL_PROPERTY
U+W
SciTegic.value.DoubleValue
-33.525

@<SCITEGIC>MOL_PROPERTY
Grad RMS
SciTegic.value.DoubleValue
0.000000

@<SCITEGIC>MOL_PROPERTY
U
SciTegic.value.DoubleValue
24.337

@<SCITEGIC>MOL_PROPERTY
W
SciTegic.value.DoubleValue
-57.862

@<SCITEGIC>MOL_PROPERTY
W(PB)
SciTegic.value.DoubleValue
-59.764

@<SCITEGIC>MOL_PROPERTY
W(SA)
SciTegic.value.DoubleValue
1.901

@<SCITEGIC>MOL_PROPERTY
Valence
SciTegic.value.DoubleValue
3.593

@<SCITEGIC>MOL_PROPERTY
Coulomb
SciTegic.value.DoubleValue
20.067

@<SCITEGIC>MOL_PROPERTY
VdW
SciTegic.value.DoubleValue
0.677

@<SCITEGIC>MOL_PROPERTY
VdW6
SciTegic.value.DoubleValue
-5.466

@<SCITEGIC>MOL_PROPERTY
VdW12
SciTegic.value.DoubleValue
6.144

@<SCITEGIC>MOL_PROPERTY
Bond
SciTegic.value.DoubleValue
0.191

@<SCITEGIC>MOL_PROPERTY
Angle
SciTegic.value.DoubleValue
1.557

@<SCITEGIC>MOL_PROPERTY
Pdih
SciTegic.value.DoubleValue
1.845

@<SCITEGIC>MOL_PROPERTY
Idih
SciTegic.value.DoubleValue
0.000

@<SCITEGIC>MOL_PROPERTY
Tether
SciTegic.value.DoubleValue
0.000

@<TRIPOS>MOLECULE
guest-s10_confgen4.mol2 : confsearch ligand conformer 235
          20          19           1
SMALL
USER_CHARGES
 
@<TRIPOS>ATOM
       1    N1      18.440329   18.535513   24.232787 N.4        1 MOL1        -0.5937
       2    H1      18.181289   18.775683   25.193448 H          1 MOL1         0.3684
       3    H2      18.196909   17.551670   24.089572 H          1 MOL1         0.3684
       4    H3      17.850896   19.091859   23.609492 H          1 MOL1         0.3684
       5    C1      19.901682   18.786671   23.977340 C.3        1 MOL1         0.1270
       6    H4      20.445617   18.166410   24.696667 H          1 MOL1         0.0960
       7    C2      20.268262   20.254434   24.260420 C.3        1 MOL1        -0.2382
       8    H5      21.333876   20.433851   24.071345 H          1 MOL1         0.1009
       9    H6      20.071055   20.503282   25.310311 H          1 MOL1         0.1009
      10    H7      19.687417   20.945478   23.638232 H          1 MOL1         0.1009
      11    C3      20.341649   18.339520   22.562583 C.3        1 MOL1        -0.1392
      12    H8      21.428889   18.465767   22.474790 H          1 MOL1         0.0998
      13    H9      20.155050   17.261940   22.465582 H          1 MOL1         0.0998
      14    C4      19.644205   19.083489   21.394497 C.3        1 MOL1        -0.1302
      15    H10     19.862149   20.158666   21.444565 H          1 MOL1         0.0998
      16    H11     18.554126   18.975001   21.472730 H          1 MOL1         0.0998
      17    C5      20.105980   18.544309   20.023593 C.3        1 MOL1        -0.2317
      18    H12     19.605908   19.081458   19.207220 H          1 MOL1         0.1009
      19    H13     19.869756   17.477382   19.918302 H          1 MOL1         0.1009
      20    H14     21.189032   18.668919   19.894392 H          1 MOL1         0.1009
@<TRIPOS>BOND
    1     1     2    1
    2     1     3    1
    3     1     4    1
    4     1     5    1
    5     5     6    1
    6     5     7    1
    7     7     8    1
    8     7     9    1
    9     7    10    1
   10     5    11    1
   11    11    12    1
   12    11    13    1
   13    11    14    1
   14    14    15    1
   15    14    16    1
   16    14    17    1
   17    17    18    1
   18    17    19    1
   19    17    20    1
@<TRIPOS>SUBSTRUCTURE
       1 MOL1            1 RESIDUE      1      MOL     
@<SCITEGIC>MOL_PROPERTY
VConf Rank
SciTegic.value.IntegerValue
235

@<SCITEGIC>MOL_PROPERTY
Conf_Id
SciTegic.value.IntegerValue
63

@<SCITEGIC>MOL_PROPERTY
Delta U+W
SciTegic.value.DoubleValue
0.420

@<SCITEGIC>MOL_PROPERTY
U+W
SciTegic.value.DoubleValue
-35.856

@<SCITEGIC>MOL_PROPERTY
Grad RMS
SciTegic.value.DoubleValue
0.000000

@<SCITEGIC>MOL_PROPERTY
U
SciTegic.value.DoubleValue
22.625

@<SCITEGIC>MOL_PROPERTY
W
SciTegic.value.DoubleValue
-58.481

@<SCITEGIC>MOL_PROPERTY
W(PB)
SciTegic.value.DoubleValue
-60.400

@<SCITEGIC>MOL_PROPERTY
W(SA)
SciTegic.value.DoubleValue
1.919

@<SCITEGIC>MOL_PROPERTY
Valence
SciTegic.value.DoubleValue
2.404

@<SCITEGIC>MOL_PROPERTY
Coulomb
SciTegic.value.DoubleValue
19.464

@<SCITEGIC>MOL_PROPERTY
VdW
SciTegic.value.DoubleValue
0.757

@<SCITEGIC>MOL_PROPERTY
VdW6
SciTegic.value.DoubleValue
-5.074

@<SCITEGIC>MOL_PROPERTY
VdW12
SciTegic.value.DoubleValue
5.830

@<SCITEGIC>MOL_PROPERTY
Bond
SciTegic.value.DoubleValue
0.172

@<SCITEGIC>MOL_PROPERTY
Angle
SciTegic.value.DoubleValue
1.207

@<SCITEGIC>MOL_PROPERTY
Pdih
SciTegic.value.DoubleValue
1.025

@<SCITEGIC>MOL_PROPERTY
Idih
SciTegic.value.DoubleValue
0.000

@<SCITEGIC>MOL_PROPERTY
Tether
SciTegic.value.DoubleValue
0.000

@<TRIPOS>MOLECULE
guest-s10_confgen4.mol2 : confsearch ligand conformer 236
          20          19           1
SMALL
USER_CHARGES
 
@<TRIPOS>ATOM
       1    N1      18.081064   18.425848   23.273892 N.4        1 MOL1        -0.5937
       2    H1      17.743550   19.279861   22.822647 H          1 MOL1         0.3684
       3    H2      17.968807   18.545907   24.283548 H          1 MOL1         0.3684
       4    H3      17.462563   17.662932   22.985868 H          1 MOL1         0.3684
       5    C1      19.513111   18.143517   22.908231 C.3        1 MOL1         0.1270
       6    H4      19.543087   18.026750   21.820759 H          1 MOL1         0.0960
       7    C2      19.986298   16.826069   23.543792 C.3        1 MOL1        -0.2382
       8    H5      19.340576   15.993595   23.238394 H          1 MOL1         0.1009
       9    H6      19.972112   16.885414   24.639251 H          1 MOL1         0.1009
      10    H7      21.009233   16.586337   23.227955 H          1 MOL1         0.1009
      11    C3      20.461651   19.300032   23.297754 C.3        1 MOL1        -0.1392
      12    H8      20.457958   19.422366   24.389017 H          1 MOL1         0.0998
      13    H9      21.489328   19.026908   23.023508 H          1 MOL1         0.0998
      14    C4      20.114462   20.657016   22.634465 C.3        1 MOL1        -0.1302
      15    H10     20.837979   21.411076   22.974788 H          1 MOL1         0.0998
      16    H11     19.131055   21.006783   22.976721 H          1 MOL1         0.0998
      17    C5      20.139433   20.600456   21.089944 C.3        1 MOL1        -0.2317
      18    H12     21.114254   20.252994   20.723647 H          1 MOL1         0.1009
      19    H13     19.958616   21.596664   20.665747 H          1 MOL1         0.1009
      20    H14     19.366220   19.928610   20.696672 H          1 MOL1         0.1009
@<TRIPOS>BOND
    1     1     2    1
    2     1     3    1
    3     1     4    1
    4     1     5    1
    5     5     6    1
    6     5     7    1
    7     7     8    1
    8     7     9    1
    9     7    10    1
   10     5    11    1
   11    11    12    1
   12    11    13    1
   13    11    14    1
   14    14    15    1
   15    14    16    1
   16    14    17    1
   17    17    18    1
   18    17    19    1
   19    17    20    1
@<TRIPOS>SUBSTRUCTURE
       1 MOL1            1 RESIDUE      1      MOL     
@<SCITEGIC>MOL_PROPERTY
VConf Rank
SciTegic.value.IntegerValue
236

@<SCITEGIC>MOL_PROPERTY
Conf_Id
SciTegic.value.IntegerValue
50

@<SCITEGIC>MOL_PROPERTY
Delta U+W
SciTegic.value.DoubleValue
0.466

@<SCITEGIC>MOL_PROPERTY
U+W
SciTegic.value.DoubleValue
-35.811

@<SCITEGIC>MOL_PROPERTY
Grad RMS
SciTegic.value.DoubleValue
0.000000

@<SCITEGIC>MOL_PROPERTY
U
SciTegic.value.DoubleValue
22.369

@<SCITEGIC>MOL_PROPERTY
W
SciTegic.value.DoubleValue
-58.180

@<SCITEGIC>MOL_PROPERTY
W(PB)
SciTegic.value.DoubleValue
-60.103

@<SCITEGIC>MOL_PROPERTY
W(SA)
SciTegic.value.DoubleValue
1.923

@<SCITEGIC>MOL_PROPERTY
Valence
SciTegic.value.DoubleValue
2.168

@<SCITEGIC>MOL_PROPERTY
Coulomb
SciTegic.value.DoubleValue
19.636

@<SCITEGIC>MOL_PROPERTY
VdW
SciTegic.value.DoubleValue
0.566

@<SCITEGIC>MOL_PROPERTY
VdW6
SciTegic.value.DoubleValue
-5.263

@<SCITEGIC>MOL_PROPERTY
VdW12
SciTegic.value.DoubleValue
5.829

@<SCITEGIC>MOL_PROPERTY
Bond
SciTegic.value.DoubleValue
0.162

@<SCITEGIC>MOL_PROPERTY
Angle
SciTegic.value.DoubleValue
1.066

@<SCITEGIC>MOL_PROPERTY
Pdih
SciTegic.value.DoubleValue
0.939

@<SCITEGIC>MOL_PROPERTY
Idih
SciTegic.value.DoubleValue
0.000

@<SCITEGIC>MOL_PROPERTY
Tether
SciTegic.value.DoubleValue
0.000

@<TRIPOS>MOLECULE
guest-s10_confgen4.mol2 : confsearch ligand conformer 237
          20          19           1
SMALL
USER_CHARGES
 
@<TRIPOS>ATOM
       1    N1      21.230541   20.259614   21.707645 N.4        1 MOL1        -0.5937
       2    H1      22.008277   19.638470   21.468262 H          1 MOL1         0.3684
       3    H2      21.569883   20.919210   22.412380 H          1 MOL1         0.3684
       4    H3      21.006188   20.800302   20.867968 H          1 MOL1         0.3684
       5    C1      20.036296   19.488666   22.201607 C.3        1 MOL1         0.1270
       6    H4      19.751246   18.814317   21.388120 H          1 MOL1         0.0960
       7    C2      18.865929   20.450720   22.478478 C.3        1 MOL1        -0.2382
       8    H5      19.127425   21.177206   23.257903 H          1 MOL1         0.1009
       9    H6      17.970818   19.912068   22.807752 H          1 MOL1         0.1009
      10    H7      18.601075   21.007828   21.571499 H          1 MOL1         0.1009
      11    C3      20.376743   18.628476   23.443541 C.3        1 MOL1        -0.1392
      12    H8      21.466988   18.522044   23.519108 H          1 MOL1         0.0998
      13    H9      20.065721   19.142193   24.362983 H          1 MOL1         0.0998
      14    C4      19.775947   17.200516   23.401650 C.3        1 MOL1        -0.1302
      15    H10     20.133246   16.643739   24.279300 H          1 MOL1         0.0998
      16    H11     20.162231   16.665111   22.522897 H          1 MOL1         0.0998
      17    C5      18.231705   17.164579   23.385514 C.3        1 MOL1        -0.2317
      18    H12     17.813249   17.728379   24.229345 H          1 MOL1         0.1009
      19    H13     17.871539   16.130482   23.462760 H          1 MOL1         0.1009
      20    H14     17.830632   17.582124   22.453619 H          1 MOL1         0.1009
@<TRIPOS>BOND
    1     1     2    1
    2     1     3    1
    3     1     4    1
    4     1     5    1
    5     5     6    1
    6     5     7    1
    7     7     8    1
    8     7     9    1
    9     7    10    1
   10     5    11    1
   11    11    12    1
   12    11    13    1
   13    11    14    1
   14    14    15    1
   15    14    16    1
   16    14    17    1
   17    17    18    1
   18    17    19    1
   19    17    20    1
@<TRIPOS>SUBSTRUCTURE
       1 MOL1            1 RESIDUE      1      MOL     
@<SCITEGIC>MOL_PROPERTY
VConf Rank
SciTegic.value.IntegerValue
237

@<SCITEGIC>MOL_PROPERTY
Conf_Id
SciTegic.value.IntegerValue
3

@<SCITEGIC>MOL_PROPERTY
Delta U+W
SciTegic.value.DoubleValue
3.093

@<SCITEGIC>MOL_PROPERTY
U+W
SciTegic.value.DoubleValue
-33.184

@<SCITEGIC>MOL_PROPERTY
Grad RMS
SciTegic.value.DoubleValue
0.000000

@<SCITEGIC>MOL_PROPERTY
U
SciTegic.value.DoubleValue
25.256

@<SCITEGIC>MOL_PROPERTY
W
SciTegic.value.DoubleValue
-58.439

@<SCITEGIC>MOL_PROPERTY
W(PB)
SciTegic.value.DoubleValue
-60.337

@<SCITEGIC>MOL_PROPERTY
W(SA)
SciTegic.value.DoubleValue
1.898

@<SCITEGIC>MOL_PROPERTY
Valence
SciTegic.value.DoubleValue
4.963

@<SCITEGIC>MOL_PROPERTY
Coulomb
SciTegic.value.DoubleValue
19.511

@<SCITEGIC>MOL_PROPERTY
VdW
SciTegic.value.DoubleValue
0.782

@<SCITEGIC>MOL_PROPERTY
VdW6
SciTegic.value.DoubleValue
-5.429

@<SCITEGIC>MOL_PROPERTY
VdW12
SciTegic.value.DoubleValue
6.211

@<SCITEGIC>MOL_PROPERTY
Bond
SciTegic.value.DoubleValue
0.174

@<SCITEGIC>MOL_PROPERTY
Angle
SciTegic.value.DoubleValue
1.377

@<SCITEGIC>MOL_PROPERTY
Pdih
SciTegic.value.DoubleValue
3.412

@<SCITEGIC>MOL_PROPERTY
Idih
SciTegic.value.DoubleValue
0.000

@<SCITEGIC>MOL_PROPERTY
Tether
SciTegic.value.DoubleValue
0.000

@<TRIPOS>MOLECULE
guest-s10_confgen4.mol2 : confsearch ligand conformer 238
          20          19           1
SMALL
USER_CHARGES
 
@<TRIPOS>ATOM
       1    N1      17.715737   18.647000   21.635324 N.4        1 MOL1        -0.5937
       2    H1      16.862673   18.297096   22.079716 H          1 MOL1         0.3684
       3    H2      17.964600   17.984895   20.895381 H          1 MOL1         0.3684
       4    H3      17.481511   19.535437   21.185322 H          1 MOL1         0.3684
       5    C1      18.829703   18.809587   22.632834 C.3        1 MOL1         0.1270
       6    H4      19.005284   17.817979   23.060596 H          1 MOL1         0.0960
       7    C2      18.399444   19.758667   23.766071 C.3        1 MOL1        -0.2382
       8    H5      19.143086   19.779629   24.571113 H          1 MOL1         0.1009
       9    H6      17.451745   19.428102   24.208481 H          1 MOL1         0.1009
      10    H7      18.263665   20.782610   23.396485 H          1 MOL1         0.1009
      11    C3      20.133439   19.279805   21.944650 C.3        1 MOL1        -0.1392
      12    H8      20.344276   18.612782   21.098390 H          1 MOL1         0.0998
      13    H9      19.977458   20.277772   21.513991 H          1 MOL1         0.0998
      14    C4      21.382909   19.313776   22.861586 C.3        1 MOL1        -0.1302
      15    H10     21.259663   20.071883   23.646670 H          1 MOL1         0.0998
      16    H11     22.247882   19.637154   22.265693 H          1 MOL1         0.0998
      17    C5      21.701002   17.943993   23.503195 C.3        1 MOL1        -0.2317
      18    H12     21.825932   17.168216   22.736566 H          1 MOL1         0.1009
      19    H13     20.905372   17.625044   24.188256 H          1 MOL1         0.1009
      20    H14     22.632926   17.997039   24.080881 H          1 MOL1         0.1009
@<TRIPOS>BOND
    1     1     2    1
    2     1     3    1
    3     1     4    1
    4     1     5    1
    5     5     6    1
    6     5     7    1
    7     7     8    1
    8     7     9    1
    9     7    10    1
   10     5    11    1
   11    11    12    1
   12    11    13    1
   13    11    14    1
   14    14    15    1
   15    14    16    1
   16    14    17    1
   17    17    18    1
   18    17    19    1
   19    17    20    1
@<TRIPOS>SUBSTRUCTURE
       1 MOL1            1 RESIDUE      1      MOL     
@<SCITEGIC>MOL_PROPERTY
VConf Rank
SciTegic.value.IntegerValue
238

@<SCITEGIC>MOL_PROPERTY
Conf_Id
SciTegic.value.IntegerValue
64

@<SCITEGIC>MOL_PROPERTY
Delta U+W
SciTegic.value.DoubleValue
0.544

@<SCITEGIC>MOL_PROPERTY
U+W
SciTegic.value.DoubleValue
-35.732

@<SCITEGIC>MOL_PROPERTY
Grad RMS
SciTegic.value.DoubleValue
0.000000

@<SCITEGIC>MOL_PROPERTY
U
SciTegic.value.DoubleValue
22.800

@<SCITEGIC>MOL_PROPERTY
W
SciTegic.value.DoubleValue
-58.532

@<SCITEGIC>MOL_PROPERTY
W(PB)
SciTegic.value.DoubleValue
-60.437

@<SCITEGIC>MOL_PROPERTY
W(SA)
SciTegic.value.DoubleValue
1.905

@<SCITEGIC>MOL_PROPERTY
Valence
SciTegic.value.DoubleValue
2.662

@<SCITEGIC>MOL_PROPERTY
Coulomb
SciTegic.value.DoubleValue
19.485

@<SCITEGIC>MOL_PROPERTY
VdW
SciTegic.value.DoubleValue
0.653

@<SCITEGIC>MOL_PROPERTY
VdW6
SciTegic.value.DoubleValue
-5.460

@<SCITEGIC>MOL_PROPERTY
VdW12
SciTegic.value.DoubleValue
6.113

@<SCITEGIC>MOL_PROPERTY
Bond
SciTegic.value.DoubleValue
0.174

@<SCITEGIC>MOL_PROPERTY
Angle
SciTegic.value.DoubleValue
1.378

@<SCITEGIC>MOL_PROPERTY
Pdih
SciTegic.value.DoubleValue
1.109

@<SCITEGIC>MOL_PROPERTY
Idih
SciTegic.value.DoubleValue
0.000

@<SCITEGIC>MOL_PROPERTY
Tether
SciTegic.value.DoubleValue
0.000

@<TRIPOS>MOLECULE
guest-s10_confgen4.mol2 : confsearch ligand conformer 239
          20          19           1
SMALL
USER_CHARGES
 
@<TRIPOS>ATOM
       1    N1      21.466689   17.660608   22.913773 N.4        1 MOL1        -0.5937
       2    H1      20.711367   16.982948   22.789121 H          1 MOL1         0.3684
       3    H2      22.025205   17.351974   23.714035 H          1 MOL1         0.3684
       4    H3      22.066822   17.607451   22.086322 H          1 MOL1         0.3684
       5    C1      20.930536   19.051516   23.120525 C.3        1 MOL1         0.1270
       6    H4      21.807078   19.693252   23.253987 H          1 MOL1         0.0960
       7    C2      20.101039   19.132789   24.412444 C.3        1 MOL1        -0.2382
       8    H5      19.275393   18.411699   24.405517 H          1 MOL1         0.1009
       9    H6      19.685544   20.138976   24.547682 H          1 MOL1         0.1009
      10    H7      20.728424   18.912187   25.284620 H          1 MOL1         0.1009
      11    C3      20.168810   19.580196   21.879070 C.3        1 MOL1        -0.1392
      12    H8      19.952952   20.648494   22.011886 H          1 MOL1         0.0998
      13    H9      20.857731   19.529672   21.025655 H          1 MOL1         0.0998
      14    C4      18.866192   18.822876   21.498440 C.3        1 MOL1        -0.1302
      15    H10     18.934219   17.762608   21.775179 H          1 MOL1         0.0998
      16    H11     18.763085   18.840217   20.404341 H          1 MOL1         0.0998
      17    C5      17.587686   19.449831   22.102671 C.3        1 MOL1        -0.2317
      18    H12     17.594505   19.428919   23.197885 H          1 MOL1         0.1009
      19    H13     16.697226   18.902407   21.767449 H          1 MOL1         0.1009
      20    H14     17.474112   20.494322   21.784578 H          1 MOL1         0.1009
@<TRIPOS>BOND
    1     1     2    1
    2     1     3    1
    3     1     4    1
    4     1     5    1
    5     5     6    1
    6     5     7    1
    7     7     8    1
    8     7     9    1
    9     7    10    1
   10     5    11    1
   11    11    12    1
   12    11    13    1
   13    11    14    1
   14    14    15    1
   15    14    16    1
   16    14    17    1
   17    17    18    1
   18    17    19    1
   19    17    20    1
@<TRIPOS>SUBSTRUCTURE
       1 MOL1            1 RESIDUE      1      MOL     
@<SCITEGIC>MOL_PROPERTY
VConf Rank
SciTegic.value.IntegerValue
239

@<SCITEGIC>MOL_PROPERTY
Conf_Id
SciTegic.value.IntegerValue
35

@<SCITEGIC>MOL_PROPERTY
Delta U+W
SciTegic.value.DoubleValue
3.004

@<SCITEGIC>MOL_PROPERTY
U+W
SciTegic.value.DoubleValue
-33.272

@<SCITEGIC>MOL_PROPERTY
Grad RMS
SciTegic.value.DoubleValue
0.000000

@<SCITEGIC>MOL_PROPERTY
U
SciTegic.value.DoubleValue
25.367

@<SCITEGIC>MOL_PROPERTY
W
SciTegic.value.DoubleValue
-58.639

@<SCITEGIC>MOL_PROPERTY
W(PB)
SciTegic.value.DoubleValue
-60.512

@<SCITEGIC>MOL_PROPERTY
W(SA)
SciTegic.value.DoubleValue
1.873

@<SCITEGIC>MOL_PROPERTY
Valence
SciTegic.value.DoubleValue
4.943

@<SCITEGIC>MOL_PROPERTY
Coulomb
SciTegic.value.DoubleValue
19.661

@<SCITEGIC>MOL_PROPERTY
VdW
SciTegic.value.DoubleValue
0.764

@<SCITEGIC>MOL_PROPERTY
VdW6
SciTegic.value.DoubleValue
-5.871

@<SCITEGIC>MOL_PROPERTY
VdW12
SciTegic.value.DoubleValue
6.636

@<SCITEGIC>MOL_PROPERTY
Bond
SciTegic.value.DoubleValue
0.230

@<SCITEGIC>MOL_PROPERTY
Angle
SciTegic.value.DoubleValue
1.857

@<SCITEGIC>MOL_PROPERTY
Pdih
SciTegic.value.DoubleValue
2.855

@<SCITEGIC>MOL_PROPERTY
Idih
SciTegic.value.DoubleValue
0.000

@<SCITEGIC>MOL_PROPERTY
Tether
SciTegic.value.DoubleValue
0.000

@<TRIPOS>MOLECULE
guest-s10_confgen4.mol2 : confsearch ligand conformer 240
          20          19           1
SMALL
USER_CHARGES
 
@<TRIPOS>ATOM
       1    N1      19.033233   18.171720   21.303012 N.4        1 MOL1        -0.5937
       2    H1      18.173789   17.656260   21.095024 H          1 MOL1         0.3684
       3    H2      19.698679   17.970083   20.551942 H          1 MOL1         0.3684
       4    H3      18.815026   19.168932   21.258841 H          1 MOL1         0.3684
       5    C1      19.590672   17.795455   22.648430 C.3        1 MOL1         0.1270
       6    H4      19.812130   16.725729   22.580824 H          1 MOL1         0.0960
       7    C2      18.542924   17.976855   23.761008 C.3        1 MOL1        -0.2382
       8    H5      18.198969   19.015858   23.827822 H          1 MOL1         0.1009
       9    H6      18.956066   17.687468   24.735168 H          1 MOL1         0.1009
      10    H7      17.666800   17.345140   23.570456 H          1 MOL1         0.1009
      11    C3      20.927428   18.510173   22.973351 C.3        1 MOL1        -0.1392
      12    H8      21.407884   17.959682   23.792903 H          1 MOL1         0.0998
      13    H9      21.604697   18.404243   22.115853 H          1 MOL1         0.0998
      14    C4      20.853652   20.007075   23.386192 C.3        1 MOL1        -0.1302
      15    H10     21.872429   20.343954   23.623742 H          1 MOL1         0.0998
      16    H11     20.282458   20.117588   24.317940 H          1 MOL1         0.0998
      17    C5      20.272150   20.946670   22.305479 C.3        1 MOL1        -0.2317
      18    H12     20.768388   20.796151   21.337888 H          1 MOL1         0.1009
      19    H13     20.419389   21.995344   22.594915 H          1 MOL1         0.1009
      20    H14     19.193847   20.797165   22.178280 H          1 MOL1         0.1009
@<TRIPOS>BOND
    1     1     2    1
    2     1     3    1
    3     1     4    1
    4     1     5    1
    5     5     6    1
    6     5     7    1
    7     7     8    1
    8     7     9    1
    9     7    10    1
   10     5    11    1
   11    11    12    1
   12    11    13    1
   13    11    14    1
   14    14    15    1
   15    14    16    1
   16    14    17    1
   17    17    18    1
   18    17    19    1
   19    17    20    1
@<TRIPOS>SUBSTRUCTURE
       1 MOL1            1 RESIDUE      1      MOL     
@<SCITEGIC>MOL_PROPERTY
VConf Rank
SciTegic.value.IntegerValue
240

@<SCITEGIC>MOL_PROPERTY
Conf_Id
SciTegic.value.IntegerValue
55

@<SCITEGIC>MOL_PROPERTY
Delta U+W
SciTegic.value.DoubleValue
2.767

@<SCITEGIC>MOL_PROPERTY
U+W
SciTegic.value.DoubleValue
-33.509

@<SCITEGIC>MOL_PROPERTY
Grad RMS
SciTegic.value.DoubleValue
0.000000

@<SCITEGIC>MOL_PROPERTY
U
SciTegic.value.DoubleValue
24.552

@<SCITEGIC>MOL_PROPERTY
W
SciTegic.value.DoubleValue
-58.061

@<SCITEGIC>MOL_PROPERTY
W(PB)
SciTegic.value.DoubleValue
-59.930

@<SCITEGIC>MOL_PROPERTY
W(SA)
SciTegic.value.DoubleValue
1.869

@<SCITEGIC>MOL_PROPERTY
Valence
SciTegic.value.DoubleValue
3.726

@<SCITEGIC>MOL_PROPERTY
Coulomb
SciTegic.value.DoubleValue
20.219

@<SCITEGIC>MOL_PROPERTY
VdW
SciTegic.value.DoubleValue
0.606

@<SCITEGIC>MOL_PROPERTY
VdW6
SciTegic.value.DoubleValue
-6.395

@<SCITEGIC>MOL_PROPERTY
VdW12
SciTegic.value.DoubleValue
7.001

@<SCITEGIC>MOL_PROPERTY
Bond
SciTegic.value.DoubleValue
0.241

@<SCITEGIC>MOL_PROPERTY
Angle
SciTegic.value.DoubleValue
2.098

@<SCITEGIC>MOL_PROPERTY
Pdih
SciTegic.value.DoubleValue
1.387

@<SCITEGIC>MOL_PROPERTY
Idih
SciTegic.value.DoubleValue
0.000

@<SCITEGIC>MOL_PROPERTY
Tether
SciTegic.value.DoubleValue
0.000

@<TRIPOS>MOLECULE
guest-s10_confgen4.mol2 : confsearch ligand conformer 241
          20          19           1
SMALL
USER_CHARGES
 
@<TRIPOS>ATOM
       1    N1      20.313971   17.123516   22.261521 N.4        1 MOL1        -0.5937
       2    H1      19.391808   16.682781   22.305258 H          1 MOL1         0.3684
       3    H2      21.010201   16.391339   22.425338 H          1 MOL1         0.3684
       4    H3      20.448240   17.461731   21.305402 H          1 MOL1         0.3684
       5    C1      20.440518   18.238279   23.264691 C.3        1 MOL1         0.1270
       6    H4      21.446348   18.653813   23.148390 H          1 MOL1         0.0960
       7    C2      20.307478   17.694009   24.696487 C.3        1 MOL1        -0.2382
       8    H5      21.055365   16.914464   24.886852 H          1 MOL1         0.1009
       9    H6      19.313178   17.262592   24.866897 H          1 MOL1         0.1009
      10    H7      20.464430   18.491643   25.433227 H          1 MOL1         0.1009
      11    C3      19.419172   19.371933   23.024209 C.3        1 MOL1        -0.1392
      12    H8      18.398933   18.975294   23.111983 H          1 MOL1         0.0998
      13    H9      19.531621   20.123895   23.816659 H          1 MOL1         0.0998
      14    C4      19.594916   20.064329   21.651176 C.3        1 MOL1        -0.1302
      15    H10     19.431212   19.343648   20.838620 H          1 MOL1         0.0998
      16    H11     20.626780   20.429352   21.549899 H          1 MOL1         0.0998
      17    C5      18.615922   21.245540   21.479092 C.3        1 MOL1        -0.2317
      18    H12     17.573536   20.907399   21.545028 H          1 MOL1         0.1009
      19    H13     18.753282   21.723555   20.500460 H          1 MOL1         0.1009
      20    H14     18.777095   22.008814   22.251536 H          1 MOL1         0.1009
@<TRIPOS>BOND
    1     1     2    1
    2     1     3    1
    3     1     4    1
    4     1     5    1
    5     5     6    1
    6     5     7    1
    7     7     8    1
    8     7     9    1
    9     7    10    1
   10     5    11    1
   11    11    12    1
   12    11    13    1
   13    11    14    1
   14    14    15    1
   15    14    16    1
   16    14    17    1
   17    17    18    1
   18    17    19    1
   19    17    20    1
@<TRIPOS>SUBSTRUCTURE
       1 MOL1            1 RESIDUE      1      MOL     
@<SCITEGIC>MOL_PROPERTY
VConf Rank
SciTegic.value.IntegerValue
241

@<SCITEGIC>MOL_PROPERTY
Conf_Id
SciTegic.value.IntegerValue
74

@<SCITEGIC>MOL_PROPERTY
Delta U+W
SciTegic.value.DoubleValue
0.000

@<SCITEGIC>MOL_PROPERTY
U+W
SciTegic.value.DoubleValue
-36.276

@<SCITEGIC>MOL_PROPERTY
Grad RMS
SciTegic.value.DoubleValue
0.000000

@<SCITEGIC>MOL_PROPERTY
U
SciTegic.value.DoubleValue
22.080

@<SCITEGIC>MOL_PROPERTY
W
SciTegic.value.DoubleValue
-58.356

@<SCITEGIC>MOL_PROPERTY
W(PB)
SciTegic.value.DoubleValue
-60.289

@<SCITEGIC>MOL_PROPERTY
W(SA)
SciTegic.value.DoubleValue
1.932

@<SCITEGIC>MOL_PROPERTY
Valence
SciTegic.value.DoubleValue
1.885

@<SCITEGIC>MOL_PROPERTY
Coulomb
SciTegic.value.DoubleValue
19.559

@<SCITEGIC>MOL_PROPERTY
VdW
SciTegic.value.DoubleValue
0.637

@<SCITEGIC>MOL_PROPERTY
VdW6
SciTegic.value.DoubleValue
-4.482

@<SCITEGIC>MOL_PROPERTY
VdW12
SciTegic.value.DoubleValue
5.119

@<SCITEGIC>MOL_PROPERTY
Bond
SciTegic.value.DoubleValue
0.136

@<SCITEGIC>MOL_PROPERTY
Angle
SciTegic.value.DoubleValue
0.867

@<SCITEGIC>MOL_PROPERTY
Pdih
SciTegic.value.DoubleValue
0.882

@<SCITEGIC>MOL_PROPERTY
Idih
SciTegic.value.DoubleValue
0.000

@<SCITEGIC>MOL_PROPERTY
Tether
SciTegic.value.DoubleValue
0.000

@<TRIPOS>MOLECULE
guest-s10_confgen4.mol2 : confsearch ligand conformer 242
          20          19           1
SMALL
USER_CHARGES
 
@<TRIPOS>ATOM
       1    N1      17.510240   19.548344   23.328696 N.4        1 MOL1        -0.5937
       2    H1      17.150221   18.671813   23.715914 H          1 MOL1         0.3684
       3    H2      17.126146   19.647228   22.385606 H          1 MOL1         0.3684
       4    H3      17.125611   20.309258   23.895043 H          1 MOL1         0.3684
       5    C1      19.014118   19.575144   23.318630 C.3        1 MOL1         0.1270
       6    H4      19.331161   19.467060   24.360583 H          1 MOL1         0.0960
       7    C2      19.520411   20.931601   22.794709 C.3        1 MOL1        -0.2382
       8    H5      19.058018   21.757075   23.349693 H          1 MOL1         0.1009
       9    H6      19.281705   21.061038   21.731767 H          1 MOL1         0.1009
      10    H7      20.605262   21.027468   22.917711 H          1 MOL1         0.1009
      11    C3      19.589325   18.387326   22.512583 C.3        1 MOL1        -0.1392
      12    H8      19.108514   17.464457   22.863006 H          1 MOL1         0.0998
      13    H9      19.320507   18.494550   21.453296 H          1 MOL1         0.0998
      14    C4      21.123033   18.224064   22.647664 C.3        1 MOL1        -0.1302
      15    H10     21.398937   18.180068   23.710684 H          1 MOL1         0.0998
      16    H11     21.638184   19.094713   22.220474 H          1 MOL1         0.0998
      17    C5      21.625149   16.949409   21.935753 C.3        1 MOL1        -0.2317
      18    H12     21.165008   16.049377   22.364064 H          1 MOL1         0.1009
      19    H13     22.713716   16.851395   22.038229 H          1 MOL1         0.1009
      20    H14     21.389192   16.976849   20.863917 H          1 MOL1         0.1009
@<TRIPOS>BOND
    1     1     2    1
    2     1     3    1
    3     1     4    1
    4     1     5    1
    5     5     6    1
    6     5     7    1
    7     7     8    1
    8     7     9    1
    9     7    10    1
   10     5    11    1
   11    11    12    1
   12    11    13    1
   13    11    14    1
   14    14    15    1
   15    14    16    1
   16    14    17    1
   17    17    18    1
   18    17    19    1
   19    17    20    1
@<TRIPOS>SUBSTRUCTURE
       1 MOL1            1 RESIDUE      1      MOL     
@<SCITEGIC>MOL_PROPERTY
VConf Rank
SciTegic.value.IntegerValue
242

@<SCITEGIC>MOL_PROPERTY
Conf_Id
SciTegic.value.IntegerValue
80

@<SCITEGIC>MOL_PROPERTY
Delta U+W
SciTegic.value.DoubleValue
0.460

@<SCITEGIC>MOL_PROPERTY
U+W
SciTegic.value.DoubleValue
-35.817

@<SCITEGIC>MOL_PROPERTY
Grad RMS
SciTegic.value.DoubleValue
0.000000

@<SCITEGIC>MOL_PROPERTY
U
SciTegic.value.DoubleValue
22.495

@<SCITEGIC>MOL_PROPERTY
W
SciTegic.value.DoubleValue
-58.311

@<SCITEGIC>MOL_PROPERTY
W(PB)
SciTegic.value.DoubleValue
-60.259

@<SCITEGIC>MOL_PROPERTY
W(SA)
SciTegic.value.DoubleValue
1.948

@<SCITEGIC>MOL_PROPERTY
Valence
SciTegic.value.DoubleValue
2.419

@<SCITEGIC>MOL_PROPERTY
Coulomb
SciTegic.value.DoubleValue
19.304

@<SCITEGIC>MOL_PROPERTY
VdW
SciTegic.value.DoubleValue
0.772

@<SCITEGIC>MOL_PROPERTY
VdW6
SciTegic.value.DoubleValue
-4.635

@<SCITEGIC>MOL_PROPERTY
VdW12
SciTegic.value.DoubleValue
5.407

@<SCITEGIC>MOL_PROPERTY
Bond
SciTegic.value.DoubleValue
0.149

@<SCITEGIC>MOL_PROPERTY
Angle
SciTegic.value.DoubleValue
1.142

@<SCITEGIC>MOL_PROPERTY
Pdih
SciTegic.value.DoubleValue
1.129

@<SCITEGIC>MOL_PROPERTY
Idih
SciTegic.value.DoubleValue
0.000

@<SCITEGIC>MOL_PROPERTY
Tether
SciTegic.value.DoubleValue
0.000

@<TRIPOS>MOLECULE
guest-s10_confgen4.mol2 : confsearch ligand conformer 243
          20          19           1
SMALL
USER_CHARGES
 
@<TRIPOS>ATOM
       1    N1      19.947044   18.305492   25.050672 N.4        1 MOL1        -0.5937
       2    H1      20.719059   18.809798   25.495059 H          1 MOL1         0.3684
       3    H2      20.265723   17.349047   24.876468 H          1 MOL1         0.3684
       4    H3      19.187087   18.253069   25.734289 H          1 MOL1         0.3684
       5    C1      19.500725   18.978507   23.781578 C.3        1 MOL1         0.1270
       6    H4      19.175271   19.983902   24.066286 H          1 MOL1         0.0960
       7    C2      18.293515   18.237234   23.182065 C.3        1 MOL1        -0.2382
       8    H5      17.518551   18.080345   23.942302 H          1 MOL1         0.1009
       9    H6      18.585086   17.256992   22.785121 H          1 MOL1         0.1009
      10    H7      17.837017   18.819753   22.373803 H          1 MOL1         0.1009
      11    C3      20.676456   19.118997   22.783954 C.3        1 MOL1        -0.1392
      12    H8      21.496946   19.623696   23.310991 H          1 MOL1         0.0998
      13    H9      21.062519   18.128078   22.510522 H          1 MOL1         0.0998
      14    C4      20.358428   19.942078   21.507616 C.3        1 MOL1        -0.1302
      15    H10     21.247902   20.529163   21.238757 H          1 MOL1         0.0998
      16    H11     19.565391   20.674777   21.713065 H          1 MOL1         0.0998
      17    C5      19.980835   19.066535   20.289469 C.3        1 MOL1        -0.2317
      18    H12     20.799235   18.382517   20.029745 H          1 MOL1         0.1009
      19    H13     19.782337   19.695029   19.411644 H          1 MOL1         0.1009
      20    H14     19.084709   18.464049   20.475243 H          1 MOL1         0.1009
@<TRIPOS>BOND
    1     1     2    1
    2     1     3    1
    3     1     4    1
    4     1     5    1
    5     5     6    1
    6     5     7    1
    7     7     8    1
    8     7     9    1
    9     7    10    1
   10     5    11    1
   11    11    12    1
   12    11    13    1
   13    11    14    1
   14    14    15    1
   15    14    16    1
   16    14    17    1
   17    17    18    1
   18    17    19    1
   19    17    20    1
@<TRIPOS>SUBSTRUCTURE
       1 MOL1            1 RESIDUE      1      MOL     
@<SCITEGIC>MOL_PROPERTY
VConf Rank
SciTegic.value.IntegerValue
243

@<SCITEGIC>MOL_PROPERTY
Conf_Id
SciTegic.value.IntegerValue
52

@<SCITEGIC>MOL_PROPERTY
Delta U+W
SciTegic.value.DoubleValue
2.995

@<SCITEGIC>MOL_PROPERTY
U+W
SciTegic.value.DoubleValue
-33.282

@<SCITEGIC>MOL_PROPERTY
Grad RMS
SciTegic.value.DoubleValue
0.000000

@<SCITEGIC>MOL_PROPERTY
U
SciTegic.value.DoubleValue
25.224

@<SCITEGIC>MOL_PROPERTY
W
SciTegic.value.DoubleValue
-58.506

@<SCITEGIC>MOL_PROPERTY
W(PB)
SciTegic.value.DoubleValue
-60.411

@<SCITEGIC>MOL_PROPERTY
W(SA)
SciTegic.value.DoubleValue
1.905

@<SCITEGIC>MOL_PROPERTY
Valence
SciTegic.value.DoubleValue
4.945

@<SCITEGIC>MOL_PROPERTY
Coulomb
SciTegic.value.DoubleValue
19.467

@<SCITEGIC>MOL_PROPERTY
VdW
SciTegic.value.DoubleValue
0.813

@<SCITEGIC>MOL_PROPERTY
VdW6
SciTegic.value.DoubleValue
-5.458

@<SCITEGIC>MOL_PROPERTY
VdW12
SciTegic.value.DoubleValue
6.270

@<SCITEGIC>MOL_PROPERTY
Bond
SciTegic.value.DoubleValue
0.200

@<SCITEGIC>MOL_PROPERTY
Angle
SciTegic.value.DoubleValue
1.675

@<SCITEGIC>MOL_PROPERTY
Pdih
SciTegic.value.DoubleValue
3.070

@<SCITEGIC>MOL_PROPERTY
Idih
SciTegic.value.DoubleValue
0.000

@<SCITEGIC>MOL_PROPERTY
Tether
SciTegic.value.DoubleValue
0.000

@<TRIPOS>MOLECULE
guest-s10_confgen4.mol2 : confsearch ligand conformer 244
          20          19           1
SMALL
USER_CHARGES
 
@<TRIPOS>ATOM
       1    N1      20.738788   20.032403   23.532656 N.4        1 MOL1        -0.5937
       2    H1      20.194967   20.892387   23.637832 H          1 MOL1         0.3684
       3    H2      21.726895   20.281426   23.628990 H          1 MOL1         0.3684
       4    H3      20.496821   19.419943   24.314532 H          1 MOL1         0.3684
       5    C1      20.462789   19.366984   22.211940 C.3        1 MOL1         0.1270
       6    H4      21.111755   18.487773   22.152240 H          1 MOL1         0.0960
       7    C2      20.834166   20.317712   21.061307 C.3        1 MOL1        -0.2382
       8    H5      20.199677   21.212847   21.065301 H          1 MOL1         0.1009
       9    H6      20.717975   19.820652   20.090186 H          1 MOL1         0.1009
      10    H7      21.879621   20.639269   21.144726 H          1 MOL1         0.1009
      11    C3      18.994915   18.898017   22.071754 C.3        1 MOL1        -0.1392
      12    H8      18.313798   19.702838   22.378214 H          1 MOL1         0.0998
      13    H9      18.785449   18.716681   21.009057 H          1 MOL1         0.0998
      14    C4      18.654321   17.590573   22.834114 C.3        1 MOL1        -0.1302
      15    H10     19.309045   16.778633   22.487523 H          1 MOL1         0.0998
      16    H11     17.632332   17.291890   22.561438 H          1 MOL1         0.0998
      17    C5      18.735417   17.696808   24.374031 C.3        1 MOL1        -0.2317
      18    H12     18.290769   16.807214   24.839002 H          1 MOL1         0.1009
      19    H13     18.187376   18.573403   24.743555 H          1 MOL1         0.1009
      20    H14     19.773517   17.752816   24.721378 H          1 MOL1         0.1009
@<TRIPOS>BOND
    1     1     2    1
    2     1     3    1
    3     1     4    1
    4     1     5    1
    5     5     6    1
    6     5     7    1
    7     7     8    1
    8     7     9    1
    9     7    10    1
   10     5    11    1
   11    11    12    1
   12    11    13    1
   13    11    14    1
   14    14    15    1
   15    14    16    1
   16    14    17    1
   17    17    18    1
   18    17    19    1
   19    17    20    1
@<TRIPOS>SUBSTRUCTURE
       1 MOL1            1 RESIDUE      1      MOL     
@<SCITEGIC>MOL_PROPERTY
VConf Rank
SciTegic.value.IntegerValue
244

@<SCITEGIC>MOL_PROPERTY
Conf_Id
SciTegic.value.IntegerValue
54

@<SCITEGIC>MOL_PROPERTY
Delta U+W
SciTegic.value.DoubleValue
2.752

@<SCITEGIC>MOL_PROPERTY
U+W
SciTegic.value.DoubleValue
-33.525

@<SCITEGIC>MOL_PROPERTY
Grad RMS
SciTegic.value.DoubleValue
0.000000

@<SCITEGIC>MOL_PROPERTY
U
SciTegic.value.DoubleValue
24.337

@<SCITEGIC>MOL_PROPERTY
W
SciTegic.value.DoubleValue
-57.862

@<SCITEGIC>MOL_PROPERTY
W(PB)
SciTegic.value.DoubleValue
-59.764

@<SCITEGIC>MOL_PROPERTY
W(SA)
SciTegic.value.DoubleValue
1.901

@<SCITEGIC>MOL_PROPERTY
Valence
SciTegic.value.DoubleValue
3.593

@<SCITEGIC>MOL_PROPERTY
Coulomb
SciTegic.value.DoubleValue
20.067

@<SCITEGIC>MOL_PROPERTY
VdW
SciTegic.value.DoubleValue
0.677

@<SCITEGIC>MOL_PROPERTY
VdW6
SciTegic.value.DoubleValue
-5.466

@<SCITEGIC>MOL_PROPERTY
VdW12
SciTegic.value.DoubleValue
6.144

@<SCITEGIC>MOL_PROPERTY
Bond
SciTegic.value.DoubleValue
0.191

@<SCITEGIC>MOL_PROPERTY
Angle
SciTegic.value.DoubleValue
1.557

@<SCITEGIC>MOL_PROPERTY
Pdih
SciTegic.value.DoubleValue
1.845

@<SCITEGIC>MOL_PROPERTY
Idih
SciTegic.value.DoubleValue
0.000

@<SCITEGIC>MOL_PROPERTY
Tether
SciTegic.value.DoubleValue
0.000

@<TRIPOS>MOLECULE
guest-s10_confgen4.mol2 : confsearch ligand conformer 245
          20          19           1
SMALL
USER_CHARGES
 
@<TRIPOS>ATOM
       1    N1      19.094483   18.383044   24.568281 N.4        1 MOL1        -0.5937
       2    H1      18.394057   18.563694   25.292451 H          1 MOL1         0.3684
       3    H2      19.939655   18.049647   25.039708 H          1 MOL1         0.3684
       4    H3      18.743649   17.617434   23.988449 H          1 MOL1         0.3684
       5    C1      19.367964   19.614008   23.747415 C.3        1 MOL1         0.1270
       6    H4      19.719163   20.375195   24.451173 H          1 MOL1         0.0960
       7    C2      18.077037   20.143591   23.097883 C.3        1 MOL1        -0.2382
       8    H5      18.280904   21.039831   22.498997 H          1 MOL1         0.1009
       9    H6      17.345291   20.418141   23.867465 H          1 MOL1         0.1009
      10    H7      17.612381   19.393451   22.447171 H          1 MOL1         0.1009
      11    C3      20.494645   19.395962   22.709099 C.3        1 MOL1        -0.1392
      12    H8      20.704551   20.351394   22.210276 H          1 MOL1         0.0998
      13    H9      21.414215   19.128407   23.245954 H          1 MOL1         0.0998
      14    C4      20.197841   18.314220   21.638546 C.3        1 MOL1        -0.1302
      15    H10     19.309285   18.590389   21.055270 H          1 MOL1         0.0998
      16    H11     19.976233   17.353160   22.121677 H          1 MOL1         0.0998
      17    C5      21.389520   18.129382   20.674665 C.3        1 MOL1        -0.2317
      18    H12     21.164098   17.362829   19.921905 H          1 MOL1         0.1009
      19    H13     22.290907   17.813945   21.216165 H          1 MOL1         0.1009
      20    H14     21.618200   19.063579   20.145322 H          1 MOL1         0.1009
@<TRIPOS>BOND
    1     1     2    1
    2     1     3    1
    3     1     4    1
    4     1     5    1
    5     5     6    1
    6     5     7    1
    7     7     8    1
    8     7     9    1
    9     7    10    1
   10     5    11    1
   11    11    12    1
   12    11    13    1
   13    11    14    1
   14    14    15    1
   15    14    16    1
   16    14    17    1
   17    17    18    1
   18    17    19    1
   19    17    20    1
@<TRIPOS>SUBSTRUCTURE
       1 MOL1            1 RESIDUE      1      MOL     
@<SCITEGIC>MOL_PROPERTY
VConf Rank
SciTegic.value.IntegerValue
245

@<SCITEGIC>MOL_PROPERTY
Conf_Id
SciTegic.value.IntegerValue
63

@<SCITEGIC>MOL_PROPERTY
Delta U+W
SciTegic.value.DoubleValue
0.420

@<SCITEGIC>MOL_PROPERTY
U+W
SciTegic.value.DoubleValue
-35.856

@<SCITEGIC>MOL_PROPERTY
Grad RMS
SciTegic.value.DoubleValue
0.000000

@<SCITEGIC>MOL_PROPERTY
U
SciTegic.value.DoubleValue
22.625

@<SCITEGIC>MOL_PROPERTY
W
SciTegic.value.DoubleValue
-58.481

@<SCITEGIC>MOL_PROPERTY
W(PB)
SciTegic.value.DoubleValue
-60.400

@<SCITEGIC>MOL_PROPERTY
W(SA)
SciTegic.value.DoubleValue
1.919

@<SCITEGIC>MOL_PROPERTY
Valence
SciTegic.value.DoubleValue
2.404

@<SCITEGIC>MOL_PROPERTY
Coulomb
SciTegic.value.DoubleValue
19.464

@<SCITEGIC>MOL_PROPERTY
VdW
SciTegic.value.DoubleValue
0.757

@<SCITEGIC>MOL_PROPERTY
VdW6
SciTegic.value.DoubleValue
-5.074

@<SCITEGIC>MOL_PROPERTY
VdW12
SciTegic.value.DoubleValue
5.830

@<SCITEGIC>MOL_PROPERTY
Bond
SciTegic.value.DoubleValue
0.172

@<SCITEGIC>MOL_PROPERTY
Angle
SciTegic.value.DoubleValue
1.207

@<SCITEGIC>MOL_PROPERTY
Pdih
SciTegic.value.DoubleValue
1.025

@<SCITEGIC>MOL_PROPERTY
Idih
SciTegic.value.DoubleValue
0.000

@<SCITEGIC>MOL_PROPERTY
Tether
SciTegic.value.DoubleValue
0.000

@<TRIPOS>MOLECULE
guest-s10_confgen4.mol2 : confsearch ligand conformer 246
          20          19           1
SMALL
USER_CHARGES
 
@<TRIPOS>ATOM
       1    N1      21.079313   19.815148   23.465000 N.4        1 MOL1        -0.5937
       2    H1      20.518404   19.835786   24.320470 H          1 MOL1         0.3684
       3    H2      21.136538   20.773175   23.110978 H          1 MOL1         0.3684
       4    H3      22.026311   19.528780   23.727163 H          1 MOL1         0.3684
       5    C1      20.484140   18.884578   22.443244 C.3        1 MOL1         0.1270
       6    H4      20.462582   17.889813   22.898334 H          1 MOL1         0.0960
       7    C2      21.370123   18.817307   21.188644 C.3        1 MOL1        -0.2382
       8    H5      22.388108   18.502013   21.448514 H          1 MOL1         0.1009
       9    H6      21.431140   19.793767   20.692101 H          1 MOL1         0.1009
      10    H7      20.971347   18.092193   20.468359 H          1 MOL1         0.1009
      11    C3      19.038106   19.273843   22.060570 C.3        1 MOL1        -0.1392
      12    H8      19.040834   20.264305   21.586427 H          1 MOL1         0.0998
      13    H9      18.668186   18.571768   21.301506 H          1 MOL1         0.0998
      14    C4      18.046948   19.285003   23.251948 C.3        1 MOL1        -0.1302
      15    H10     17.053890   19.575853   22.881617 H          1 MOL1         0.0998
      16    H11     18.335288   20.056224   23.979027 H          1 MOL1         0.0998
      17    C5      17.935747   17.915692   23.960460 C.3        1 MOL1        -0.2317
      18    H12     17.648021   17.127481   23.252564 H          1 MOL1         0.1009
      19    H13     17.172868   17.951624   24.748999 H          1 MOL1         0.1009
      20    H14     18.883463   17.624783   24.430675 H          1 MOL1         0.1009
@<TRIPOS>BOND
    1     1     2    1
    2     1     3    1
    3     1     4    1
    4     1     5    1
    5     5     6    1
    6     5     7    1
    7     7     8    1
    8     7     9    1
    9     7    10    1
   10     5    11    1
   11    11    12    1
   12    11    13    1
   13    11    14    1
   14    14    15    1
   15    14    16    1
   16    14    17    1
   17    17    18    1
   18    17    19    1
   19    17    20    1
@<TRIPOS>SUBSTRUCTURE
       1 MOL1            1 RESIDUE      1      MOL     
@<SCITEGIC>MOL_PROPERTY
VConf Rank
SciTegic.value.IntegerValue
246

@<SCITEGIC>MOL_PROPERTY
Conf_Id
SciTegic.value.IntegerValue
50

@<SCITEGIC>MOL_PROPERTY
Delta U+W
SciTegic.value.DoubleValue
0.466

@<SCITEGIC>MOL_PROPERTY
U+W
SciTegic.value.DoubleValue
-35.811

@<SCITEGIC>MOL_PROPERTY
Grad RMS
SciTegic.value.DoubleValue
0.000000

@<SCITEGIC>MOL_PROPERTY
U
SciTegic.value.DoubleValue
22.369

@<SCITEGIC>MOL_PROPERTY
W
SciTegic.value.DoubleValue
-58.180

@<SCITEGIC>MOL_PROPERTY
W(PB)
SciTegic.value.DoubleValue
-60.103

@<SCITEGIC>MOL_PROPERTY
W(SA)
SciTegic.value.DoubleValue
1.923

@<SCITEGIC>MOL_PROPERTY
Valence
SciTegic.value.DoubleValue
2.168

@<SCITEGIC>MOL_PROPERTY
Coulomb
SciTegic.value.DoubleValue
19.636

@<SCITEGIC>MOL_PROPERTY
VdW
SciTegic.value.DoubleValue
0.566

@<SCITEGIC>MOL_PROPERTY
VdW6
SciTegic.value.DoubleValue
-5.263

@<SCITEGIC>MOL_PROPERTY
VdW12
SciTegic.value.DoubleValue
5.829

@<SCITEGIC>MOL_PROPERTY
Bond
SciTegic.value.DoubleValue
0.162

@<SCITEGIC>MOL_PROPERTY
Angle
SciTegic.value.DoubleValue
1.066

@<SCITEGIC>MOL_PROPERTY
Pdih
SciTegic.value.DoubleValue
0.939

@<SCITEGIC>MOL_PROPERTY
Idih
SciTegic.value.DoubleValue
0.000

@<SCITEGIC>MOL_PROPERTY
Tether
SciTegic.value.DoubleValue
0.000

@<TRIPOS>MOLECULE
guest-s10_confgen4.mol2 : confsearch ligand conformer 247
          20          19           1
SMALL
USER_CHARGES
 
@<TRIPOS>ATOM
       1    N1      21.803948   18.273112   22.054035 N.4        1 MOL1        -0.5937
       2    H1      22.332284   18.120906   22.917569 H          1 MOL1         0.3684
       3    H2      22.208874   19.087699   21.585682 H          1 MOL1         0.3684
       4    H3      21.969549   17.462323   21.451596 H          1 MOL1         0.3684
       5    C1      20.336719   18.465361   22.327640 C.3        1 MOL1         0.1270
       6    H4      19.997960   17.552814   22.827903 H          1 MOL1         0.0960
       7    C2      19.568701   18.615442   21.001146 C.3        1 MOL1        -0.2382
       8    H5      19.912088   19.495360   20.443028 H          1 MOL1         0.1009
       9    H6      18.491681   18.723203   21.169093 H          1 MOL1         0.1009
      10    H7      19.717292   17.732992   20.366851 H          1 MOL1         0.1009
      11    C3      20.077514   19.660344   23.277934 C.3        1 MOL1        -0.1392
      12    H8      21.013236   19.922514   23.789172 H          1 MOL1         0.0998
      13    H9      19.794610   20.552723   22.703794 H          1 MOL1         0.0998
      14    C4      19.018827   19.373281   24.372722 C.3        1 MOL1        -0.1302
      15    H10     18.960309   20.243884   25.040971 H          1 MOL1         0.0998
      16    H11     19.353830   18.532341   24.996159 H          1 MOL1         0.0998
      17    C5      17.606653   19.073017   23.823321 C.3        1 MOL1        -0.2317
      18    H12     17.259954   19.876646   23.160744 H          1 MOL1         0.1009
      19    H13     16.885996   18.984051   24.646595 H          1 MOL1         0.1009
      20    H14     17.585655   18.128031   23.266374 H          1 MOL1         0.1009
@<TRIPOS>BOND
    1     1     2    1
    2     1     3    1
    3     1     4    1
    4     1     5    1
    5     5     6    1
    6     5     7    1
    7     7     8    1
    8     7     9    1
    9     7    10    1
   10     5    11    1
   11    11    12    1
   12    11    13    1
   13    11    14    1
   14    14    15    1
   15    14    16    1
   16    14    17    1
   17    17    18    1
   18    17    19    1
   19    17    20    1
@<TRIPOS>SUBSTRUCTURE
       1 MOL1            1 RESIDUE      1      MOL     
@<SCITEGIC>MOL_PROPERTY
VConf Rank
SciTegic.value.IntegerValue
247

@<SCITEGIC>MOL_PROPERTY
Conf_Id
SciTegic.value.IntegerValue
3

@<SCITEGIC>MOL_PROPERTY
Delta U+W
SciTegic.value.DoubleValue
3.093

@<SCITEGIC>MOL_PROPERTY
U+W
SciTegic.value.DoubleValue
-33.184

@<SCITEGIC>MOL_PROPERTY
Grad RMS
SciTegic.value.DoubleValue
0.000000

@<SCITEGIC>MOL_PROPERTY
U
SciTegic.value.DoubleValue
25.256

@<SCITEGIC>MOL_PROPERTY
W
SciTegic.value.DoubleValue
-58.439

@<SCITEGIC>MOL_PROPERTY
W(PB)
SciTegic.value.DoubleValue
-60.337

@<SCITEGIC>MOL_PROPERTY
W(SA)
SciTegic.value.DoubleValue
1.898

@<SCITEGIC>MOL_PROPERTY
Valence
SciTegic.value.DoubleValue
4.963

@<SCITEGIC>MOL_PROPERTY
Coulomb
SciTegic.value.DoubleValue
19.511

@<SCITEGIC>MOL_PROPERTY
VdW
SciTegic.value.DoubleValue
0.782

@<SCITEGIC>MOL_PROPERTY
VdW6
SciTegic.value.DoubleValue
-5.429

@<SCITEGIC>MOL_PROPERTY
VdW12
SciTegic.value.DoubleValue
6.211

@<SCITEGIC>MOL_PROPERTY
Bond
SciTegic.value.DoubleValue
0.174

@<SCITEGIC>MOL_PROPERTY
Angle
SciTegic.value.DoubleValue
1.377

@<SCITEGIC>MOL_PROPERTY
Pdih
SciTegic.value.DoubleValue
3.412

@<SCITEGIC>MOL_PROPERTY
Idih
SciTegic.value.DoubleValue
0.000

@<SCITEGIC>MOL_PROPERTY
Tether
SciTegic.value.DoubleValue
0.000

@<TRIPOS>MOLECULE
guest-s10_confgen4.mol2 : confsearch ligand conformer 248
          20          19           1
SMALL
USER_CHARGES
 
@<TRIPOS>ATOM
       1    N1      18.089552   19.186336   24.382975 N.4        1 MOL1        -0.5937
       2    H1      18.172579   18.769904   25.314279 H          1 MOL1         0.3684
       3    H2      17.247639   18.795797   23.951129 H          1 MOL1         0.3684
       4    H3      17.931057   20.188867   24.511410 H          1 MOL1         0.3684
       5    C1      19.314181   18.922677   23.550419 C.3        1 MOL1         0.1270
       6    H4      19.403176   17.835008   23.471981 H          1 MOL1         0.0960
       7    C2      20.569695   19.463372   24.258540 C.3        1 MOL1        -0.2382
       8    H5      21.483569   19.158304   23.735755 H          1 MOL1         0.1009
       9    H6      20.635323   19.072603   25.281343 H          1 MOL1         0.1009
      10    H7      20.554066   20.558938   24.313123 H          1 MOL1         0.1009
      11    C3      19.156886   19.501553   22.124029 C.3        1 MOL1        -0.1392
      12    H8      18.207694   19.144933   21.702861 H          1 MOL1         0.0998
      13    H9      19.072054   20.594750   22.182844 H          1 MOL1         0.0998
      14    C4      20.295881   19.134468   21.138614 C.3        1 MOL1        -0.1302
      15    H10     21.241392   19.590865   21.461080 H          1 MOL1         0.0998
      16    H11     20.068807   19.576134   20.158202 H          1 MOL1         0.0998
      17    C5      20.482677   17.609459   20.969488 C.3        1 MOL1        -0.2317
      18    H12     19.548260   17.130138   20.649685 H          1 MOL1         0.1009
      19    H13     20.808637   17.136923   21.904648 H          1 MOL1         0.1009
      20    H14     21.245180   17.397435   20.208795 H          1 MOL1         0.1009
@<TRIPOS>BOND
    1     1     2    1
    2     1     3    1
    3     1     4    1
    4     1     5    1
    5     5     6    1
    6     5     7    1
    7     7     8    1
    8     7     9    1
    9     7    10    1
   10     5    11    1
   11    11    12    1
   12    11    13    1
   13    11    14    1
   14    14    15    1
   15    14    16    1
   16    14    17    1
   17    17    18    1
   18    17    19    1
   19    17    20    1
@<TRIPOS>SUBSTRUCTURE
       1 MOL1            1 RESIDUE      1      MOL     
@<SCITEGIC>MOL_PROPERTY
VConf Rank
SciTegic.value.IntegerValue
248

@<SCITEGIC>MOL_PROPERTY
Conf_Id
SciTegic.value.IntegerValue
64

@<SCITEGIC>MOL_PROPERTY
Delta U+W
SciTegic.value.DoubleValue
0.544

@<SCITEGIC>MOL_PROPERTY
U+W
SciTegic.value.DoubleValue
-35.732

@<SCITEGIC>MOL_PROPERTY
Grad RMS
SciTegic.value.DoubleValue
0.000000

@<SCITEGIC>MOL_PROPERTY
U
SciTegic.value.DoubleValue
22.800

@<SCITEGIC>MOL_PROPERTY
W
SciTegic.value.DoubleValue
-58.532

@<SCITEGIC>MOL_PROPERTY
W(PB)
SciTegic.value.DoubleValue
-60.437

@<SCITEGIC>MOL_PROPERTY
W(SA)
SciTegic.value.DoubleValue
1.905

@<SCITEGIC>MOL_PROPERTY
Valence
SciTegic.value.DoubleValue
2.662

@<SCITEGIC>MOL_PROPERTY
Coulomb
SciTegic.value.DoubleValue
19.485

@<SCITEGIC>MOL_PROPERTY
VdW
SciTegic.value.DoubleValue
0.653

@<SCITEGIC>MOL_PROPERTY
VdW6
SciTegic.value.DoubleValue
-5.460

@<SCITEGIC>MOL_PROPERTY
VdW12
SciTegic.value.DoubleValue
6.113

@<SCITEGIC>MOL_PROPERTY
Bond
SciTegic.value.DoubleValue
0.174

@<SCITEGIC>MOL_PROPERTY
Angle
SciTegic.value.DoubleValue
1.378

@<SCITEGIC>MOL_PROPERTY
Pdih
SciTegic.value.DoubleValue
1.109

@<SCITEGIC>MOL_PROPERTY
Idih
SciTegic.value.DoubleValue
0.000

@<SCITEGIC>MOL_PROPERTY
Tether
SciTegic.value.DoubleValue
0.000

@<TRIPOS>MOLECULE
guest-s10_confgen4.mol2 : confsearch ligand conformer 249
          20          19           1
SMALL
USER_CHARGES
 
@<TRIPOS>ATOM
       1    N1      18.153813   19.427482   23.941487 N.4        1 MOL1        -0.5937
       2    H1      18.652617   20.317506   23.875732 H          1 MOL1         0.3684
       3    H2      17.937999   19.270358   24.929591 H          1 MOL1         0.3684
       4    H3      17.262735   19.537627   23.450052 H          1 MOL1         0.3684
       5    C1      18.965852   18.297114   23.369042 C.3        1 MOL1         0.1270
       6    H4      18.356482   17.396812   23.495887 H          1 MOL1         0.0960
       7    C2      20.261152   18.091585   24.171338 C.3        1 MOL1        -0.2382
       8    H5      20.864237   19.006511   24.201481 H          1 MOL1         0.1009
       9    H6      20.867158   17.287374   23.736208 H          1 MOL1         0.1009
      10    H7      20.029977   17.810974   25.206126 H          1 MOL1         0.1009
      11    C3      19.216382   18.462176   21.848868 C.3        1 MOL1        -0.1392
      12    H8      19.654820   17.538149   21.449567 H          1 MOL1         0.0998
      13    H9      18.235865   18.549106   21.362545 H          1 MOL1         0.0998
      14    C4      20.080404   19.681920   21.423525 C.3        1 MOL1        -0.1302
      15    H10     19.946990   20.519031   22.121255 H          1 MOL1         0.0998
      16    H11     19.715602   20.042075   20.451316 H          1 MOL1         0.0998
      17    C5      21.583664   19.351125   21.270126 C.3        1 MOL1        -0.2317
      18    H12     22.033971   19.025237   22.214053 H          1 MOL1         0.1009
      19    H13     22.137481   20.234900   20.927790 H          1 MOL1         0.1009
      20    H14     21.737416   18.555882   20.529187 H          1 MOL1         0.1009
@<TRIPOS>BOND
    1     1     2    1
    2     1     3    1
    3     1     4    1
    4     1     5    1
    5     5     6    1
    6     5     7    1
    7     7     8    1
    8     7     9    1
    9     7    10    1
   10     5    11    1
   11    11    12    1
   12    11    13    1
   13    11    14    1
   14    14    15    1
   15    14    16    1
   16    14    17    1
   17    17    18    1
   18    17    19    1
   19    17    20    1
@<TRIPOS>SUBSTRUCTURE
       1 MOL1            1 RESIDUE      1      MOL     
@<SCITEGIC>MOL_PROPERTY
VConf Rank
SciTegic.value.IntegerValue
249

@<SCITEGIC>MOL_PROPERTY
Conf_Id
SciTegic.value.IntegerValue
35

@<SCITEGIC>MOL_PROPERTY
Delta U+W
SciTegic.value.DoubleValue
3.004

@<SCITEGIC>MOL_PROPERTY
U+W
SciTegic.value.DoubleValue
-33.272

@<SCITEGIC>MOL_PROPERTY
Grad RMS
SciTegic.value.DoubleValue
0.000000

@<SCITEGIC>MOL_PROPERTY
U
SciTegic.value.DoubleValue
25.367

@<SCITEGIC>MOL_PROPERTY
W
SciTegic.value.DoubleValue
-58.639

@<SCITEGIC>MOL_PROPERTY
W(PB)
SciTegic.value.DoubleValue
-60.512

@<SCITEGIC>MOL_PROPERTY
W(SA)
SciTegic.value.DoubleValue
1.873

@<SCITEGIC>MOL_PROPERTY
Valence
SciTegic.value.DoubleValue
4.943

@<SCITEGIC>MOL_PROPERTY
Coulomb
SciTegic.value.DoubleValue
19.661

@<SCITEGIC>MOL_PROPERTY
VdW
SciTegic.value.DoubleValue
0.764

@<SCITEGIC>MOL_PROPERTY
VdW6
SciTegic.value.DoubleValue
-5.871

@<SCITEGIC>MOL_PROPERTY
VdW12
SciTegic.value.DoubleValue
6.636

@<SCITEGIC>MOL_PROPERTY
Bond
SciTegic.value.DoubleValue
0.230

@<SCITEGIC>MOL_PROPERTY
Angle
SciTegic.value.DoubleValue
1.857

@<SCITEGIC>MOL_PROPERTY
Pdih
SciTegic.value.DoubleValue
2.855

@<SCITEGIC>MOL_PROPERTY
Idih
SciTegic.value.DoubleValue
0.000

@<SCITEGIC>MOL_PROPERTY
Tether
SciTegic.value.DoubleValue
0.000

@<TRIPOS>MOLECULE
guest-s10_confgen4.mol2 : confsearch ligand conformer 250
          20          19           1
SMALL
USER_CHARGES
 
@<TRIPOS>ATOM
       1    N1      21.466394   18.347568   22.528690 N.4        1 MOL1        -0.5937
       2    H1      21.975793   17.671924   21.952826 H          1 MOL1         0.3684
       3    H2      22.039908   18.537153   23.354960 H          1 MOL1         0.3684
       4    H3      21.397648   19.217861   21.997784 H          1 MOL1         0.3684
       5    C1      20.105199   17.833062   22.909337 C.3        1 MOL1         0.1270
       6    H4      20.291525   16.923860   23.489476 H          1 MOL1         0.0960
       7    C2      19.291614   17.425695   21.668110 C.3        1 MOL1        -0.2382
       8    H5      19.143277   18.271120   20.985799 H          1 MOL1         0.1009
       9    H6      18.306389   17.040241   21.958243 H          1 MOL1         0.1009
      10    H7      19.808376   16.633376   21.112993 H          1 MOL1         0.1009
      11    C3      19.326188   18.803071   23.834290 C.3        1 MOL1        -0.1392
      12    H8      18.514221   18.233213   24.304942 H          1 MOL1         0.0998
      13    H9      19.981640   19.110603   24.659531 H          1 MOL1         0.0998
      14    C4      18.701212   20.066259   23.178273 C.3        1 MOL1        -0.1302
      15    H10     18.152067   20.615661   23.955718 H          1 MOL1         0.0998
      16    H11     17.946658   19.775640   22.434755 H          1 MOL1         0.0998
      17    C5      19.722331   21.030556   22.533006 C.3        1 MOL1        -0.2317
      18    H12     20.537303   21.271147   23.228043 H          1 MOL1         0.1009
      19    H13     19.232218   21.973159   22.256491 H          1 MOL1         0.1009
      20    H14     20.150649   20.610377   21.615803 H          1 MOL1         0.1009
@<TRIPOS>BOND
    1     1     2    1
    2     1     3    1
    3     1     4    1
    4     1     5    1
    5     5     6    1
    6     5     7    1
    7     7     8    1
    8     7     9    1
    9     7    10    1
   10     5    11    1
   11    11    12    1
   12    11    13    1
   13    11    14    1
   14    14    15    1
   15    14    16    1
   16    14    17    1
   17    17    18    1
   18    17    19    1
   19    17    20    1
@<TRIPOS>SUBSTRUCTURE
       1 MOL1            1 RESIDUE      1      MOL     
@<SCITEGIC>MOL_PROPERTY
VConf Rank
SciTegic.value.IntegerValue
250

@<SCITEGIC>MOL_PROPERTY
Conf_Id
SciTegic.value.IntegerValue
55

@<SCITEGIC>MOL_PROPERTY
Delta U+W
SciTegic.value.DoubleValue
2.767

@<SCITEGIC>MOL_PROPERTY
U+W
SciTegic.value.DoubleValue
-33.509

@<SCITEGIC>MOL_PROPERTY
Grad RMS
SciTegic.value.DoubleValue
0.000000

@<SCITEGIC>MOL_PROPERTY
U
SciTegic.value.DoubleValue
24.552

@<SCITEGIC>MOL_PROPERTY
W
SciTegic.value.DoubleValue
-58.061

@<SCITEGIC>MOL_PROPERTY
W(PB)
SciTegic.value.DoubleValue
-59.930

@<SCITEGIC>MOL_PROPERTY
W(SA)
SciTegic.value.DoubleValue
1.869

@<SCITEGIC>MOL_PROPERTY
Valence
SciTegic.value.DoubleValue
3.726

@<SCITEGIC>MOL_PROPERTY
Coulomb
SciTegic.value.DoubleValue
20.219

@<SCITEGIC>MOL_PROPERTY
VdW
SciTegic.value.DoubleValue
0.606

@<SCITEGIC>MOL_PROPERTY
VdW6
SciTegic.value.DoubleValue
-6.395

@<SCITEGIC>MOL_PROPERTY
VdW12
SciTegic.value.DoubleValue
7.001

@<SCITEGIC>MOL_PROPERTY
Bond
SciTegic.value.DoubleValue
0.241

@<SCITEGIC>MOL_PROPERTY
Angle
SciTegic.value.DoubleValue
2.098

@<SCITEGIC>MOL_PROPERTY
Pdih
SciTegic.value.DoubleValue
1.387

@<SCITEGIC>MOL_PROPERTY
Idih
SciTegic.value.DoubleValue
0.000

@<SCITEGIC>MOL_PROPERTY
Tether
SciTegic.value.DoubleValue
0.000

@<TRIPOS>MOLECULE
guest-s10_confgen4.mol2 : confsearch ligand conformer 251
          20          19           1
SMALL
USER_CHARGES
 
@<TRIPOS>ATOM
       1    N1      21.202198   19.977835   23.566927 N.4        1 MOL1        -0.5937
       2    H1      21.956691   19.676858   22.945077 H          1 MOL1         0.3684
       3    H2      21.630613   20.257125   24.453558 H          1 MOL1         0.3684
       4    H3      20.780653   20.814738   23.156471 H          1 MOL1         0.3684
       5    C1      20.184048   18.887599   23.766471 C.3        1 MOL1         0.1270
       6    H4      19.417276   19.291407   24.434966 H          1 MOL1         0.0960
       7    C2      20.824949   17.668732   24.450268 C.3        1 MOL1        -0.2382
       8    H5      21.279587   17.954341   25.406822 H          1 MOL1         0.1009
       9    H6      21.605432   17.224254   23.820126 H          1 MOL1         0.1009
      10    H7      20.072848   16.897309   24.657365 H          1 MOL1         0.1009
      11    C3      19.500407   18.465250   22.447227 C.3        1 MOL1        -0.1392
      12    H8      20.253315   18.077406   21.748212 H          1 MOL1         0.0998
      13    H9      18.810582   17.636463   22.655364 H          1 MOL1         0.0998
      14    C4      18.710021   19.616112   21.779150 C.3        1 MOL1        -0.1302
      15    H10     19.388761   20.436411   21.509248 H          1 MOL1         0.0998
      16    H11     17.981229   20.027348   22.491885 H          1 MOL1         0.0998
      17    C5      17.970731   19.138568   20.510803 C.3        1 MOL1        -0.2317
      18    H12     18.676397   18.749195   19.765364 H          1 MOL1         0.1009
      19    H13     17.417217   19.966847   20.049651 H          1 MOL1         0.1009
      20    H14     17.251050   18.344127   20.747771 H          1 MOL1         0.1009
@<TRIPOS>BOND
    1     1     2    1
    2     1     3    1
    3     1     4    1
    4     1     5    1
    5     5     6    1
    6     5     7    1
    7     7     8    1
    8     7     9    1
    9     7    10    1
   10     5    11    1
   11    11    12    1
   12    11    13    1
   13    11    14    1
   14    14    15    1
   15    14    16    1
   16    14    17    1
   17    17    18    1
   18    17    19    1
   19    17    20    1
@<TRIPOS>SUBSTRUCTURE
       1 MOL1            1 RESIDUE      1      MOL     
@<SCITEGIC>MOL_PROPERTY
VConf Rank
SciTegic.value.IntegerValue
251

@<SCITEGIC>MOL_PROPERTY
Conf_Id
SciTegic.value.IntegerValue
74

@<SCITEGIC>MOL_PROPERTY
Delta U+W
SciTegic.value.DoubleValue
0.000

@<SCITEGIC>MOL_PROPERTY
U+W
SciTegic.value.DoubleValue
-36.276

@<SCITEGIC>MOL_PROPERTY
Grad RMS
SciTegic.value.DoubleValue
0.000000

@<SCITEGIC>MOL_PROPERTY
U
SciTegic.value.DoubleValue
22.080

@<SCITEGIC>MOL_PROPERTY
W
SciTegic.value.DoubleValue
-58.356

@<SCITEGIC>MOL_PROPERTY
W(PB)
SciTegic.value.DoubleValue
-60.289

@<SCITEGIC>MOL_PROPERTY
W(SA)
SciTegic.value.DoubleValue
1.932

@<SCITEGIC>MOL_PROPERTY
Valence
SciTegic.value.DoubleValue
1.885

@<SCITEGIC>MOL_PROPERTY
Coulomb
SciTegic.value.DoubleValue
19.559

@<SCITEGIC>MOL_PROPERTY
VdW
SciTegic.value.DoubleValue
0.637

@<SCITEGIC>MOL_PROPERTY
VdW6
SciTegic.value.DoubleValue
-4.482

@<SCITEGIC>MOL_PROPERTY
VdW12
SciTegic.value.DoubleValue
5.119

@<SCITEGIC>MOL_PROPERTY
Bond
SciTegic.value.DoubleValue
0.136

@<SCITEGIC>MOL_PROPERTY
Angle
SciTegic.value.DoubleValue
0.867

@<SCITEGIC>MOL_PROPERTY
Pdih
SciTegic.value.DoubleValue
0.882

@<SCITEGIC>MOL_PROPERTY
Idih
SciTegic.value.DoubleValue
0.000

@<SCITEGIC>MOL_PROPERTY
Tether
SciTegic.value.DoubleValue
0.000

@<TRIPOS>MOLECULE
guest-s10_confgen4.mol2 : confsearch ligand conformer 252
          20          19           1
SMALL
USER_CHARGES
 
@<TRIPOS>ATOM
       1    N1      20.632302   19.471931   20.568180 N.4        1 MOL1        -0.5937
       2    H1      20.989620   20.418882   20.721367 H          1 MOL1         0.3684
       3    H2      19.746901   19.556669   20.062600 H          1 MOL1         0.3684
       4    H3      21.292783   18.996642   19.947257 H          1 MOL1         0.3684
       5    C1      20.460096   18.726713   21.863348 C.3        1 MOL1         0.1270
       6    H4      21.450120   18.683560   22.327951 H          1 MOL1         0.0960
       7    C2      19.987336   17.286699   21.591950 C.3        1 MOL1        -0.2382
       8    H5      20.649893   16.791931   20.871225 H          1 MOL1         0.1009
       9    H6      18.969556   17.273248   21.182654 H          1 MOL1         0.1009
      10    H7      19.997971   16.683749   22.507134 H          1 MOL1         0.1009
      11    C3      19.509167   19.481816   22.820971 C.3        1 MOL1        -0.1392
      12    H8      19.839727   20.526875   22.886120 H          1 MOL1         0.0998
      13    H9      18.496631   19.502349   22.396473 H          1 MOL1         0.0998
      14    C4      19.463301   18.890992   24.251350 C.3        1 MOL1        -0.1302
      15    H10     20.483510   18.811641   24.652532 H          1 MOL1         0.0998
      16    H11     19.048981   17.874225   24.230731 H          1 MOL1         0.0998
      17    C5      18.607142   19.758623   25.198920 C.3        1 MOL1        -0.2317
      18    H12     19.014360   20.774788   25.281505 H          1 MOL1         0.1009
      19    H13     18.582472   19.323697   26.206550 H          1 MOL1         0.1009
      20    H14     17.572589   19.833210   24.839201 H          1 MOL1         0.1009
@<TRIPOS>BOND
    1     1     2    1
    2     1     3    1
    3     1     4    1
    4     1     5    1
    5     5     6    1
    6     5     7    1
    7     7     8    1
    8     7     9    1
    9     7    10    1
   10     5    11    1
   11    11    12    1
   12    11    13    1
   13    11    14    1
   14    14    15    1
   15    14    16    1
   16    14    17    1
   17    17    18    1
   18    17    19    1
   19    17    20    1
@<TRIPOS>SUBSTRUCTURE
       1 MOL1            1 RESIDUE      1      MOL     
@<SCITEGIC>MOL_PROPERTY
VConf Rank
SciTegic.value.IntegerValue
252

@<SCITEGIC>MOL_PROPERTY
Conf_Id
SciTegic.value.IntegerValue
80

@<SCITEGIC>MOL_PROPERTY
Delta U+W
SciTegic.value.DoubleValue
0.460

@<SCITEGIC>MOL_PROPERTY
U+W
SciTegic.value.DoubleValue
-35.817

@<SCITEGIC>MOL_PROPERTY
Grad RMS
SciTegic.value.DoubleValue
0.000000

@<SCITEGIC>MOL_PROPERTY
U
SciTegic.value.DoubleValue
22.495

@<SCITEGIC>MOL_PROPERTY
W
SciTegic.value.DoubleValue
-58.311

@<SCITEGIC>MOL_PROPERTY
W(PB)
SciTegic.value.DoubleValue
-60.259

@<SCITEGIC>MOL_PROPERTY
W(SA)
SciTegic.value.DoubleValue
1.948

@<SCITEGIC>MOL_PROPERTY
Valence
SciTegic.value.DoubleValue
2.419

@<SCITEGIC>MOL_PROPERTY
Coulomb
SciTegic.value.DoubleValue
19.304

@<SCITEGIC>MOL_PROPERTY
VdW
SciTegic.value.DoubleValue
0.772

@<SCITEGIC>MOL_PROPERTY
VdW6
SciTegic.value.DoubleValue
-4.635

@<SCITEGIC>MOL_PROPERTY
VdW12
SciTegic.value.DoubleValue
5.407

@<SCITEGIC>MOL_PROPERTY
Bond
SciTegic.value.DoubleValue
0.149

@<SCITEGIC>MOL_PROPERTY
Angle
SciTegic.value.DoubleValue
1.142

@<SCITEGIC>MOL_PROPERTY
Pdih
SciTegic.value.DoubleValue
1.129

@<SCITEGIC>MOL_PROPERTY
Idih
SciTegic.value.DoubleValue
0.000

@<SCITEGIC>MOL_PROPERTY
Tether
SciTegic.value.DoubleValue
0.000

@<TRIPOS>MOLECULE
guest-s10_confgen4.mol2 : confsearch ligand conformer 253
          20          19           1
SMALL
USER_CHARGES
 
@<TRIPOS>ATOM
       1    N1      21.728315   18.350795   23.987138 N.4        1 MOL1        -0.5937
       2    H1      22.396299   17.820694   23.420921 H          1 MOL1         0.3684
       3    H2      21.259171   17.687403   24.608833 H          1 MOL1         0.3684
       4    H3      22.270561   18.988401   24.576242 H          1 MOL1         0.3684
       5    C1      20.742223   19.096827   23.130512 C.3        1 MOL1         0.1270
       6    H4      21.330799   19.779902   22.510199 H          1 MOL1         0.0960
       7    C2      19.803146   19.939406   24.010541 C.3        1 MOL1        -0.2382
       8    H5      20.378190   20.544945   24.721731 H          1 MOL1         0.1009
       9    H6      19.115747   19.303498   24.581994 H          1 MOL1         0.1009
      10    H7      19.212603   20.633562   23.401925 H          1 MOL1         0.1009
      11    C3      19.980138   18.130778   22.190666 C.3        1 MOL1        -0.1392
      12    H8      20.729910   17.551945   21.635252 H          1 MOL1         0.0998
      13    H9      19.413154   17.397367   22.779196 H          1 MOL1         0.0998
      14    C4      19.053088   18.819546   21.154413 C.3        1 MOL1        -0.1302
      15    H10     19.098624   18.253793   20.213155 H          1 MOL1         0.0998
      16    H11     19.425285   19.826376   20.918342 H          1 MOL1         0.0998
      17    C5      17.572986   18.882804   21.599756 C.3        1 MOL1        -0.2317
      18    H12     17.170047   17.875112   21.765023 H          1 MOL1         0.1009
      19    H13     16.959478   19.362861   20.826363 H          1 MOL1         0.1009
      20    H14     17.444072   19.453043   22.526445 H          1 MOL1         0.1009
@<TRIPOS>BOND
    1     1     2    1
    2     1     3    1
    3     1     4    1
    4     1     5    1
    5     5     6    1
    6     5     7    1
    7     7     8    1
    8     7     9    1
    9     7    10    1
   10     5    11    1
   11    11    12    1
   12    11    13    1
   13    11    14    1
   14    14    15    1
   15    14    16    1
   16    14    17    1
   17    17    18    1
   18    17    19    1
   19    17    20    1
@<TRIPOS>SUBSTRUCTURE
       1 MOL1            1 RESIDUE      1      MOL     
@<SCITEGIC>MOL_PROPERTY
VConf Rank
SciTegic.value.IntegerValue
253

@<SCITEGIC>MOL_PROPERTY
Conf_Id
SciTegic.value.IntegerValue
52

@<SCITEGIC>MOL_PROPERTY
Delta U+W
SciTegic.value.DoubleValue
2.995

@<SCITEGIC>MOL_PROPERTY
U+W
SciTegic.value.DoubleValue
-33.282

@<SCITEGIC>MOL_PROPERTY
Grad RMS
SciTegic.value.DoubleValue
0.000000

@<SCITEGIC>MOL_PROPERTY
U
SciTegic.value.DoubleValue
25.224

@<SCITEGIC>MOL_PROPERTY
W
SciTegic.value.DoubleValue
-58.506

@<SCITEGIC>MOL_PROPERTY
W(PB)
SciTegic.value.DoubleValue
-60.411

@<SCITEGIC>MOL_PROPERTY
W(SA)
SciTegic.value.DoubleValue
1.905

@<SCITEGIC>MOL_PROPERTY
Valence
SciTegic.value.DoubleValue
4.945

@<SCITEGIC>MOL_PROPERTY
Coulomb
SciTegic.value.DoubleValue
19.467

@<SCITEGIC>MOL_PROPERTY
VdW
SciTegic.value.DoubleValue
0.813

@<SCITEGIC>MOL_PROPERTY
VdW6
SciTegic.value.DoubleValue
-5.458

@<SCITEGIC>MOL_PROPERTY
VdW12
SciTegic.value.DoubleValue
6.270

@<SCITEGIC>MOL_PROPERTY
Bond
SciTegic.value.DoubleValue
0.200

@<SCITEGIC>MOL_PROPERTY
Angle
SciTegic.value.DoubleValue
1.675

@<SCITEGIC>MOL_PROPERTY
Pdih
SciTegic.value.DoubleValue
3.070

@<SCITEGIC>MOL_PROPERTY
Idih
SciTegic.value.DoubleValue
0.000

@<SCITEGIC>MOL_PROPERTY
Tether
SciTegic.value.DoubleValue
0.000

@<TRIPOS>MOLECULE
guest-s10_confgen4.mol2 : confsearch ligand conformer 254
          20          19           1
SMALL
USER_CHARGES
 
@<TRIPOS>ATOM
       1    N1      19.065434   19.087300   21.274100 N.4        1 MOL1        -0.5937
       2    H1      18.604299   20.000008   21.247734 H          1 MOL1         0.3684
       3    H2      18.620460   18.498975   20.564509 H          1 MOL1         0.3684
       4    H3      20.038237   19.227876   20.993246 H          1 MOL1         0.3684
       5    C1      18.976002   18.466899   22.641709 C.3        1 MOL1         0.1270
       6    H4      19.444685   17.479909   22.579090 H          1 MOL1         0.0960
       7    C2      17.500627   18.274683   23.031682 C.3        1 MOL1        -0.2382
       8    H5      16.985425   19.238989   23.124095 H          1 MOL1         0.1009
       9    H6      17.414801   17.747987   23.990260 H          1 MOL1         0.1009
      10    H7      16.974004   17.676515   22.277893 H          1 MOL1         0.1009
      11    C3      19.717036   19.289110   23.722946 C.3        1 MOL1        -0.1392
      12    H8      19.447805   20.350064   23.636545 H          1 MOL1         0.0998
      13    H9      19.360746   18.969133   24.711256 H          1 MOL1         0.0998
      14    C4      21.259903   19.127386   23.719136 C.3        1 MOL1        -0.1302
      15    H10     21.521483   18.068343   23.853449 H          1 MOL1         0.0998
      16    H11     21.660994   19.651506   24.598027 H          1 MOL1         0.0998
      17    C5      21.967455   19.677723   22.459888 C.3        1 MOL1        -0.2317
      18    H12     23.053117   19.711167   22.619597 H          1 MOL1         0.1009
      19    H13     21.634553   20.697915   22.228151 H          1 MOL1         0.1009
      20    H14     21.793328   19.038781   21.586463 H          1 MOL1         0.1009
@<TRIPOS>BOND
    1     1     2    1
    2     1     3    1
    3     1     4    1
    4     1     5    1
    5     5     6    1
    6     5     7    1
    7     7     8    1
    8     7     9    1
    9     7    10    1
   10     5    11    1
   11    11    12    1
   12    11    13    1
   13    11    14    1
   14    14    15    1
   15    14    16    1
   16    14    17    1
   17    17    18    1
   18    17    19    1
   19    17    20    1
@<TRIPOS>SUBSTRUCTURE
       1 MOL1            1 RESIDUE      1      MOL     
@<SCITEGIC>MOL_PROPERTY
VConf Rank
SciTegic.value.IntegerValue
254

@<SCITEGIC>MOL_PROPERTY
Conf_Id
SciTegic.value.IntegerValue
54

@<SCITEGIC>MOL_PROPERTY
Delta U+W
SciTegic.value.DoubleValue
2.752

@<SCITEGIC>MOL_PROPERTY
U+W
SciTegic.value.DoubleValue
-33.525

@<SCITEGIC>MOL_PROPERTY
Grad RMS
SciTegic.value.DoubleValue
0.000000

@<SCITEGIC>MOL_PROPERTY
U
SciTegic.value.DoubleValue
24.337

@<SCITEGIC>MOL_PROPERTY
W
SciTegic.value.DoubleValue
-57.862

@<SCITEGIC>MOL_PROPERTY
W(PB)
SciTegic.value.DoubleValue
-59.764

@<SCITEGIC>MOL_PROPERTY
W(SA)
SciTegic.value.DoubleValue
1.901

@<SCITEGIC>MOL_PROPERTY
Valence
SciTegic.value.DoubleValue
3.593

@<SCITEGIC>MOL_PROPERTY
Coulomb
SciTegic.value.DoubleValue
20.067

@<SCITEGIC>MOL_PROPERTY
VdW
SciTegic.value.DoubleValue
0.677

@<SCITEGIC>MOL_PROPERTY
VdW6
SciTegic.value.DoubleValue
-5.466

@<SCITEGIC>MOL_PROPERTY
VdW12
SciTegic.value.DoubleValue
6.144

@<SCITEGIC>MOL_PROPERTY
Bond
SciTegic.value.DoubleValue
0.191

@<SCITEGIC>MOL_PROPERTY
Angle
SciTegic.value.DoubleValue
1.557

@<SCITEGIC>MOL_PROPERTY
Pdih
SciTegic.value.DoubleValue
1.845

@<SCITEGIC>MOL_PROPERTY
Idih
SciTegic.value.DoubleValue
0.000

@<SCITEGIC>MOL_PROPERTY
Tether
SciTegic.value.DoubleValue
0.000

@<TRIPOS>MOLECULE
guest-s10_confgen4.mol2 : confsearch ligand conformer 255
          20          19           1
SMALL
USER_CHARGES
 
@<TRIPOS>ATOM
       1    N1      21.774455   18.595458   22.437665 N.4        1 MOL1        -0.5937
       2    H1      22.572084   18.053061   22.780078 H          1 MOL1         0.3684
       3    H2      22.140923   19.481940   22.080506 H          1 MOL1         0.3684
       4    H3      21.376315   18.086019   21.645576 H          1 MOL1         0.3684
       5    C1      20.752620   18.815200   23.520002 C.3        1 MOL1         0.1270
       6    H4      21.272237   19.346867   24.323339 H          1 MOL1         0.0960
       7    C2      20.258788   17.475457   24.094513 C.3        1 MOL1        -0.2382
       8    H5      19.512818   17.639885   24.881892 H          1 MOL1         0.1009
       9    H6      21.092572   16.918033   24.538550 H          1 MOL1         0.1009
      10    H7      19.808275   16.842946   23.320556 H          1 MOL1         0.1009
      11    C3      19.582726   19.716201   23.056755 C.3        1 MOL1        -0.1392
      12    H8      18.924943   19.909246   23.914538 H          1 MOL1         0.0998
      13    H9      19.991240   20.692650   22.765087 H          1 MOL1         0.0998
      14    C4      18.741834   19.146356   21.885209 C.3        1 MOL1        -0.1302
      15    H10     18.281629   18.192682   22.176293 H          1 MOL1         0.0998
      16    H11     19.387060   18.938570   21.021108 H          1 MOL1         0.0998
      17    C5      17.628990   20.127102   21.457372 C.3        1 MOL1        -0.2317
      18    H12     17.041351   19.709541   20.629490 H          1 MOL1         0.1009
      19    H13     18.051890   21.082712   21.120941 H          1 MOL1         0.1009
      20    H14     16.941325   20.331378   22.288402 H          1 MOL1         0.1009
@<TRIPOS>BOND
    1     1     2    1
    2     1     3    1
    3     1     4    1
    4     1     5    1
    5     5     6    1
    6     5     7    1
    7     7     8    1
    8     7     9    1
    9     7    10    1
   10     5    11    1
   11    11    12    1
   12    11    13    1
   13    11    14    1
   14    14    15    1
   15    14    16    1
   16    14    17    1
   17    17    18    1
   18    17    19    1
   19    17    20    1
@<TRIPOS>SUBSTRUCTURE
       1 MOL1            1 RESIDUE      1      MOL     
@<SCITEGIC>MOL_PROPERTY
VConf Rank
SciTegic.value.IntegerValue
255

@<SCITEGIC>MOL_PROPERTY
Conf_Id
SciTegic.value.IntegerValue
63

@<SCITEGIC>MOL_PROPERTY
Delta U+W
SciTegic.value.DoubleValue
0.420

@<SCITEGIC>MOL_PROPERTY
U+W
SciTegic.value.DoubleValue
-35.856

@<SCITEGIC>MOL_PROPERTY
Grad RMS
SciTegic.value.DoubleValue
0.000000

@<SCITEGIC>MOL_PROPERTY
U
SciTegic.value.DoubleValue
22.625

@<SCITEGIC>MOL_PROPERTY
W
SciTegic.value.DoubleValue
-58.481

@<SCITEGIC>MOL_PROPERTY
W(PB)
SciTegic.value.DoubleValue
-60.400

@<SCITEGIC>MOL_PROPERTY
W(SA)
SciTegic.value.DoubleValue
1.919

@<SCITEGIC>MOL_PROPERTY
Valence
SciTegic.value.DoubleValue
2.404

@<SCITEGIC>MOL_PROPERTY
Coulomb
SciTegic.value.DoubleValue
19.464

@<SCITEGIC>MOL_PROPERTY
VdW
SciTegic.value.DoubleValue
0.757

@<SCITEGIC>MOL_PROPERTY
VdW6
SciTegic.value.DoubleValue
-5.074

@<SCITEGIC>MOL_PROPERTY
VdW12
SciTegic.value.DoubleValue
5.830

@<SCITEGIC>MOL_PROPERTY
Bond
SciTegic.value.DoubleValue
0.172

@<SCITEGIC>MOL_PROPERTY
Angle
SciTegic.value.DoubleValue
1.207

@<SCITEGIC>MOL_PROPERTY
Pdih
SciTegic.value.DoubleValue
1.025

@<SCITEGIC>MOL_PROPERTY
Idih
SciTegic.value.DoubleValue
0.000

@<SCITEGIC>MOL_PROPERTY
Tether
SciTegic.value.DoubleValue
0.000

@<TRIPOS>MOLECULE
guest-s10_confgen4.mol2 : confsearch ligand conformer 256
          20          19           1
SMALL
USER_CHARGES
 
@<TRIPOS>ATOM
       1    N1      21.437553   19.079307   22.521333 N.4        1 MOL1        -0.5937
       2    H1      21.197875   19.535336   21.637327 H          1 MOL1         0.3684
       3    H2      21.820196   18.157179   22.298433 H          1 MOL1         0.3684
       4    H3      22.187525   19.625426   22.953583 H          1 MOL1         0.3684
       5    C1      20.239153   18.974977   23.425287 C.3        1 MOL1         0.1270
       6    H4      19.897609   19.997105   23.614314 H          1 MOL1         0.0960
       7    C2      20.628151   18.344061   24.772186 C.3        1 MOL1        -0.2382
       8    H5      21.425113   18.921972   25.256032 H          1 MOL1         0.1009
       9    H6      20.984038   17.314547   24.641040 H          1 MOL1         0.1009
      10    H7      19.770142   18.324384   25.455600 H          1 MOL1         0.1009
      11    C3      19.077216   18.187712   22.777909 C.3        1 MOL1        -0.1392
      12    H8      19.395659   17.152809   22.595146 H          1 MOL1         0.0998
      13    H9      18.243729   18.130516   23.490618 H          1 MOL1         0.0998
      14    C4      18.556422   18.799289   21.452524 C.3        1 MOL1        -0.1302
      15    H10     17.740142   18.170126   21.070759 H          1 MOL1         0.0998
      16    H11     19.342689   18.770842   20.686012 H          1 MOL1         0.0998
      17    C5      18.038760   20.246666   21.615295 C.3        1 MOL1        -0.2317
      18    H12     17.250560   20.300317   22.377556 H          1 MOL1         0.1009
      19    H13     17.615685   20.612210   20.670597 H          1 MOL1         0.1009
      20    H14     18.843139   20.934353   21.905049 H          1 MOL1         0.1009
@<TRIPOS>BOND
    1     1     2    1
    2     1     3    1
    3     1     4    1
    4     1     5    1
    5     5     6    1
    6     5     7    1
    7     7     8    1
    8     7     9    1
    9     7    10    1
   10     5    11    1
   11    11    12    1
   12    11    13    1
   13    11    14    1
   14    14    15    1
   15    14    16    1
   16    14    17    1
   17    17    18    1
   18    17    19    1
   19    17    20    1
@<TRIPOS>SUBSTRUCTURE
       1 MOL1            1 RESIDUE      1      MOL     
@<SCITEGIC>MOL_PROPERTY
VConf Rank
SciTegic.value.IntegerValue
256

@<SCITEGIC>MOL_PROPERTY
Conf_Id
SciTegic.value.IntegerValue
50

@<SCITEGIC>MOL_PROPERTY
Delta U+W
SciTegic.value.DoubleValue
0.466

@<SCITEGIC>MOL_PROPERTY
U+W
SciTegic.value.DoubleValue
-35.811

@<SCITEGIC>MOL_PROPERTY
Grad RMS
SciTegic.value.DoubleValue
0.000000

@<SCITEGIC>MOL_PROPERTY
U
SciTegic.value.DoubleValue
22.369

@<SCITEGIC>MOL_PROPERTY
W
SciTegic.value.DoubleValue
-58.180

@<SCITEGIC>MOL_PROPERTY
W(PB)
SciTegic.value.DoubleValue
-60.103

@<SCITEGIC>MOL_PROPERTY
W(SA)
SciTegic.value.DoubleValue
1.923

@<SCITEGIC>MOL_PROPERTY
Valence
SciTegic.value.DoubleValue
2.168

@<SCITEGIC>MOL_PROPERTY
Coulomb
SciTegic.value.DoubleValue
19.636

@<SCITEGIC>MOL_PROPERTY
VdW
SciTegic.value.DoubleValue
0.566

@<SCITEGIC>MOL_PROPERTY
VdW6
SciTegic.value.DoubleValue
-5.263

@<SCITEGIC>MOL_PROPERTY
VdW12
SciTegic.value.DoubleValue
5.829

@<SCITEGIC>MOL_PROPERTY
Bond
SciTegic.value.DoubleValue
0.162

@<SCITEGIC>MOL_PROPERTY
Angle
SciTegic.value.DoubleValue
1.066

@<SCITEGIC>MOL_PROPERTY
Pdih
SciTegic.value.DoubleValue
0.939

@<SCITEGIC>MOL_PROPERTY
Idih
SciTegic.value.DoubleValue
0.000

@<SCITEGIC>MOL_PROPERTY
Tether
SciTegic.value.DoubleValue
0.000

@<TRIPOS>MOLECULE
guest-s10_confgen4.mol2 : confsearch ligand conformer 257
          20          19           1
SMALL
USER_CHARGES
 
@<TRIPOS>ATOM
       1    N1      20.498265   18.124452   20.737182 N.4        1 MOL1        -0.5937
       2    H1      20.443128   17.104634   20.807374 H          1 MOL1         0.3684
       3    H2      21.489132   18.376621   20.698902 H          1 MOL1         0.3684
       4    H3      20.082289   18.388506   19.839978 H          1 MOL1         0.3684
       5    C1      19.800289   18.798501   21.887429 C.3        1 MOL1         0.1270
       6    H4      18.757799   18.467802   21.847218 H          1 MOL1         0.0960
       7    C2      19.840708   20.327279   21.705309 C.3        1 MOL1        -0.2382
       8    H5      20.873735   20.696531   21.692066 H          1 MOL1         0.1009
       9    H6      19.309616   20.843385   22.512381 H          1 MOL1         0.1009
      10    H7      19.365707   20.616290   20.759807 H          1 MOL1         0.1009
      11    C3      20.389750   18.368621   23.253434 C.3        1 MOL1        -0.1392
      12    H8      20.974815   17.449209   23.119072 H          1 MOL1         0.0998
      13    H9      21.101714   19.121121   23.617938 H          1 MOL1         0.0998
      14    C4      19.319007   18.079631   24.335920 C.3        1 MOL1        -0.1302
      15    H10     19.824187   17.708875   25.238840 H          1 MOL1         0.0998
      16    H11     18.664174   17.264715   23.996527 H          1 MOL1         0.0998
      17    C5      18.457753   19.304358   24.716081 C.3        1 MOL1        -0.2317
      18    H12     19.085949   20.151876   25.019579 H          1 MOL1         0.1009
      19    H13     17.795391   19.061008   25.556972 H          1 MOL1         0.1009
      20    H14     17.822270   19.622629   23.880321 H          1 MOL1         0.1009
@<TRIPOS>BOND
    1     1     2    1
    2     1     3    1
    3     1     4    1
    4     1     5    1
    5     5     6    1
    6     5     7    1
    7     7     8    1
    8     7     9    1
    9     7    10    1
   10     5    11    1
   11    11    12    1
   12    11    13    1
   13    11    14    1
   14    14    15    1
   15    14    16    1
   16    14    17    1
   17    17    18    1
   18    17    19    1
   19    17    20    1
@<TRIPOS>SUBSTRUCTURE
       1 MOL1            1 RESIDUE      1      MOL     
@<SCITEGIC>MOL_PROPERTY
VConf Rank
SciTegic.value.IntegerValue
257

@<SCITEGIC>MOL_PROPERTY
Conf_Id
SciTegic.value.IntegerValue
3

@<SCITEGIC>MOL_PROPERTY
Delta U+W
SciTegic.value.DoubleValue
3.093

@<SCITEGIC>MOL_PROPERTY
U+W
SciTegic.value.DoubleValue
-33.184

@<SCITEGIC>MOL_PROPERTY
Grad RMS
SciTegic.value.DoubleValue
0.000000

@<SCITEGIC>MOL_PROPERTY
U
SciTegic.value.DoubleValue
25.256

@<SCITEGIC>MOL_PROPERTY
W
SciTegic.value.DoubleValue
-58.439

@<SCITEGIC>MOL_PROPERTY
W(PB)
SciTegic.value.DoubleValue
-60.337

@<SCITEGIC>MOL_PROPERTY
W(SA)
SciTegic.value.DoubleValue
1.898

@<SCITEGIC>MOL_PROPERTY
Valence
SciTegic.value.DoubleValue
4.963

@<SCITEGIC>MOL_PROPERTY
Coulomb
SciTegic.value.DoubleValue
19.511

@<SCITEGIC>MOL_PROPERTY
VdW
SciTegic.value.DoubleValue
0.782

@<SCITEGIC>MOL_PROPERTY
VdW6
SciTegic.value.DoubleValue
-5.429

@<SCITEGIC>MOL_PROPERTY
VdW12
SciTegic.value.DoubleValue
6.211

@<SCITEGIC>MOL_PROPERTY
Bond
SciTegic.value.DoubleValue
0.174

@<SCITEGIC>MOL_PROPERTY
Angle
SciTegic.value.DoubleValue
1.377

@<SCITEGIC>MOL_PROPERTY
Pdih
SciTegic.value.DoubleValue
3.412

@<SCITEGIC>MOL_PROPERTY
Idih
SciTegic.value.DoubleValue
0.000

@<SCITEGIC>MOL_PROPERTY
Tether
SciTegic.value.DoubleValue
0.000

@<TRIPOS>MOLECULE
guest-s10_confgen4.mol2 : confsearch ligand conformer 258
          20          19           1
SMALL
USER_CHARGES
 
@<TRIPOS>ATOM
       1    N1      20.799241   20.789553   22.046146 N.4        1 MOL1        -0.5937
       2    H1      20.782201   21.681877   22.547248 H          1 MOL1         0.3684
       3    H2      20.407753   20.957944   21.115441 H          1 MOL1         0.3684
       4    H3      21.780858   20.528898   21.922980 H          1 MOL1         0.3684
       5    C1      20.034111   19.727176   22.786627 C.3        1 MOL1         0.1270
       6    H4      19.006636   20.093203   22.872750 H          1 MOL1         0.0960
       7    C2      20.605892   19.545445   24.204421 C.3        1 MOL1        -0.2382
       8    H5      19.976487   18.878191   24.804552 H          1 MOL1         0.1009
       9    H6      20.651346   20.507490   24.729338 H          1 MOL1         0.1009
      10    H7      21.619317   19.126533   24.173252 H          1 MOL1         0.1009
      11    C3      20.011784   18.398187   21.994340 C.3        1 MOL1        -0.1392
      12    H8      19.672219   18.604988   20.970888 H          1 MOL1         0.0998
      13    H9      21.035747   18.012303   21.903082 H          1 MOL1         0.0998
      14    C4      19.105793   17.292694   22.594482 C.3        1 MOL1        -0.1302
      15    H10     19.496588   16.965375   23.567321 H          1 MOL1         0.0998
      16    H11     19.148862   16.409665   21.941610 H          1 MOL1         0.0998
      17    C5      17.631703   17.732730   22.744734 C.3        1 MOL1        -0.2317
      18    H12     17.219514   18.067421   21.783880 H          1 MOL1         0.1009
      19    H13     17.526982   18.551736   23.467456 H          1 MOL1         0.1009
      20    H14     17.015273   16.897056   23.100657 H          1 MOL1         0.1009
@<TRIPOS>BOND
    1     1     2    1
    2     1     3    1
    3     1     4    1
    4     1     5    1
    5     5     6    1
    6     5     7    1
    7     7     8    1
    8     7     9    1
    9     7    10    1
   10     5    11    1
   11    11    12    1
   12    11    13    1
   13    11    14    1
   14    14    15    1
   15    14    16    1
   16    14    17    1
   17    17    18    1
   18    17    19    1
   19    17    20    1
@<TRIPOS>SUBSTRUCTURE
       1 MOL1            1 RESIDUE      1      MOL     
@<SCITEGIC>MOL_PROPERTY
VConf Rank
SciTegic.value.IntegerValue
258

@<SCITEGIC>MOL_PROPERTY
Conf_Id
SciTegic.value.IntegerValue
64

@<SCITEGIC>MOL_PROPERTY
Delta U+W
SciTegic.value.DoubleValue
0.544

@<SCITEGIC>MOL_PROPERTY
U+W
SciTegic.value.DoubleValue
-35.732

@<SCITEGIC>MOL_PROPERTY
Grad RMS
SciTegic.value.DoubleValue
0.000000

@<SCITEGIC>MOL_PROPERTY
U
SciTegic.value.DoubleValue
22.800

@<SCITEGIC>MOL_PROPERTY
W
SciTegic.value.DoubleValue
-58.532

@<SCITEGIC>MOL_PROPERTY
W(PB)
SciTegic.value.DoubleValue
-60.437

@<SCITEGIC>MOL_PROPERTY
W(SA)
SciTegic.value.DoubleValue
1.905

@<SCITEGIC>MOL_PROPERTY
Valence
SciTegic.value.DoubleValue
2.662

@<SCITEGIC>MOL_PROPERTY
Coulomb
SciTegic.value.DoubleValue
19.485

@<SCITEGIC>MOL_PROPERTY
VdW
SciTegic.value.DoubleValue
0.653

@<SCITEGIC>MOL_PROPERTY
VdW6
SciTegic.value.DoubleValue
-5.460

@<SCITEGIC>MOL_PROPERTY
VdW12
SciTegic.value.DoubleValue
6.113

@<SCITEGIC>MOL_PROPERTY
Bond
SciTegic.value.DoubleValue
0.174

@<SCITEGIC>MOL_PROPERTY
Angle
SciTegic.value.DoubleValue
1.378

@<SCITEGIC>MOL_PROPERTY
Pdih
SciTegic.value.DoubleValue
1.109

@<SCITEGIC>MOL_PROPERTY
Idih
SciTegic.value.DoubleValue
0.000

@<SCITEGIC>MOL_PROPERTY
Tether
SciTegic.value.DoubleValue
0.000

@<TRIPOS>MOLECULE
guest-s10_confgen4.mol2 : confsearch ligand conformer 259
          20          19           1
SMALL
USER_CHARGES
 
@<TRIPOS>ATOM
       1    N1      20.059220   19.867184   20.830757 N.4        1 MOL1        -0.5937
       2    H1      19.778869   20.650921   21.424417 H          1 MOL1         0.3684
       3    H2      19.503739   19.919764   19.972684 H          1 MOL1         0.3684
       4    H3      21.037496   20.014986   20.568478 H          1 MOL1         0.3684
       5    C1      19.866747   18.549077   21.531029 C.3        1 MOL1         0.1270
       6    H4      20.181019   17.781948   20.816389 H          1 MOL1         0.0960
       7    C2      18.380955   18.305548   21.842217 C.3        1 MOL1        -0.2382
       8    H5      17.959794   19.115577   22.449001 H          1 MOL1         0.1009
       9    H6      18.243983   17.358798   22.379098 H          1 MOL1         0.1009
      10    H7      17.799836   18.248329   20.913779 H          1 MOL1         0.1009
      11    C3      20.776577   18.405180   22.777000 C.3        1 MOL1        -0.1392
      12    H8      20.728676   17.372054   23.145583 H          1 MOL1         0.0998
      13    H9      21.813425   18.544069   22.443627 H          1 MOL1         0.0998
      14    C4      20.504139   19.394179   23.944426 C.3        1 MOL1        -0.1302
      15    H10     20.123255   20.351811   23.565943 H          1 MOL1         0.0998
      16    H11     21.461358   19.625160   24.432650 H          1 MOL1         0.0998
      17    C5      19.548935   18.829933   25.022367 C.3        1 MOL1        -0.2317
      18    H12     18.552679   18.615092   24.620751 H          1 MOL1         0.1009
      19    H13     19.426550   19.550810   25.841100 H          1 MOL1         0.1009
      20    H14     19.947366   17.902523   25.453882 H          1 MOL1         0.1009
@<TRIPOS>BOND
    1     1     2    1
    2     1     3    1
    3     1     4    1
    4     1     5    1
    5     5     6    1
    6     5     7    1
    7     7     8    1
    8     7     9    1
    9     7    10    1
   10     5    11    1
   11    11    12    1
   12    11    13    1
   13    11    14    1
   14    14    15    1
   15    14    16    1
   16    14    17    1
   17    17    18    1
   18    17    19    1
   19    17    20    1
@<TRIPOS>SUBSTRUCTURE
       1 MOL1            1 RESIDUE      1      MOL     
@<SCITEGIC>MOL_PROPERTY
VConf Rank
SciTegic.value.IntegerValue
259

@<SCITEGIC>MOL_PROPERTY
Conf_Id
SciTegic.value.IntegerValue
35

@<SCITEGIC>MOL_PROPERTY
Delta U+W
SciTegic.value.DoubleValue
3.004

@<SCITEGIC>MOL_PROPERTY
U+W
SciTegic.value.DoubleValue
-33.272

@<SCITEGIC>MOL_PROPERTY
Grad RMS
SciTegic.value.DoubleValue
0.000000

@<SCITEGIC>MOL_PROPERTY
U
SciTegic.value.DoubleValue
25.367

@<SCITEGIC>MOL_PROPERTY
W
SciTegic.value.DoubleValue
-58.639

@<SCITEGIC>MOL_PROPERTY
W(PB)
SciTegic.value.DoubleValue
-60.512

@<SCITEGIC>MOL_PROPERTY
W(SA)
SciTegic.value.DoubleValue
1.873

@<SCITEGIC>MOL_PROPERTY
Valence
SciTegic.value.DoubleValue
4.943

@<SCITEGIC>MOL_PROPERTY
Coulomb
SciTegic.value.DoubleValue
19.661

@<SCITEGIC>MOL_PROPERTY
VdW
SciTegic.value.DoubleValue
0.764

@<SCITEGIC>MOL_PROPERTY
VdW6
SciTegic.value.DoubleValue
-5.871

@<SCITEGIC>MOL_PROPERTY
VdW12
SciTegic.value.DoubleValue
6.636

@<SCITEGIC>MOL_PROPERTY
Bond
SciTegic.value.DoubleValue
0.230

@<SCITEGIC>MOL_PROPERTY
Angle
SciTegic.value.DoubleValue
1.857

@<SCITEGIC>MOL_PROPERTY
Pdih
SciTegic.value.DoubleValue
2.855

@<SCITEGIC>MOL_PROPERTY
Idih
SciTegic.value.DoubleValue
0.000

@<SCITEGIC>MOL_PROPERTY
Tether
SciTegic.value.DoubleValue
0.000

@<TRIPOS>MOLECULE
guest-s10_confgen4.mol2 : confsearch ligand conformer 260
          20          19           1
SMALL
USER_CHARGES
 
@<TRIPOS>ATOM
       1    N1      20.863083   18.289252   21.435432 N.4        1 MOL1        -0.5937
       2    H1      21.762864   18.500225   20.995562 H          1 MOL1         0.3684
       3    H2      20.367116   17.640436   20.818475 H          1 MOL1         0.3684
       4    H3      21.053492   17.795274   22.309347 H          1 MOL1         0.3684
       5    C1      20.061658   19.538472   21.679624 C.3        1 MOL1         0.1270
       6    H4      19.892626   19.971901   20.688920 H          1 MOL1         0.0960
       7    C2      20.860860   20.567051   22.499265 C.3        1 MOL1        -0.2382
       8    H5      21.151024   20.167371   23.478221 H          1 MOL1         0.1009
       9    H6      20.271798   21.478395   22.660134 H          1 MOL1         0.1009
      10    H7      21.777256   20.852774   21.968653 H          1 MOL1         0.1009
      11    C3      18.664681   19.254353   22.288758 C.3        1 MOL1        -0.1392
      12    H8      18.048836   20.151147   22.140302 H          1 MOL1         0.0998
      13    H9      18.175214   18.465464   21.702846 H          1 MOL1         0.0998
      14    C4      18.606656   18.883107   23.797202 C.3        1 MOL1        -0.1302
      15    H10     17.550679   18.760178   24.075817 H          1 MOL1         0.0998
      16    H11     18.977311   19.716595   24.409203 H          1 MOL1         0.0998
      17    C5      19.360878   17.587215   24.172350 C.3        1 MOL1        -0.2317
      18    H12     19.072057   16.754534   23.517854 H          1 MOL1         0.1009
      19    H13     19.125338   17.295958   25.204271 H          1 MOL1         0.1009
      20    H14     20.447184   17.721843   24.116835 H          1 MOL1         0.1009
@<TRIPOS>BOND
    1     1     2    1
    2     1     3    1
    3     1     4    1
    4     1     5    1
    5     5     6    1
    6     5     7    1
    7     7     8    1
    8     7     9    1
    9     7    10    1
   10     5    11    1
   11    11    12    1
   12    11    13    1
   13    11    14    1
   14    14    15    1
   15    14    16    1
   16    14    17    1
   17    17    18    1
   18    17    19    1
   19    17    20    1
@<TRIPOS>SUBSTRUCTURE
       1 MOL1            1 RESIDUE      1      MOL     
@<SCITEGIC>MOL_PROPERTY
VConf Rank
SciTegic.value.IntegerValue
260

@<SCITEGIC>MOL_PROPERTY
Conf_Id
SciTegic.value.IntegerValue
55

@<SCITEGIC>MOL_PROPERTY
Delta U+W
SciTegic.value.DoubleValue
2.767

@<SCITEGIC>MOL_PROPERTY
U+W
SciTegic.value.DoubleValue
-33.509

@<SCITEGIC>MOL_PROPERTY
Grad RMS
SciTegic.value.DoubleValue
0.000000

@<SCITEGIC>MOL_PROPERTY
U
SciTegic.value.DoubleValue
24.552

@<SCITEGIC>MOL_PROPERTY
W
SciTegic.value.DoubleValue
-58.061

@<SCITEGIC>MOL_PROPERTY
W(PB)
SciTegic.value.DoubleValue
-59.930

@<SCITEGIC>MOL_PROPERTY
W(SA)
SciTegic.value.DoubleValue
1.869

@<SCITEGIC>MOL_PROPERTY
Valence
SciTegic.value.DoubleValue
3.726

@<SCITEGIC>MOL_PROPERTY
Coulomb
SciTegic.value.DoubleValue
20.219

@<SCITEGIC>MOL_PROPERTY
VdW
SciTegic.value.DoubleValue
0.606

@<SCITEGIC>MOL_PROPERTY
VdW6
SciTegic.value.DoubleValue
-6.395

@<SCITEGIC>MOL_PROPERTY
VdW12
SciTegic.value.DoubleValue
7.001

@<SCITEGIC>MOL_PROPERTY
Bond
SciTegic.value.DoubleValue
0.241

@<SCITEGIC>MOL_PROPERTY
Angle
SciTegic.value.DoubleValue
2.098

@<SCITEGIC>MOL_PROPERTY
Pdih
SciTegic.value.DoubleValue
1.387

@<SCITEGIC>MOL_PROPERTY
Idih
SciTegic.value.DoubleValue
0.000

@<SCITEGIC>MOL_PROPERTY
Tether
SciTegic.value.DoubleValue
0.000

@<TRIPOS>MOLECULE
guest-s10_confgen4.mol2 : confsearch ligand conformer 261
          20          19           1
SMALL
USER_CHARGES
 
@<TRIPOS>ATOM
       1    N1      20.863407   20.574921   22.840948 N.4        1 MOL1        -0.5937
       2    H1      21.148558   20.615185   21.859309 H          1 MOL1         0.3684
       3    H2      21.575387   21.068511   23.386027 H          1 MOL1         0.3684
       4    H3      19.992124   21.103594   22.930123 H          1 MOL1         0.3684
       5    C1      20.697929   19.154243   23.309297 C.3        1 MOL1         0.1270
       6    H4      20.390646   19.202443   24.358650 H          1 MOL1         0.0960
       7    C2      22.036440   18.401446   23.234097 C.3        1 MOL1        -0.2382
       8    H5      22.805496   18.916562   23.822716 H          1 MOL1         0.1009
       9    H6      22.392122   18.325523   22.198955 H          1 MOL1         0.1009
      10    H7      21.935813   17.385554   23.635937 H          1 MOL1         0.1009
      11    C3      19.608737   18.392777   22.521909 C.3        1 MOL1        -0.1392
      12    H8      19.881955   18.350721   21.459130 H          1 MOL1         0.0998
      13    H9      19.575394   17.354288   22.877572 H          1 MOL1         0.0998
      14    C4      18.201304   19.018037   22.675861 C.3        1 MOL1        -0.1302
      15    H10     18.193889   20.040422   22.274489 H          1 MOL1         0.0998
      16    H11     17.943825   19.092633   23.741874 H          1 MOL1         0.0998
      17    C5      17.124842   18.185105   21.947330 C.3        1 MOL1        -0.2317
      18    H12     17.338103   18.117557   20.872522 H          1 MOL1         0.1009
      19    H13     16.134267   18.643199   22.065632 H          1 MOL1         0.1009
      20    H14     17.073771   17.165203   22.350347 H          1 MOL1         0.1009
@<TRIPOS>BOND
    1     1     2    1
    2     1     3    1
    3     1     4    1
    4     1     5    1
    5     5     6    1
    6     5     7    1
    7     7     8    1
    8     7     9    1
    9     7    10    1
   10     5    11    1
   11    11    12    1
   12    11    13    1
   13    11    14    1
   14    14    15    1
   15    14    16    1
   16    14    17    1
   17    17    18    1
   18    17    19    1
   19    17    20    1
@<TRIPOS>SUBSTRUCTURE
       1 MOL1            1 RESIDUE      1      MOL     
@<SCITEGIC>MOL_PROPERTY
VConf Rank
SciTegic.value.IntegerValue
261

@<SCITEGIC>MOL_PROPERTY
Conf_Id
SciTegic.value.IntegerValue
74

@<SCITEGIC>MOL_PROPERTY
Delta U+W
SciTegic.value.DoubleValue
0.000

@<SCITEGIC>MOL_PROPERTY
U+W
SciTegic.value.DoubleValue
-36.276

@<SCITEGIC>MOL_PROPERTY
Grad RMS
SciTegic.value.DoubleValue
0.000000

@<SCITEGIC>MOL_PROPERTY
U
SciTegic.value.DoubleValue
22.080

@<SCITEGIC>MOL_PROPERTY
W
SciTegic.value.DoubleValue
-58.356

@<SCITEGIC>MOL_PROPERTY
W(PB)
SciTegic.value.DoubleValue
-60.289

@<SCITEGIC>MOL_PROPERTY
W(SA)
SciTegic.value.DoubleValue
1.932

@<SCITEGIC>MOL_PROPERTY
Valence
SciTegic.value.DoubleValue
1.885

@<SCITEGIC>MOL_PROPERTY
Coulomb
SciTegic.value.DoubleValue
19.559

@<SCITEGIC>MOL_PROPERTY
VdW
SciTegic.value.DoubleValue
0.637

@<SCITEGIC>MOL_PROPERTY
VdW6
SciTegic.value.DoubleValue
-4.482

@<SCITEGIC>MOL_PROPERTY
VdW12
SciTegic.value.DoubleValue
5.119

@<SCITEGIC>MOL_PROPERTY
Bond
SciTegic.value.DoubleValue
0.136

@<SCITEGIC>MOL_PROPERTY
Angle
SciTegic.value.DoubleValue
0.867

@<SCITEGIC>MOL_PROPERTY
Pdih
SciTegic.value.DoubleValue
0.882

@<SCITEGIC>MOL_PROPERTY
Idih
SciTegic.value.DoubleValue
0.000

@<SCITEGIC>MOL_PROPERTY
Tether
SciTegic.value.DoubleValue
0.000

@<TRIPOS>MOLECULE
guest-s10_confgen4.mol2 : confsearch ligand conformer 262
          20          19           1
SMALL
USER_CHARGES
 
@<TRIPOS>ATOM
       1    N1      18.297522   17.696770   21.267979 N.4        1 MOL1        -0.5937
       2    H1      18.503527   16.731997   21.541167 H          1 MOL1         0.3684
       3    H2      18.789076   17.877911   20.389179 H          1 MOL1         0.3684
       4    H3      17.294306   17.747347   21.071309 H          1 MOL1         0.3684
       5    C1      18.699069   18.674999   22.337696 C.3        1 MOL1         0.1270
       6    H4      18.125812   18.407403   23.230800 H          1 MOL1         0.0960
       7    C2      18.313485   20.107007   21.923594 C.3        1 MOL1        -0.2382
       8    H5      17.254480   20.155793   21.641904 H          1 MOL1         0.1009
       9    H6      18.908897   20.446746   21.067065 H          1 MOL1         0.1009
      10    H7      18.461407   20.814457   22.747522 H          1 MOL1         0.1009
      11    C3      20.203452   18.550300   22.673509 C.3        1 MOL1        -0.1392
      12    H8      20.432650   17.491610   22.853245 H          1 MOL1         0.0998
      13    H9      20.802654   18.854587   21.805053 H          1 MOL1         0.0998
      14    C4      20.636297   19.364658   23.917145 C.3        1 MOL1        -0.1302
      15    H10     19.994838   19.105900   24.771338 H          1 MOL1         0.0998
      16    H11     20.504720   20.439357   23.733815 H          1 MOL1         0.0998
      17    C5      22.111691   19.099345   24.286607 C.3        1 MOL1        -0.2317
      18    H12     22.276877   18.039479   24.520346 H          1 MOL1         0.1009
      19    H13     22.402529   19.686823   25.167159 H          1 MOL1         0.1009
      20    H14     22.781170   19.375749   23.461587 H          1 MOL1         0.1009
@<TRIPOS>BOND
    1     1     2    1
    2     1     3    1
    3     1     4    1
    4     1     5    1
    5     5     6    1
    6     5     7    1
    7     7     8    1
    8     7     9    1
    9     7    10    1
   10     5    11    1
   11    11    12    1
   12    11    13    1
   13    11    14    1
   14    14    15    1
   15    14    16    1
   16    14    17    1
   17    17    18    1
   18    17    19    1
   19    17    20    1
@<TRIPOS>SUBSTRUCTURE
       1 MOL1            1 RESIDUE      1      MOL     
@<SCITEGIC>MOL_PROPERTY
VConf Rank
SciTegic.value.IntegerValue
262

@<SCITEGIC>MOL_PROPERTY
Conf_Id
SciTegic.value.IntegerValue
80

@<SCITEGIC>MOL_PROPERTY
Delta U+W
SciTegic.value.DoubleValue
0.460

@<SCITEGIC>MOL_PROPERTY
U+W
SciTegic.value.DoubleValue
-35.817

@<SCITEGIC>MOL_PROPERTY
Grad RMS
SciTegic.value.DoubleValue
0.000000

@<SCITEGIC>MOL_PROPERTY
U
SciTegic.value.DoubleValue
22.495

@<SCITEGIC>MOL_PROPERTY
W
SciTegic.value.DoubleValue
-58.311

@<SCITEGIC>MOL_PROPERTY
W(PB)
SciTegic.value.DoubleValue
-60.259

@<SCITEGIC>MOL_PROPERTY
W(SA)
SciTegic.value.DoubleValue
1.948

@<SCITEGIC>MOL_PROPERTY
Valence
SciTegic.value.DoubleValue
2.419

@<SCITEGIC>MOL_PROPERTY
Coulomb
SciTegic.value.DoubleValue
19.304

@<SCITEGIC>MOL_PROPERTY
VdW
SciTegic.value.DoubleValue
0.772

@<SCITEGIC>MOL_PROPERTY
VdW6
SciTegic.value.DoubleValue
-4.635

@<SCITEGIC>MOL_PROPERTY
VdW12
SciTegic.value.DoubleValue
5.407

@<SCITEGIC>MOL_PROPERTY
Bond
SciTegic.value.DoubleValue
0.149

@<SCITEGIC>MOL_PROPERTY
Angle
SciTegic.value.DoubleValue
1.142

@<SCITEGIC>MOL_PROPERTY
Pdih
SciTegic.value.DoubleValue
1.129

@<SCITEGIC>MOL_PROPERTY
Idih
SciTegic.value.DoubleValue
0.000

@<SCITEGIC>MOL_PROPERTY
Tether
SciTegic.value.DoubleValue
0.000

@<TRIPOS>MOLECULE
guest-s10_confgen4.mol2 : confsearch ligand conformer 263
          20          19           1
SMALL
USER_CHARGES
 
@<TRIPOS>ATOM
       1    N1      17.723289   17.714741   23.251499 N.4        1 MOL1        -0.5937
       2    H1      17.882682   16.997363   23.964082 H          1 MOL1         0.3684
       3    H2      17.659864   17.239988   22.347466 H          1 MOL1         0.3684
       4    H3      16.807701   18.131033   23.441278 H          1 MOL1         0.3684
       5    C1      18.811686   18.753071   23.254675 C.3        1 MOL1         0.1270
       6    H4      18.799217   19.206676   24.250610 H          1 MOL1         0.0960
       7    C2      18.501352   19.852710   22.224750 C.3        1 MOL1        -0.2382
       8    H5      17.478358   20.226865   22.353726 H          1 MOL1         0.1009
       9    H6      18.600074   19.476835   21.198872 H          1 MOL1         0.1009
      10    H7      19.174304   20.708617   22.349519 H          1 MOL1         0.1009
      11    C3      20.200516   18.102951   23.040590 C.3        1 MOL1        -0.1392
      12    H8      20.313649   17.312338   23.794131 H          1 MOL1         0.0998
      13    H9      20.235757   17.594956   22.067745 H          1 MOL1         0.0998
      14    C4      21.405983   19.069110   23.185599 C.3        1 MOL1        -0.1302
      15    H10     22.232510   18.528062   23.667510 H          1 MOL1         0.0998
      16    H11     21.153054   19.896851   23.862975 H          1 MOL1         0.0998
      17    C5      21.920931   19.617144   21.833741 C.3        1 MOL1        -0.2317
      18    H12     22.247263   18.799384   21.178078 H          1 MOL1         0.1009
      19    H13     22.781599   20.280107   21.990953 H          1 MOL1         0.1009
      20    H14     21.154047   20.190256   21.300849 H          1 MOL1         0.1009
@<TRIPOS>BOND
    1     1     2    1
    2     1     3    1
    3     1     4    1
    4     1     5    1
    5     5     6    1
    6     5     7    1
    7     7     8    1
    8     7     9    1
    9     7    10    1
   10     5    11    1
   11    11    12    1
   12    11    13    1
   13    11    14    1
   14    14    15    1
   15    14    16    1
   16    14    17    1
   17    17    18    1
   18    17    19    1
   19    17    20    1
@<TRIPOS>SUBSTRUCTURE
       1 MOL1            1 RESIDUE      1      MOL     
@<SCITEGIC>MOL_PROPERTY
VConf Rank
SciTegic.value.IntegerValue
263

@<SCITEGIC>MOL_PROPERTY
Conf_Id
SciTegic.value.IntegerValue
52

@<SCITEGIC>MOL_PROPERTY
Delta U+W
SciTegic.value.DoubleValue
2.995

@<SCITEGIC>MOL_PROPERTY
U+W
SciTegic.value.DoubleValue
-33.282

@<SCITEGIC>MOL_PROPERTY
Grad RMS
SciTegic.value.DoubleValue
0.000000

@<SCITEGIC>MOL_PROPERTY
U
SciTegic.value.DoubleValue
25.224

@<SCITEGIC>MOL_PROPERTY
W
SciTegic.value.DoubleValue
-58.506

@<SCITEGIC>MOL_PROPERTY
W(PB)
SciTegic.value.DoubleValue
-60.411

@<SCITEGIC>MOL_PROPERTY
W(SA)
SciTegic.value.DoubleValue
1.905

@<SCITEGIC>MOL_PROPERTY
Valence
SciTegic.value.DoubleValue
4.945

@<SCITEGIC>MOL_PROPERTY
Coulomb
SciTegic.value.DoubleValue
19.467

@<SCITEGIC>MOL_PROPERTY
VdW
SciTegic.value.DoubleValue
0.813

@<SCITEGIC>MOL_PROPERTY
VdW6
SciTegic.value.DoubleValue
-5.458

@<SCITEGIC>MOL_PROPERTY
VdW12
SciTegic.value.DoubleValue
6.270

@<SCITEGIC>MOL_PROPERTY
Bond
SciTegic.value.DoubleValue
0.200

@<SCITEGIC>MOL_PROPERTY
Angle
SciTegic.value.DoubleValue
1.675

@<SCITEGIC>MOL_PROPERTY
Pdih
SciTegic.value.DoubleValue
3.070

@<SCITEGIC>MOL_PROPERTY
Idih
SciTegic.value.DoubleValue
0.000

@<SCITEGIC>MOL_PROPERTY
Tether
SciTegic.value.DoubleValue
0.000

@<TRIPOS>MOLECULE
guest-s10_confgen4.mol2 : confsearch ligand conformer 264
          20          19           1
SMALL
USER_CHARGES
 
@<TRIPOS>ATOM
       1    N1      21.143038   19.831685   22.918728 N.4        1 MOL1        -0.5937
       2    H1      21.033119   20.346558   23.795769 H          1 MOL1         0.3684
       3    H2      21.872741   20.302412   22.376881 H          1 MOL1         0.3684
       4    H3      21.486212   18.897761   23.153254 H          1 MOL1         0.3684
       5    C1      19.847350   19.762209   22.157404 C.3        1 MOL1         0.1270
       6    H4      20.054041   19.243352   21.216234 H          1 MOL1         0.0960
       7    C2      19.360273   21.183064   21.826212 C.3        1 MOL1        -0.2382
       8    H5      19.122674   21.744180   22.738656 H          1 MOL1         0.1009
       9    H6      18.460076   21.151939   21.199857 H          1 MOL1         0.1009
      10    H7      20.128110   21.738321   21.273536 H          1 MOL1         0.1009
      11    C3      18.748631   18.977900   22.913652 C.3        1 MOL1        -0.1392
      12    H8      18.698043   19.316084   23.957035 H          1 MOL1         0.0998
      13    H9      17.774507   19.225284   22.470970 H          1 MOL1         0.0998
      14    C4      18.896698   17.434633   22.858790 C.3        1 MOL1        -0.1302
      15    H10     18.898980   17.099908   21.811895 H          1 MOL1         0.0998
      16    H11     18.002544   16.988675   23.316652 H          1 MOL1         0.0998
      17    C5      20.143396   16.875741   23.581693 C.3        1 MOL1        -0.2317
      18    H12     20.070861   15.784067   23.672652 H          1 MOL1         0.1009
      19    H13     20.235951   17.287747   24.595103 H          1 MOL1         0.1009
      20    H14     21.063145   17.088750   23.024801 H          1 MOL1         0.1009
@<TRIPOS>BOND
    1     1     2    1
    2     1     3    1
    3     1     4    1
    4     1     5    1
    5     5     6    1
    6     5     7    1
    7     7     8    1
    8     7     9    1
    9     7    10    1
   10     5    11    1
   11    11    12    1
   12    11    13    1
   13    11    14    1
   14    14    15    1
   15    14    16    1
   16    14    17    1
   17    17    18    1
   18    17    19    1
   19    17    20    1
@<TRIPOS>SUBSTRUCTURE
       1 MOL1            1 RESIDUE      1      MOL     
@<SCITEGIC>MOL_PROPERTY
VConf Rank
SciTegic.value.IntegerValue
264

@<SCITEGIC>MOL_PROPERTY
Conf_Id
SciTegic.value.IntegerValue
54

@<SCITEGIC>MOL_PROPERTY
Delta U+W
SciTegic.value.DoubleValue
2.752

@<SCITEGIC>MOL_PROPERTY
U+W
SciTegic.value.DoubleValue
-33.525

@<SCITEGIC>MOL_PROPERTY
Grad RMS
SciTegic.value.DoubleValue
0.000000

@<SCITEGIC>MOL_PROPERTY
U
SciTegic.value.DoubleValue
24.337

@<SCITEGIC>MOL_PROPERTY
W
SciTegic.value.DoubleValue
-57.862

@<SCITEGIC>MOL_PROPERTY
W(PB)
SciTegic.value.DoubleValue
-59.764

@<SCITEGIC>MOL_PROPERTY
W(SA)
SciTegic.value.DoubleValue
1.901

@<SCITEGIC>MOL_PROPERTY
Valence
SciTegic.value.DoubleValue
3.593

@<SCITEGIC>MOL_PROPERTY
Coulomb
SciTegic.value.DoubleValue
20.067

@<SCITEGIC>MOL_PROPERTY
VdW
SciTegic.value.DoubleValue
0.677

@<SCITEGIC>MOL_PROPERTY
VdW6
SciTegic.value.DoubleValue
-5.466

@<SCITEGIC>MOL_PROPERTY
VdW12
SciTegic.value.DoubleValue
6.144

@<SCITEGIC>MOL_PROPERTY
Bond
SciTegic.value.DoubleValue
0.191

@<SCITEGIC>MOL_PROPERTY
Angle
SciTegic.value.DoubleValue
1.557

@<SCITEGIC>MOL_PROPERTY
Pdih
SciTegic.value.DoubleValue
1.845

@<SCITEGIC>MOL_PROPERTY
Idih
SciTegic.value.DoubleValue
0.000

@<SCITEGIC>MOL_PROPERTY
Tether
SciTegic.value.DoubleValue
0.000

@<TRIPOS>MOLECULE
guest-s10_confgen4.mol2 : confsearch ligand conformer 265
          20          19           1
SMALL
USER_CHARGES
 
@<TRIPOS>ATOM
       1    N1      20.326885   20.838724   22.068755 N.4        1 MOL1        -0.5937
       2    H1      21.123509   21.410684   21.775656 H          1 MOL1         0.3684
       3    H2      19.651892   21.464726   22.516210 H          1 MOL1         0.3684
       4    H3      19.888748   20.468829   21.222196 H          1 MOL1         0.3684
       5    C1      20.754235   19.732812   22.995154 C.3        1 MOL1         0.1270
       6    H4      21.222714   20.222227   23.854819 H          1 MOL1         0.0960
       7    C2      21.818175   18.838165   22.334486 C.3        1 MOL1        -0.2382
       8    H5      22.125747   18.032259   23.012267 H          1 MOL1         0.1009
       9    H6      22.712261   19.423786   22.088023 H          1 MOL1         0.1009
      10    H7      21.448941   18.385262   21.406808 H          1 MOL1         0.1009
      11    C3      19.556408   18.912941   23.531881 C.3        1 MOL1        -0.1392
      12    H8      19.927204   18.186290   24.266880 H          1 MOL1         0.0998
      13    H9      18.893158   19.589875   24.086197 H          1 MOL1         0.0998
      14    C4      18.733619   18.169781   22.447872 C.3        1 MOL1        -0.1302
      15    H10     19.368993   17.449112   21.915942 H          1 MOL1         0.0998
      16    H11     18.362726   18.881926   21.698574 H          1 MOL1         0.0998
      17    C5      17.534215   17.417783   23.063710 C.3        1 MOL1        -0.2317
      18    H12     16.963048   16.895295   22.285352 H          1 MOL1         0.1009
      19    H13     16.852089   18.110975   23.573034 H          1 MOL1         0.1009
      20    H14     17.869509   16.669854   23.794054 H          1 MOL1         0.1009
@<TRIPOS>BOND
    1     1     2    1
    2     1     3    1
    3     1     4    1
    4     1     5    1
    5     5     6    1
    6     5     7    1
    7     7     8    1
    8     7     9    1
    9     7    10    1
   10     5    11    1
   11    11    12    1
   12    11    13    1
   13    11    14    1
   14    14    15    1
   15    14    16    1
   16    14    17    1
   17    17    18    1
   18    17    19    1
   19    17    20    1
@<TRIPOS>SUBSTRUCTURE
       1 MOL1            1 RESIDUE      1      MOL     
@<SCITEGIC>MOL_PROPERTY
VConf Rank
SciTegic.value.IntegerValue
265

@<SCITEGIC>MOL_PROPERTY
Conf_Id
SciTegic.value.IntegerValue
63

@<SCITEGIC>MOL_PROPERTY
Delta U+W
SciTegic.value.DoubleValue
0.420

@<SCITEGIC>MOL_PROPERTY
U+W
SciTegic.value.DoubleValue
-35.856

@<SCITEGIC>MOL_PROPERTY
Grad RMS
SciTegic.value.DoubleValue
0.000000

@<SCITEGIC>MOL_PROPERTY
U
SciTegic.value.DoubleValue
22.625

@<SCITEGIC>MOL_PROPERTY
W
SciTegic.value.DoubleValue
-58.481

@<SCITEGIC>MOL_PROPERTY
W(PB)
SciTegic.value.DoubleValue
-60.400

@<SCITEGIC>MOL_PROPERTY
W(SA)
SciTegic.value.DoubleValue
1.919

@<SCITEGIC>MOL_PROPERTY
Valence
SciTegic.value.DoubleValue
2.404

@<SCITEGIC>MOL_PROPERTY
Coulomb
SciTegic.value.DoubleValue
19.464

@<SCITEGIC>MOL_PROPERTY
VdW
SciTegic.value.DoubleValue
0.757

@<SCITEGIC>MOL_PROPERTY
VdW6
SciTegic.value.DoubleValue
-5.074

@<SCITEGIC>MOL_PROPERTY
VdW12
SciTegic.value.DoubleValue
5.830

@<SCITEGIC>MOL_PROPERTY
Bond
SciTegic.value.DoubleValue
0.172

@<SCITEGIC>MOL_PROPERTY
Angle
SciTegic.value.DoubleValue
1.207

@<SCITEGIC>MOL_PROPERTY
Pdih
SciTegic.value.DoubleValue
1.025

@<SCITEGIC>MOL_PROPERTY
Idih
SciTegic.value.DoubleValue
0.000

@<SCITEGIC>MOL_PROPERTY
Tether
SciTegic.value.DoubleValue
0.000

@<TRIPOS>MOLECULE
guest-s10_confgen4.mol2 : confsearch ligand conformer 266
          20          19           1
SMALL
USER_CHARGES
 
@<TRIPOS>ATOM
       1    N1      21.030233   18.429938   21.746853 N.4        1 MOL1        -0.5937
       2    H1      20.848700   17.512958   22.162866 H          1 MOL1         0.3684
       3    H2      21.920004   18.767665   22.121911 H          1 MOL1         0.3684
       4    H3      21.155758   18.289802   20.740797 H          1 MOL1         0.3684
       5    C1      19.909928   19.392375   22.034620 C.3        1 MOL1         0.1270
       6    H4      19.003760   18.959417   21.600414 H          1 MOL1         0.0960
       7    C2      20.167719   20.745601   21.352097 C.3        1 MOL1        -0.2382
       8    H5      20.295191   20.616900   20.270236 H          1 MOL1         0.1009
       9    H6      21.071771   21.224841   21.748042 H          1 MOL1         0.1009
      10    H7      19.323041   21.428051   21.508309 H          1 MOL1         0.1009
      11    C3      19.674815   19.589879   23.549445 C.3        1 MOL1        -0.1392
      12    H8      20.568935   20.039575   24.001281 H          1 MOL1         0.0998
      13    H9      18.861689   20.313796   23.693318 H          1 MOL1         0.0998
      14    C4      19.321614   18.287952   24.312421 C.3        1 MOL1        -0.1302
      15    H10     19.178579   18.529809   25.374942 H          1 MOL1         0.0998
      16    H11     20.164371   17.584485   24.274204 H          1 MOL1         0.0998
      17    C5      18.043906   17.600711   23.779009 C.3        1 MOL1        -0.2317
      18    H12     17.186396   18.285577   23.807563 H          1 MOL1         0.1009
      19    H13     17.793373   16.725535   24.392498 H          1 MOL1         0.1009
      20    H14     18.171574   17.254266   22.745774 H          1 MOL1         0.1009
@<TRIPOS>BOND
    1     1     2    1
    2     1     3    1
    3     1     4    1
    4     1     5    1
    5     5     6    1
    6     5     7    1
    7     7     8    1
    8     7     9    1
    9     7    10    1
   10     5    11    1
   11    11    12    1
   12    11    13    1
   13    11    14    1
   14    14    15    1
   15    14    16    1
   16    14    17    1
   17    17    18    1
   18    17    19    1
   19    17    20    1
@<TRIPOS>SUBSTRUCTURE
       1 MOL1            1 RESIDUE      1      MOL     
@<SCITEGIC>MOL_PROPERTY
VConf Rank
SciTegic.value.IntegerValue
266

@<SCITEGIC>MOL_PROPERTY
Conf_Id
SciTegic.value.IntegerValue
50

@<SCITEGIC>MOL_PROPERTY
Delta U+W
SciTegic.value.DoubleValue
0.466

@<SCITEGIC>MOL_PROPERTY
U+W
SciTegic.value.DoubleValue
-35.811

@<SCITEGIC>MOL_PROPERTY
Grad RMS
SciTegic.value.DoubleValue
0.000000

@<SCITEGIC>MOL_PROPERTY
U
SciTegic.value.DoubleValue
22.369

@<SCITEGIC>MOL_PROPERTY
W
SciTegic.value.DoubleValue
-58.180

@<SCITEGIC>MOL_PROPERTY
W(PB)
SciTegic.value.DoubleValue
-60.103

@<SCITEGIC>MOL_PROPERTY
W(SA)
SciTegic.value.DoubleValue
1.923

@<SCITEGIC>MOL_PROPERTY
Valence
SciTegic.value.DoubleValue
2.168

@<SCITEGIC>MOL_PROPERTY
Coulomb
SciTegic.value.DoubleValue
19.636

@<SCITEGIC>MOL_PROPERTY
VdW
SciTegic.value.DoubleValue
0.566

@<SCITEGIC>MOL_PROPERTY
VdW6
SciTegic.value.DoubleValue
-5.263

@<SCITEGIC>MOL_PROPERTY
VdW12
SciTegic.value.DoubleValue
5.829

@<SCITEGIC>MOL_PROPERTY
Bond
SciTegic.value.DoubleValue
0.162

@<SCITEGIC>MOL_PROPERTY
Angle
SciTegic.value.DoubleValue
1.066

@<SCITEGIC>MOL_PROPERTY
Pdih
SciTegic.value.DoubleValue
0.939

@<SCITEGIC>MOL_PROPERTY
Idih
SciTegic.value.DoubleValue
0.000

@<SCITEGIC>MOL_PROPERTY
Tether
SciTegic.value.DoubleValue
0.000

@<TRIPOS>MOLECULE
guest-s10_confgen4.mol2 : confsearch ligand conformer 267
          20          19           1
SMALL
USER_CHARGES
 
@<TRIPOS>ATOM
       1    N1      20.462907   16.755996   23.177727 N.4        1 MOL1        -0.5937
       2    H1      20.727346   16.763898   24.166669 H          1 MOL1         0.3684
       3    H2      21.320165   16.639649   22.631426 H          1 MOL1         0.3684
       4    H3      19.889317   15.922091   23.024979 H          1 MOL1         0.3684
       5    C1      19.726223   18.009657   22.790158 C.3        1 MOL1         0.1270
       6    H4      18.835143   18.047824   23.424415 H          1 MOL1         0.0960
       7    C2      19.281273   17.925482   21.318119 C.3        1 MOL1        -0.2382
       8    H5      20.145769   17.837666   20.648342 H          1 MOL1         0.1009
       9    H6      18.712163   18.811915   21.017887 H          1 MOL1         0.1009
      10    H7      18.638879   17.050901   21.158220 H          1 MOL1         0.1009
      11    C3      20.566434   19.281659   23.062717 C.3        1 MOL1        -0.1392
      12    H8      21.383659   19.031673   23.752153 H          1 MOL1         0.0998
      13    H9      21.053047   19.625002   22.140038 H          1 MOL1         0.0998
      14    C4      19.760990   20.440366   23.703372 C.3        1 MOL1        -0.1302
      15    H10     20.451961   21.264384   23.930278 H          1 MOL1         0.0998
      16    H11     19.350150   20.112386   24.668628 H          1 MOL1         0.0998
      17    C5      18.617262   20.981030   22.816915 C.3        1 MOL1        -0.2317
      18    H12     18.989021   21.278056   21.827674 H          1 MOL1         0.1009
      19    H13     18.157640   21.863663   23.280324 H          1 MOL1         0.1009
      20    H14     17.826328   20.232747   22.682289 H          1 MOL1         0.1009
@<TRIPOS>BOND
    1     1     2    1
    2     1     3    1
    3     1     4    1
    4     1     5    1
    5     5     6    1
    6     5     7    1
    7     7     8    1
    8     7     9    1
    9     7    10    1
   10     5    11    1
   11    11    12    1
   12    11    13    1
   13    11    14    1
   14    14    15    1
   15    14    16    1
   16    14    17    1
   17    17    18    1
   18    17    19    1
   19    17    20    1
@<TRIPOS>SUBSTRUCTURE
       1 MOL1            1 RESIDUE      1      MOL     
@<SCITEGIC>MOL_PROPERTY
VConf Rank
SciTegic.value.IntegerValue
267

@<SCITEGIC>MOL_PROPERTY
Conf_Id
SciTegic.value.IntegerValue
3

@<SCITEGIC>MOL_PROPERTY
Delta U+W
SciTegic.value.DoubleValue
3.093

@<SCITEGIC>MOL_PROPERTY
U+W
SciTegic.value.DoubleValue
-33.184

@<SCITEGIC>MOL_PROPERTY
Grad RMS
SciTegic.value.DoubleValue
0.000000

@<SCITEGIC>MOL_PROPERTY
U
SciTegic.value.DoubleValue
25.256

@<SCITEGIC>MOL_PROPERTY
W
SciTegic.value.DoubleValue
-58.439

@<SCITEGIC>MOL_PROPERTY
W(PB)
SciTegic.value.DoubleValue
-60.337

@<SCITEGIC>MOL_PROPERTY
W(SA)
SciTegic.value.DoubleValue
1.898

@<SCITEGIC>MOL_PROPERTY
Valence
SciTegic.value.DoubleValue
4.963

@<SCITEGIC>MOL_PROPERTY
Coulomb
SciTegic.value.DoubleValue
19.511

@<SCITEGIC>MOL_PROPERTY
VdW
SciTegic.value.DoubleValue
0.782

@<SCITEGIC>MOL_PROPERTY
VdW6
SciTegic.value.DoubleValue
-5.429

@<SCITEGIC>MOL_PROPERTY
VdW12
SciTegic.value.DoubleValue
6.211

@<SCITEGIC>MOL_PROPERTY
Bond
SciTegic.value.DoubleValue
0.174

@<SCITEGIC>MOL_PROPERTY
Angle
SciTegic.value.DoubleValue
1.377

@<SCITEGIC>MOL_PROPERTY
Pdih
SciTegic.value.DoubleValue
3.412

@<SCITEGIC>MOL_PROPERTY
Idih
SciTegic.value.DoubleValue
0.000

@<SCITEGIC>MOL_PROPERTY
Tether
SciTegic.value.DoubleValue
0.000

@<TRIPOS>MOLECULE
guest-s10_confgen4.mol2 : confsearch ligand conformer 268
          20          19           1
SMALL
USER_CHARGES
 
@<TRIPOS>ATOM
       1    N1      19.218201   17.500766   21.053214 N.4        1 MOL1        -0.5937
       2    H1      18.665205   17.766214   20.233843 H          1 MOL1         0.3684
       3    H2      18.724060   16.732721   21.515556 H          1 MOL1         0.3684
       4    H3      20.108758   17.130555   20.711840 H          1 MOL1         0.3684
       5    C1      19.423676   18.667034   21.980566 C.3        1 MOL1         0.1270
       6    H4      18.425726   18.994195   22.287419 H          1 MOL1         0.0960
       7    C2      20.108711   19.828108   21.237105 C.3        1 MOL1        -0.2382
       8    H5      20.140292   20.732684   21.855394 H          1 MOL1         0.1009
       9    H6      19.558492   20.079667   20.322168 H          1 MOL1         0.1009
      10    H7      21.136556   19.567915   20.955464 H          1 MOL1         0.1009
      11    C3      20.207263   18.244749   23.246305 C.3        1 MOL1        -0.1392
      12    H8      19.717255   17.366057   23.685984 H          1 MOL1         0.0998
      13    H9      21.215216   17.918464   22.957678 H          1 MOL1         0.0998
      14    C4      20.322604   19.336939   24.340343 C.3        1 MOL1        -0.1302
      15    H10     20.925388   20.179744   23.976193 H          1 MOL1         0.0998
      16    H11     20.873896   18.921440   25.195491 H          1 MOL1         0.0998
      17    C5      18.949725   19.850020   24.831364 C.3        1 MOL1        -0.2317
      18    H12     18.327329   19.023457   25.198210 H          1 MOL1         0.1009
      19    H13     18.401732   20.364000   24.031619 H          1 MOL1         0.1009
      20    H14     19.078222   20.563737   25.655447 H          1 MOL1         0.1009
@<TRIPOS>BOND
    1     1     2    1
    2     1     3    1
    3     1     4    1
    4     1     5    1
    5     5     6    1
    6     5     7    1
    7     7     8    1
    8     7     9    1
    9     7    10    1
   10     5    11    1
   11    11    12    1
   12    11    13    1
   13    11    14    1
   14    14    15    1
   15    14    16    1
   16    14    17    1
   17    17    18    1
   18    17    19    1
   19    17    20    1
@<TRIPOS>SUBSTRUCTURE
       1 MOL1            1 RESIDUE      1      MOL     
@<SCITEGIC>MOL_PROPERTY
VConf Rank
SciTegic.value.IntegerValue
268

@<SCITEGIC>MOL_PROPERTY
Conf_Id
SciTegic.value.IntegerValue
64

@<SCITEGIC>MOL_PROPERTY
Delta U+W
SciTegic.value.DoubleValue
0.544

@<SCITEGIC>MOL_PROPERTY
U+W
SciTegic.value.DoubleValue
-35.732

@<SCITEGIC>MOL_PROPERTY
Grad RMS
SciTegic.value.DoubleValue
0.000000

@<SCITEGIC>MOL_PROPERTY
U
SciTegic.value.DoubleValue
22.800

@<SCITEGIC>MOL_PROPERTY
W
SciTegic.value.DoubleValue
-58.532

@<SCITEGIC>MOL_PROPERTY
W(PB)
SciTegic.value.DoubleValue
-60.437

@<SCITEGIC>MOL_PROPERTY
W(SA)
SciTegic.value.DoubleValue
1.905

@<SCITEGIC>MOL_PROPERTY
Valence
SciTegic.value.DoubleValue
2.662

@<SCITEGIC>MOL_PROPERTY
Coulomb
SciTegic.value.DoubleValue
19.485

@<SCITEGIC>MOL_PROPERTY
VdW
SciTegic.value.DoubleValue
0.653

@<SCITEGIC>MOL_PROPERTY
VdW6
SciTegic.value.DoubleValue
-5.460

@<SCITEGIC>MOL_PROPERTY
VdW12
SciTegic.value.DoubleValue
6.113

@<SCITEGIC>MOL_PROPERTY
Bond
SciTegic.value.DoubleValue
0.174

@<SCITEGIC>MOL_PROPERTY
Angle
SciTegic.value.DoubleValue
1.378

@<SCITEGIC>MOL_PROPERTY
Pdih
SciTegic.value.DoubleValue
1.109

@<SCITEGIC>MOL_PROPERTY
Idih
SciTegic.value.DoubleValue
0.000

@<SCITEGIC>MOL_PROPERTY
Tether
SciTegic.value.DoubleValue
0.000

@<TRIPOS>MOLECULE
guest-s10_confgen4.mol2 : confsearch ligand conformer 269
          20          19           1
SMALL
USER_CHARGES
 
@<TRIPOS>ATOM
       1    N1      19.314759   18.441548   24.701688 N.4        1 MOL1        -0.5937
       2    H1      18.601756   19.139856   24.479731 H          1 MOL1         0.3684
       3    H2      19.720148   18.695609   25.606522 H          1 MOL1         0.3684
       4    H3      18.838207   17.543991   24.823959 H          1 MOL1         0.3684
       5    C1      20.367068   18.368078   23.628338 C.3        1 MOL1         0.1270
       6    H4      21.081730   17.608979   23.961489 H          1 MOL1         0.0960
       7    C2      21.129377   19.698497   23.516120 C.3        1 MOL1        -0.2382
       8    H5      20.449771   20.535016   23.315919 H          1 MOL1         0.1009
       9    H6      21.876137   19.654785   22.713763 H          1 MOL1         0.1009
      10    H7      21.658900   19.916291   24.451610 H          1 MOL1         0.1009
      11    C3      19.793524   17.884058   22.272715 C.3        1 MOL1        -0.1392
      12    H8      20.620155   17.680741   21.579288 H          1 MOL1         0.0998
      13    H9      19.317849   16.909979   22.447025 H          1 MOL1         0.0998
      14    C4      18.754024   18.818681   21.593639 C.3        1 MOL1        -0.1302
      15    H10     18.177037   19.374172   22.344569 H          1 MOL1         0.0998
      16    H11     18.024982   18.194174   21.058409 H          1 MOL1         0.0998
      17    C5      19.377851   19.797140   20.570796 C.3        1 MOL1        -0.2317
      18    H12     20.087553   20.487960   21.038841 H          1 MOL1         0.1009
      19    H13     18.596031   20.400962   20.092130 H          1 MOL1         0.1009
      20    H14     19.907755   19.252426   19.778628 H          1 MOL1         0.1009
@<TRIPOS>BOND
    1     1     2    1
    2     1     3    1
    3     1     4    1
    4     1     5    1
    5     5     6    1
    6     5     7    1
    7     7     8    1
    8     7     9    1
    9     7    10    1
   10     5    11    1
   11    11    12    1
   12    11    13    1
   13    11    14    1
   14    14    15    1
   15    14    16    1
   16    14    17    1
   17    17    18    1
   18    17    19    1
   19    17    20    1
@<TRIPOS>SUBSTRUCTURE
       1 MOL1            1 RESIDUE      1      MOL     
@<SCITEGIC>MOL_PROPERTY
VConf Rank
SciTegic.value.IntegerValue
269

@<SCITEGIC>MOL_PROPERTY
Conf_Id
SciTegic.value.IntegerValue
35

@<SCITEGIC>MOL_PROPERTY
Delta U+W
SciTegic.value.DoubleValue
3.004

@<SCITEGIC>MOL_PROPERTY
U+W
SciTegic.value.DoubleValue
-33.272

@<SCITEGIC>MOL_PROPERTY
Grad RMS
SciTegic.value.DoubleValue
0.000000

@<SCITEGIC>MOL_PROPERTY
U
SciTegic.value.DoubleValue
25.367

@<SCITEGIC>MOL_PROPERTY
W
SciTegic.value.DoubleValue
-58.639

@<SCITEGIC>MOL_PROPERTY
W(PB)
SciTegic.value.DoubleValue
-60.512

@<SCITEGIC>MOL_PROPERTY
W(SA)
SciTegic.value.DoubleValue
1.873

@<SCITEGIC>MOL_PROPERTY
Valence
SciTegic.value.DoubleValue
4.943

@<SCITEGIC>MOL_PROPERTY
Coulomb
SciTegic.value.DoubleValue
19.661

@<SCITEGIC>MOL_PROPERTY
VdW
SciTegic.value.DoubleValue
0.764

@<SCITEGIC>MOL_PROPERTY
VdW6
SciTegic.value.DoubleValue
-5.871

@<SCITEGIC>MOL_PROPERTY
VdW12
SciTegic.value.DoubleValue
6.636

@<SCITEGIC>MOL_PROPERTY
Bond
SciTegic.value.DoubleValue
0.230

@<SCITEGIC>MOL_PROPERTY
Angle
SciTegic.value.DoubleValue
1.857

@<SCITEGIC>MOL_PROPERTY
Pdih
SciTegic.value.DoubleValue
2.855

@<SCITEGIC>MOL_PROPERTY
Idih
SciTegic.value.DoubleValue
0.000

@<SCITEGIC>MOL_PROPERTY
Tether
SciTegic.value.DoubleValue
0.000

@<TRIPOS>MOLECULE
guest-s10_confgen4.mol2 : confsearch ligand conformer 270
          20          19           1
SMALL
USER_CHARGES
 
@<TRIPOS>ATOM
       1    N1      21.285126   18.368367   23.487714 N.4        1 MOL1        -0.5937
       2    H1      22.294542   18.533026   23.448129 H          1 MOL1         0.3684
       3    H2      21.141425   17.467459   23.951713 H          1 MOL1         0.3684
       4    H3      20.876674   19.089098   24.085804 H          1 MOL1         0.3684
       5    C1      20.668789   18.385757   22.115748 C.3        1 MOL1         0.1270
       6    H4      21.152333   17.568762   21.571110 H          1 MOL1         0.0960
       7    C2      20.996799   19.691057   21.369347 C.3        1 MOL1        -0.2382
       8    H5      20.623016   20.570193   21.907585 H          1 MOL1         0.1009
       9    H6      20.553369   19.687217   20.365965 H          1 MOL1         0.1009
      10    H7      22.081445   19.805079   21.253119 H          1 MOL1         0.1009
      11    C3      19.149390   18.078231   22.128666 C.3        1 MOL1        -0.1392
      12    H8      18.857284   17.803541   21.106530 H          1 MOL1         0.0998
      13    H9      18.973983   17.178482   22.732736 H          1 MOL1         0.0998
      14    C4      18.196870   19.210002   22.606571 C.3        1 MOL1        -0.1302
      15    H10     17.164015   18.846698   22.511462 H          1 MOL1         0.0998
      16    H11     18.267143   20.076152   21.934650 H          1 MOL1         0.0998
      17    C5      18.417778   19.665712   24.066863 C.3        1 MOL1        -0.2317
      18    H12     18.438173   18.808851   24.752803 H          1 MOL1         0.1009
      19    H13     17.601849   20.327339   24.385736 H          1 MOL1         0.1009
      20    H14     19.350606   20.230521   24.176819 H          1 MOL1         0.1009
@<TRIPOS>BOND
    1     1     2    1
    2     1     3    1
    3     1     4    1
    4     1     5    1
    5     5     6    1
    6     5     7    1
    7     7     8    1
    8     7     9    1
    9     7    10    1
   10     5    11    1
   11    11    12    1
   12    11    13    1
   13    11    14    1
   14    14    15    1
   15    14    16    1
   16    14    17    1
   17    17    18    1
   18    17    19    1
   19    17    20    1
@<TRIPOS>SUBSTRUCTURE
       1 MOL1            1 RESIDUE      1      MOL     
@<SCITEGIC>MOL_PROPERTY
VConf Rank
SciTegic.value.IntegerValue
270

@<SCITEGIC>MOL_PROPERTY
Conf_Id
SciTegic.value.IntegerValue
55

@<SCITEGIC>MOL_PROPERTY
Delta U+W
SciTegic.value.DoubleValue
2.767

@<SCITEGIC>MOL_PROPERTY
U+W
SciTegic.value.DoubleValue
-33.509

@<SCITEGIC>MOL_PROPERTY
Grad RMS
SciTegic.value.DoubleValue
0.000000

@<SCITEGIC>MOL_PROPERTY
U
SciTegic.value.DoubleValue
24.552

@<SCITEGIC>MOL_PROPERTY
W
SciTegic.value.DoubleValue
-58.061

@<SCITEGIC>MOL_PROPERTY
W(PB)
SciTegic.value.DoubleValue
-59.930

@<SCITEGIC>MOL_PROPERTY
W(SA)
SciTegic.value.DoubleValue
1.869

@<SCITEGIC>MOL_PROPERTY
Valence
SciTegic.value.DoubleValue
3.726

@<SCITEGIC>MOL_PROPERTY
Coulomb
SciTegic.value.DoubleValue
20.219

@<SCITEGIC>MOL_PROPERTY
VdW
SciTegic.value.DoubleValue
0.606

@<SCITEGIC>MOL_PROPERTY
VdW6
SciTegic.value.DoubleValue
-6.395

@<SCITEGIC>MOL_PROPERTY
VdW12
SciTegic.value.DoubleValue
7.001

@<SCITEGIC>MOL_PROPERTY
Bond
SciTegic.value.DoubleValue
0.241

@<SCITEGIC>MOL_PROPERTY
Angle
SciTegic.value.DoubleValue
2.098

@<SCITEGIC>MOL_PROPERTY
Pdih
SciTegic.value.DoubleValue
1.387

@<SCITEGIC>MOL_PROPERTY
Idih
SciTegic.value.DoubleValue
0.000

@<SCITEGIC>MOL_PROPERTY
Tether
SciTegic.value.DoubleValue
0.000

@<TRIPOS>MOLECULE
guest-s10_confgen4.mol2 : confsearch ligand conformer 271
          20          19           1
SMALL
USER_CHARGES
 
@<TRIPOS>ATOM
       1    N1      18.102710   19.894185   23.271736 N.4        1 MOL1        -0.5937
       2    H1      18.314771   20.798572   22.843181 H          1 MOL1         0.3684
       3    H2      17.448165   20.066338   24.039584 H          1 MOL1         0.3684
       4    H3      17.610613   19.330879   22.573804 H          1 MOL1         0.3684
       5    C1      19.351146   19.207052   23.755800 C.3        1 MOL1         0.1270
       6    H4      19.036795   18.253966   24.192490 H          1 MOL1         0.0960
       7    C2      20.033386   20.038032   24.854886 C.3        1 MOL1        -0.2382
       8    H5      19.343768   20.221063   25.688067 H          1 MOL1         0.1009
       9    H6      20.368336   21.008920   24.468908 H          1 MOL1         0.1009
      10    H7      20.907285   19.510552   25.257010 H          1 MOL1         0.1009
      11    C3      20.346099   18.909234   22.612331 C.3        1 MOL1        -0.1392
      12    H8      20.659734   19.850000   22.140624 H          1 MOL1         0.0998
      13    H9      21.251031   18.456544   23.039224 H          1 MOL1         0.0998
      14    C4      19.768572   17.953702   21.540445 C.3        1 MOL1        -0.1302
      15    H10     18.893321   18.409001   21.057677 H          1 MOL1         0.0998
      16    H11     19.422032   17.026712   22.018820 H          1 MOL1         0.0998
      17    C5      20.815854   17.610178   20.459476 C.3        1 MOL1        -0.2317
      18    H12     21.160034   18.514820   19.941385 H          1 MOL1         0.1009
      19    H13     20.389364   16.933545   19.707572 H          1 MOL1         0.1009
      20    H14     21.690992   17.114631   20.899704 H          1 MOL1         0.1009
@<TRIPOS>BOND
    1     1     2    1
    2     1     3    1
    3     1     4    1
    4     1     5    1
    5     5     6    1
    6     5     7    1
    7     7     8    1
    8     7     9    1
    9     7    10    1
   10     5    11    1
   11    11    12    1
   12    11    13    1
   13    11    14    1
   14    14    15    1
   15    14    16    1
   16    14    17    1
   17    17    18    1
   18    17    19    1
   19    17    20    1
@<TRIPOS>SUBSTRUCTURE
       1 MOL1            1 RESIDUE      1      MOL     
@<SCITEGIC>MOL_PROPERTY
VConf Rank
SciTegic.value.IntegerValue
271

@<SCITEGIC>MOL_PROPERTY
Conf_Id
SciTegic.value.IntegerValue
74

@<SCITEGIC>MOL_PROPERTY
Delta U+W
SciTegic.value.DoubleValue
0.000

@<SCITEGIC>MOL_PROPERTY
U+W
SciTegic.value.DoubleValue
-36.276

@<SCITEGIC>MOL_PROPERTY
Grad RMS
SciTegic.value.DoubleValue
0.000000

@<SCITEGIC>MOL_PROPERTY
U
SciTegic.value.DoubleValue
22.080

@<SCITEGIC>MOL_PROPERTY
W
SciTegic.value.DoubleValue
-58.356

@<SCITEGIC>MOL_PROPERTY
W(PB)
SciTegic.value.DoubleValue
-60.289

@<SCITEGIC>MOL_PROPERTY
W(SA)
SciTegic.value.DoubleValue
1.932

@<SCITEGIC>MOL_PROPERTY
Valence
SciTegic.value.DoubleValue
1.885

@<SCITEGIC>MOL_PROPERTY
Coulomb
SciTegic.value.DoubleValue
19.559

@<SCITEGIC>MOL_PROPERTY
VdW
SciTegic.value.DoubleValue
0.637

@<SCITEGIC>MOL_PROPERTY
VdW6
SciTegic.value.DoubleValue
-4.482

@<SCITEGIC>MOL_PROPERTY
VdW12
SciTegic.value.DoubleValue
5.119

@<SCITEGIC>MOL_PROPERTY
Bond
SciTegic.value.DoubleValue
0.136

@<SCITEGIC>MOL_PROPERTY
Angle
SciTegic.value.DoubleValue
0.867

@<SCITEGIC>MOL_PROPERTY
Pdih
SciTegic.value.DoubleValue
0.882

@<SCITEGIC>MOL_PROPERTY
Idih
SciTegic.value.DoubleValue
0.000

@<SCITEGIC>MOL_PROPERTY
Tether
SciTegic.value.DoubleValue
0.000

@<TRIPOS>MOLECULE
guest-s10_confgen4.mol2 : confsearch ligand conformer 272
          20          19           1
SMALL
USER_CHARGES
 
@<TRIPOS>ATOM
       1    N1      17.468340   19.625363   23.004619 N.4        1 MOL1        -0.5937
       2    H1      17.416368   19.759922   24.018053 H          1 MOL1         0.3684
       3    H2      17.018172   18.731868   22.790747 H          1 MOL1         0.3684
       4    H3      16.903382   20.361594   22.572801 H          1 MOL1         0.3684
       5    C1      18.888934   19.660551   22.511526 C.3        1 MOL1         0.1270
       6    H4      19.283938   20.645314   22.780001 H          1 MOL1         0.0960
       7    C2      18.925420   19.523687   20.978315 C.3        1 MOL1        -0.2382
       8    H5      18.266175   20.263932   20.508574 H          1 MOL1         0.1009
       9    H6      18.597130   18.526250   20.660627 H          1 MOL1         0.1009
      10    H7      19.934407   19.694804   20.586030 H          1 MOL1         0.1009
      11    C3      19.751435   18.585915   23.213480 C.3        1 MOL1        -0.1392
      12    H8      19.596664   18.669783   24.297304 H          1 MOL1         0.0998
      13    H9      19.401520   17.585420   22.926395 H          1 MOL1         0.0998
      14    C4      21.266872   18.712019   22.922428 C.3        1 MOL1        -0.1302
      15    H10     21.604430   19.732879   23.150398 H          1 MOL1         0.0998
      16    H11     21.465758   18.541265   21.856037 H          1 MOL1         0.0998
      17    C5      22.091899   17.703576   23.750711 C.3        1 MOL1        -0.2317
      18    H12     21.954335   17.869089   24.827242 H          1 MOL1         0.1009
      19    H13     23.162428   17.804133   23.529479 H          1 MOL1         0.1009
      20    H14     21.796851   16.670876   23.523254 H          1 MOL1         0.1009
@<TRIPOS>BOND
    1     1     2    1
    2     1     3    1
    3     1     4    1
    4     1     5    1
    5     5     6    1
    6     5     7    1
    7     7     8    1
    8     7     9    1
    9     7    10    1
   10     5    11    1
   11    11    12    1
   12    11    13    1
   13    11    14    1
   14    14    15    1
   15    14    16    1
   16    14    17    1
   17    17    18    1
   18    17    19    1
   19    17    20    1
@<TRIPOS>SUBSTRUCTURE
       1 MOL1            1 RESIDUE      1      MOL     
@<SCITEGIC>MOL_PROPERTY
VConf Rank
SciTegic.value.IntegerValue
272

@<SCITEGIC>MOL_PROPERTY
Conf_Id
SciTegic.value.IntegerValue
80

@<SCITEGIC>MOL_PROPERTY
Delta U+W
SciTegic.value.DoubleValue
0.460

@<SCITEGIC>MOL_PROPERTY
U+W
SciTegic.value.DoubleValue
-35.817

@<SCITEGIC>MOL_PROPERTY
Grad RMS
SciTegic.value.DoubleValue
0.000000

@<SCITEGIC>MOL_PROPERTY
U
SciTegic.value.DoubleValue
22.495

@<SCITEGIC>MOL_PROPERTY
W
SciTegic.value.DoubleValue
-58.311

@<SCITEGIC>MOL_PROPERTY
W(PB)
SciTegic.value.DoubleValue
-60.259

@<SCITEGIC>MOL_PROPERTY
W(SA)
SciTegic.value.DoubleValue
1.948

@<SCITEGIC>MOL_PROPERTY
Valence
SciTegic.value.DoubleValue
2.419

@<SCITEGIC>MOL_PROPERTY
Coulomb
SciTegic.value.DoubleValue
19.304

@<SCITEGIC>MOL_PROPERTY
VdW
SciTegic.value.DoubleValue
0.772

@<SCITEGIC>MOL_PROPERTY
VdW6
SciTegic.value.DoubleValue
-4.635

@<SCITEGIC>MOL_PROPERTY
VdW12
SciTegic.value.DoubleValue
5.407

@<SCITEGIC>MOL_PROPERTY
Bond
SciTegic.value.DoubleValue
0.149

@<SCITEGIC>MOL_PROPERTY
Angle
SciTegic.value.DoubleValue
1.142

@<SCITEGIC>MOL_PROPERTY
Pdih
SciTegic.value.DoubleValue
1.129

@<SCITEGIC>MOL_PROPERTY
Idih
SciTegic.value.DoubleValue
0.000

@<SCITEGIC>MOL_PROPERTY
Tether
SciTegic.value.DoubleValue
0.000

@<TRIPOS>MOLECULE
guest-s10_confgen4.mol2 : confsearch ligand conformer 273
          20          19           1
SMALL
USER_CHARGES
 
@<TRIPOS>ATOM
       1    N1      18.331966   20.628422   23.567979 N.4        1 MOL1        -0.5937
       2    H1      17.855244   21.116913   22.805140 H          1 MOL1         0.3684
       3    H2      19.101079   21.225941   23.881229 H          1 MOL1         0.3684
       4    H3      17.667319   20.556899   24.343055 H          1 MOL1         0.3684
       5    C1      18.824947   19.273712   23.138465 C.3        1 MOL1         0.1270
       6    H4      17.939538   18.709527   22.829360 H          1 MOL1         0.0960
       7    C2      19.468294   18.539769   24.327452 C.3        1 MOL1        -0.2382
       8    H5      18.802526   18.555978   25.199022 H          1 MOL1         0.1009
       9    H6      20.418804   19.005417   24.615819 H          1 MOL1         0.1009
      10    H7      19.654196   17.487300   24.085056 H          1 MOL1         0.1009
      11    C3      19.771497   19.387940   21.918494 C.3        1 MOL1        -0.1392
      12    H8      19.240741   19.954347   21.141851 H          1 MOL1         0.0998
      13    H9      20.652672   19.989966   22.177000 H          1 MOL1         0.0998
      14    C4      20.209177   18.034168   21.299318 C.3        1 MOL1        -0.1302
      15    H10     20.263517   18.149588   20.207602 H          1 MOL1         0.0998
      16    H11     19.445511   17.265310   21.482723 H          1 MOL1         0.0998
      17    C5      21.591939   17.549481   21.795385 C.3        1 MOL1        -0.2317
      18    H12     22.374532   18.278674   21.548518 H          1 MOL1         0.1009
      19    H13     21.860474   16.599260   21.315852 H          1 MOL1         0.1009
      20    H14     21.609862   17.390448   22.879327 H          1 MOL1         0.1009
@<TRIPOS>BOND
    1     1     2    1
    2     1     3    1
    3     1     4    1
    4     1     5    1
    5     5     6    1
    6     5     7    1
    7     7     8    1
    8     7     9    1
    9     7    10    1
   10     5    11    1
   11    11    12    1
   12    11    13    1
   13    11    14    1
   14    14    15    1
   15    14    16    1
   16    14    17    1
   17    17    18    1
   18    17    19    1
   19    17    20    1
@<TRIPOS>SUBSTRUCTURE
       1 MOL1            1 RESIDUE      1      MOL     
@<SCITEGIC>MOL_PROPERTY
VConf Rank
SciTegic.value.IntegerValue
273

@<SCITEGIC>MOL_PROPERTY
Conf_Id
SciTegic.value.IntegerValue
52

@<SCITEGIC>MOL_PROPERTY
Delta U+W
SciTegic.value.DoubleValue
2.995

@<SCITEGIC>MOL_PROPERTY
U+W
SciTegic.value.DoubleValue
-33.282

@<SCITEGIC>MOL_PROPERTY
Grad RMS
SciTegic.value.DoubleValue
0.000000

@<SCITEGIC>MOL_PROPERTY
U
SciTegic.value.DoubleValue
25.224

@<SCITEGIC>MOL_PROPERTY
W
SciTegic.value.DoubleValue
-58.506

@<SCITEGIC>MOL_PROPERTY
W(PB)
SciTegic.value.DoubleValue
-60.411

@<SCITEGIC>MOL_PROPERTY
W(SA)
SciTegic.value.DoubleValue
1.905

@<SCITEGIC>MOL_PROPERTY
Valence
SciTegic.value.DoubleValue
4.945

@<SCITEGIC>MOL_PROPERTY
Coulomb
SciTegic.value.DoubleValue
19.467

@<SCITEGIC>MOL_PROPERTY
VdW
SciTegic.value.DoubleValue
0.813

@<SCITEGIC>MOL_PROPERTY
VdW6
SciTegic.value.DoubleValue
-5.458

@<SCITEGIC>MOL_PROPERTY
VdW12
SciTegic.value.DoubleValue
6.270

@<SCITEGIC>MOL_PROPERTY
Bond
SciTegic.value.DoubleValue
0.200

@<SCITEGIC>MOL_PROPERTY
Angle
SciTegic.value.DoubleValue
1.675

@<SCITEGIC>MOL_PROPERTY
Pdih
SciTegic.value.DoubleValue
3.070

@<SCITEGIC>MOL_PROPERTY
Idih
SciTegic.value.DoubleValue
0.000

@<SCITEGIC>MOL_PROPERTY
Tether
SciTegic.value.DoubleValue
0.000

@<TRIPOS>MOLECULE
guest-s10_confgen4.mol2 : confsearch ligand conformer 274
          20          19           1
SMALL
USER_CHARGES
 
@<TRIPOS>ATOM
       1    N1      20.357983   20.316388   23.498656 N.4        1 MOL1        -0.5937
       2    H1      21.372508   20.219664   23.410565 H          1 MOL1         0.3684
       3    H2      20.177709   20.945352   24.285773 H          1 MOL1         0.3684
       4    H3      20.019927   20.777262   22.651131 H          1 MOL1         0.3684
       5    C1      19.694691   18.980527   23.695557 C.3        1 MOL1         0.1270
       6    H4      18.624907   19.168555   23.829510 H          1 MOL1         0.0960
       7    C2      20.230008   18.316071   24.975281 C.3        1 MOL1        -0.2382
       8    H5      21.300212   18.090532   24.887793 H          1 MOL1         0.1009
       9    H6      19.698729   17.378454   25.180857 H          1 MOL1         0.1009
      10    H7      20.088740   18.972699   25.842586 H          1 MOL1         0.1009
      11    C3      19.874169   18.037110   22.482303 C.3        1 MOL1        -0.1392
      12    H8      20.925146   18.031587   22.164512 H          1 MOL1         0.0998
      13    H9      19.652391   17.010068   22.801808 H          1 MOL1         0.0998
      14    C4      18.952308   18.348849   21.274164 C.3        1 MOL1        -0.1302
      15    H10     17.900508   18.305851   21.590242 H          1 MOL1         0.0998
      16    H11     19.077877   17.547640   20.532326 H          1 MOL1         0.0998
      17    C5      19.227247   19.702099   20.579667 C.3        1 MOL1        -0.2317
      18    H12     18.682342   19.757122   19.628174 H          1 MOL1         0.1009
      19    H13     20.295165   19.827967   20.358249 H          1 MOL1         0.1009
      20    H14     18.887825   20.546472   21.190622 H          1 MOL1         0.1009
@<TRIPOS>BOND
    1     1     2    1
    2     1     3    1
    3     1     4    1
    4     1     5    1
    5     5     6    1
    6     5     7    1
    7     7     8    1
    8     7     9    1
    9     7    10    1
   10     5    11    1
   11    11    12    1
   12    11    13    1
   13    11    14    1
   14    14    15    1
   15    14    16    1
   16    14    17    1
   17    17    18    1
   18    17    19    1
   19    17    20    1
@<TRIPOS>SUBSTRUCTURE
       1 MOL1            1 RESIDUE      1      MOL     
@<SCITEGIC>MOL_PROPERTY
VConf Rank
SciTegic.value.IntegerValue
274

@<SCITEGIC>MOL_PROPERTY
Conf_Id
SciTegic.value.IntegerValue
54

@<SCITEGIC>MOL_PROPERTY
Delta U+W
SciTegic.value.DoubleValue
2.752

@<SCITEGIC>MOL_PROPERTY
U+W
SciTegic.value.DoubleValue
-33.525

@<SCITEGIC>MOL_PROPERTY
Grad RMS
SciTegic.value.DoubleValue
0.000000

@<SCITEGIC>MOL_PROPERTY
U
SciTegic.value.DoubleValue
24.337

@<SCITEGIC>MOL_PROPERTY
W
SciTegic.value.DoubleValue
-57.862

@<SCITEGIC>MOL_PROPERTY
W(PB)
SciTegic.value.DoubleValue
-59.764

@<SCITEGIC>MOL_PROPERTY
W(SA)
SciTegic.value.DoubleValue
1.901

@<SCITEGIC>MOL_PROPERTY
Valence
SciTegic.value.DoubleValue
3.593

@<SCITEGIC>MOL_PROPERTY
Coulomb
SciTegic.value.DoubleValue
20.067

@<SCITEGIC>MOL_PROPERTY
VdW
SciTegic.value.DoubleValue
0.677

@<SCITEGIC>MOL_PROPERTY
VdW6
SciTegic.value.DoubleValue
-5.466

@<SCITEGIC>MOL_PROPERTY
VdW12
SciTegic.value.DoubleValue
6.144

@<SCITEGIC>MOL_PROPERTY
Bond
SciTegic.value.DoubleValue
0.191

@<SCITEGIC>MOL_PROPERTY
Angle
SciTegic.value.DoubleValue
1.557

@<SCITEGIC>MOL_PROPERTY
Pdih
SciTegic.value.DoubleValue
1.845

@<SCITEGIC>MOL_PROPERTY
Idih
SciTegic.value.DoubleValue
0.000

@<SCITEGIC>MOL_PROPERTY
Tether
SciTegic.value.DoubleValue
0.000

@<TRIPOS>MOLECULE
guest-s10_confgen4.mol2 : confsearch ligand conformer 275
          20          19           1
SMALL
USER_CHARGES
 
@<TRIPOS>ATOM
       1    N1      19.018477   18.884265   24.625065 N.4        1 MOL1        -0.5937
       2    H1      18.518103   19.415428   25.342802 H          1 MOL1         0.3684
       3    H2      19.648903   18.239166   25.108926 H          1 MOL1         0.3684
       4    H3      18.327244   18.321076   24.124603 H          1 MOL1         0.3684
       5    C1      19.768486   19.793468   23.689798 C.3        1 MOL1         0.1270
       6    H4      20.465295   20.361623   24.314041 H          1 MOL1         0.0960
       7    C2      18.818850   20.802030   23.019101 C.3        1 MOL1        -0.2382
       8    H5      19.369077   21.461757   22.336837 H          1 MOL1         0.1009
       9    H6      18.335511   21.434119   23.774040 H          1 MOL1         0.1009
      10    H7      18.029031   20.299039   22.448813 H          1 MOL1         0.1009
      11    C3      20.613432   19.012739   22.654627 C.3        1 MOL1        -0.1392
      12    H8      21.201543   19.729611   22.066448 H          1 MOL1         0.0998
      13    H9      21.343618   18.397145   23.196182 H          1 MOL1         0.0998
      14    C4      19.799298   18.108390   21.693543 C.3        1 MOL1        -0.1302
      15    H10     19.097910   18.714171   21.104392 H          1 MOL1         0.0998
      16    H11     19.197308   17.390682   22.266837 H          1 MOL1         0.0998
      17    C5      20.721458   17.333107   20.728201 C.3        1 MOL1        -0.2317
      18    H12     20.131430   16.699539   20.053275 H          1 MOL1         0.1009
      19    H13     21.414152   16.683576   21.279114 H          1 MOL1         0.1009
      20    H14     21.314950   18.020371   20.111227 H          1 MOL1         0.1009
@<TRIPOS>BOND
    1     1     2    1
    2     1     3    1
    3     1     4    1
    4     1     5    1
    5     5     6    1
    6     5     7    1
    7     7     8    1
    8     7     9    1
    9     7    10    1
   10     5    11    1
   11    11    12    1
   12    11    13    1
   13    11    14    1
   14    14    15    1
   15    14    16    1
   16    14    17    1
   17    17    18    1
   18    17    19    1
   19    17    20    1
@<TRIPOS>SUBSTRUCTURE
       1 MOL1            1 RESIDUE      1      MOL     
@<SCITEGIC>MOL_PROPERTY
VConf Rank
SciTegic.value.IntegerValue
275

@<SCITEGIC>MOL_PROPERTY
Conf_Id
SciTegic.value.IntegerValue
63

@<SCITEGIC>MOL_PROPERTY
Delta U+W
SciTegic.value.DoubleValue
0.420

@<SCITEGIC>MOL_PROPERTY
U+W
SciTegic.value.DoubleValue
-35.856

@<SCITEGIC>MOL_PROPERTY
Grad RMS
SciTegic.value.DoubleValue
0.000000

@<SCITEGIC>MOL_PROPERTY
U
SciTegic.value.DoubleValue
22.625

@<SCITEGIC>MOL_PROPERTY
W
SciTegic.value.DoubleValue
-58.481

@<SCITEGIC>MOL_PROPERTY
W(PB)
SciTegic.value.DoubleValue
-60.400

@<SCITEGIC>MOL_PROPERTY
W(SA)
SciTegic.value.DoubleValue
1.919

@<SCITEGIC>MOL_PROPERTY
Valence
SciTegic.value.DoubleValue
2.404

@<SCITEGIC>MOL_PROPERTY
Coulomb
SciTegic.value.DoubleValue
19.464

@<SCITEGIC>MOL_PROPERTY
VdW
SciTegic.value.DoubleValue
0.757

@<SCITEGIC>MOL_PROPERTY
VdW6
SciTegic.value.DoubleValue
-5.074

@<SCITEGIC>MOL_PROPERTY
VdW12
SciTegic.value.DoubleValue
5.830

@<SCITEGIC>MOL_PROPERTY
Bond
SciTegic.value.DoubleValue
0.172

@<SCITEGIC>MOL_PROPERTY
Angle
SciTegic.value.DoubleValue
1.207

@<SCITEGIC>MOL_PROPERTY
Pdih
SciTegic.value.DoubleValue
1.025

@<SCITEGIC>MOL_PROPERTY
Idih
SciTegic.value.DoubleValue
0.000

@<SCITEGIC>MOL_PROPERTY
Tether
SciTegic.value.DoubleValue
0.000

@<TRIPOS>MOLECULE
guest-s10_confgen4.mol2 : confsearch ligand conformer 276
          20          19           1
SMALL
USER_CHARGES
 
@<TRIPOS>ATOM
       1    N1      20.951347   17.839397   22.273940 N.4        1 MOL1        -0.5937
       2    H1      20.302302   17.120092   22.602900 H          1 MOL1         0.3684
       3    H2      21.733385   17.873102   22.932500 H          1 MOL1         0.3684
       4    H3      21.323225   17.526754   21.373105 H          1 MOL1         0.3684
       5    C1      20.271667   19.176711   22.156437 C.3        1 MOL1         0.1270
       6    H4      19.456760   19.053408   21.436818 H          1 MOL1         0.0960
       7    C2      21.242492   20.232570   21.603108 C.3        1 MOL1        -0.2382
       8    H5      21.644557   19.919361   20.631778 H          1 MOL1         0.1009
       9    H6      22.085891   20.393977   22.286028 H          1 MOL1         0.1009
      10    H7      20.732287   21.192842   21.457538 H          1 MOL1         0.1009
      11    C3      19.666619   19.652049   23.496941 C.3        1 MOL1        -0.1392
      12    H8      20.472126   19.797593   24.228932 H          1 MOL1         0.0998
      13    H9      19.203864   20.637126   23.350625 H          1 MOL1         0.0998
      14    C4      18.608132   18.689531   24.092813 C.3        1 MOL1        -0.1302
      15    H10     18.243258   19.109875   25.040484 H          1 MOL1         0.0998
      16    H11     19.071042   17.726772   24.348496 H          1 MOL1         0.0998
      17    C5      17.403951   18.455867   23.152218 C.3        1 MOL1        -0.2317
      18    H12     16.924052   19.405643   22.882398 H          1 MOL1         0.1009
      19    H13     16.649243   17.827432   23.642681 H          1 MOL1         0.1009
      20    H14     17.705157   17.949032   22.226860 H          1 MOL1         0.1009
@<TRIPOS>BOND
    1     1     2    1
    2     1     3    1
    3     1     4    1
    4     1     5    1
    5     5     6    1
    6     5     7    1
    7     7     8    1
    8     7     9    1
    9     7    10    1
   10     5    11    1
   11    11    12    1
   12    11    13    1
   13    11    14    1
   14    14    15    1
   15    14    16    1
   16    14    17    1
   17    17    18    1
   18    17    19    1
   19    17    20    1
@<TRIPOS>SUBSTRUCTURE
       1 MOL1            1 RESIDUE      1      MOL     
@<SCITEGIC>MOL_PROPERTY
VConf Rank
SciTegic.value.IntegerValue
276

@<SCITEGIC>MOL_PROPERTY
Conf_Id
SciTegic.value.IntegerValue
50

@<SCITEGIC>MOL_PROPERTY
Delta U+W
SciTegic.value.DoubleValue
0.466

@<SCITEGIC>MOL_PROPERTY
U+W
SciTegic.value.DoubleValue
-35.811

@<SCITEGIC>MOL_PROPERTY
Grad RMS
SciTegic.value.DoubleValue
0.000000

@<SCITEGIC>MOL_PROPERTY
U
SciTegic.value.DoubleValue
22.369

@<SCITEGIC>MOL_PROPERTY
W
SciTegic.value.DoubleValue
-58.180

@<SCITEGIC>MOL_PROPERTY
W(PB)
SciTegic.value.DoubleValue
-60.103

@<SCITEGIC>MOL_PROPERTY
W(SA)
SciTegic.value.DoubleValue
1.923

@<SCITEGIC>MOL_PROPERTY
Valence
SciTegic.value.DoubleValue
2.168

@<SCITEGIC>MOL_PROPERTY
Coulomb
SciTegic.value.DoubleValue
19.636

@<SCITEGIC>MOL_PROPERTY
VdW
SciTegic.value.DoubleValue
0.566

@<SCITEGIC>MOL_PROPERTY
VdW6
SciTegic.value.DoubleValue
-5.263

@<SCITEGIC>MOL_PROPERTY
VdW12
SciTegic.value.DoubleValue
5.829

@<SCITEGIC>MOL_PROPERTY
Bond
SciTegic.value.DoubleValue
0.162

@<SCITEGIC>MOL_PROPERTY
Angle
SciTegic.value.DoubleValue
1.066

@<SCITEGIC>MOL_PROPERTY
Pdih
SciTegic.value.DoubleValue
0.939

@<SCITEGIC>MOL_PROPERTY
Idih
SciTegic.value.DoubleValue
0.000

@<SCITEGIC>MOL_PROPERTY
Tether
SciTegic.value.DoubleValue
0.000

@<TRIPOS>MOLECULE
guest-s10_confgen4.mol2 : confsearch ligand conformer 277
          20          19           1
SMALL
USER_CHARGES
 
@<TRIPOS>ATOM
       1    N1      20.217548   20.932331   21.809849 N.4        1 MOL1        -0.5937
       2    H1      20.271849   20.743076   20.805244 H          1 MOL1         0.3684
       3    H2      21.159615   21.172830   22.128507 H          1 MOL1         0.3684
       4    H3      19.634188   21.764880   21.929386 H          1 MOL1         0.3684
       5    C1      19.661168   19.756741   22.566823 C.3        1 MOL1         0.1270
       6    H4      18.662753   19.575333   22.156919 H          1 MOL1         0.0960
       7    C2      19.525456   20.108177   24.060155 C.3        1 MOL1        -0.2382
       8    H5      20.501986   20.344384   24.500906 H          1 MOL1         0.1009
       9    H6      19.090395   19.280682   24.630912 H          1 MOL1         0.1009
      10    H7      18.873726   20.980217   24.194026 H          1 MOL1         0.1009
      11    C3      20.508932   18.478371   22.353994 C.3        1 MOL1        -0.1392
      12    H8      21.147743   18.613600   21.471210 H          1 MOL1         0.0998
      13    H9      21.197272   18.329818   23.196688 H          1 MOL1         0.0998
      14    C4      19.666687   17.198327   22.121847 C.3        1 MOL1        -0.1302
      15    H10     20.348656   16.364405   21.904077 H          1 MOL1         0.0998
      16    H11     19.044531   17.325663   21.224747 H          1 MOL1         0.0998
      17    C5      18.769030   16.806890   23.316513 C.3        1 MOL1        -0.2317
      18    H12     19.355950   16.713486   24.239458 H          1 MOL1         0.1009
      19    H13     18.282794   15.840515   23.130143 H          1 MOL1         0.1009
      20    H14     17.975402   17.546318   23.480925 H          1 MOL1         0.1009
@<TRIPOS>BOND
    1     1     2    1
    2     1     3    1
    3     1     4    1
    4     1     5    1
    5     5     6    1
    6     5     7    1
    7     7     8    1
    8     7     9    1
    9     7    10    1
   10     5    11    1
   11    11    12    1
   12    11    13    1
   13    11    14    1
   14    14    15    1
   15    14    16    1
   16    14    17    1
   17    17    18    1
   18    17    19    1
   19    17    20    1
@<TRIPOS>SUBSTRUCTURE
       1 MOL1            1 RESIDUE      1      MOL     
@<SCITEGIC>MOL_PROPERTY
VConf Rank
SciTegic.value.IntegerValue
277

@<SCITEGIC>MOL_PROPERTY
Conf_Id
SciTegic.value.IntegerValue
3

@<SCITEGIC>MOL_PROPERTY
Delta U+W
SciTegic.value.DoubleValue
3.093

@<SCITEGIC>MOL_PROPERTY
U+W
SciTegic.value.DoubleValue
-33.184

@<SCITEGIC>MOL_PROPERTY
Grad RMS
SciTegic.value.DoubleValue
0.000000

@<SCITEGIC>MOL_PROPERTY
U
SciTegic.value.DoubleValue
25.256

@<SCITEGIC>MOL_PROPERTY
W
SciTegic.value.DoubleValue
-58.439

@<SCITEGIC>MOL_PROPERTY
W(PB)
SciTegic.value.DoubleValue
-60.337

@<SCITEGIC>MOL_PROPERTY
W(SA)
SciTegic.value.DoubleValue
1.898

@<SCITEGIC>MOL_PROPERTY
Valence
SciTegic.value.DoubleValue
4.963

@<SCITEGIC>MOL_PROPERTY
Coulomb
SciTegic.value.DoubleValue
19.511

@<SCITEGIC>MOL_PROPERTY
VdW
SciTegic.value.DoubleValue
0.782

@<SCITEGIC>MOL_PROPERTY
VdW6
SciTegic.value.DoubleValue
-5.429

@<SCITEGIC>MOL_PROPERTY
VdW12
SciTegic.value.DoubleValue
6.211

@<SCITEGIC>MOL_PROPERTY
Bond
SciTegic.value.DoubleValue
0.174

@<SCITEGIC>MOL_PROPERTY
Angle
SciTegic.value.DoubleValue
1.377

@<SCITEGIC>MOL_PROPERTY
Pdih
SciTegic.value.DoubleValue
3.412

@<SCITEGIC>MOL_PROPERTY
Idih
SciTegic.value.DoubleValue
0.000

@<SCITEGIC>MOL_PROPERTY
Tether
SciTegic.value.DoubleValue
0.000

@<TRIPOS>MOLECULE
guest-s10_confgen4.mol2 : confsearch ligand conformer 278
          20          19           1
SMALL
USER_CHARGES
 
@<TRIPOS>ATOM
       1    N1      20.048595   21.155388   23.149115 N.4        1 MOL1        -0.5937
       2    H1      19.681602   21.896226   22.545700 H          1 MOL1         0.3684
       3    H2      21.069359   21.230313   23.133111 H          1 MOL1         0.3684
       4    H3      19.741329   21.360422   24.103177 H          1 MOL1         0.3684
       5    C1      19.584248   19.797448   22.698823 C.3        1 MOL1         0.1270
       6    H4      19.953452   19.670595   21.676721 H          1 MOL1         0.0960
       7    C2      18.046077   19.739594   22.670788 C.3        1 MOL1        -0.2382
       8    H5      17.691395   18.808471   22.213903 H          1 MOL1         0.1009
       9    H6      17.638674   20.567563   22.077809 H          1 MOL1         0.1009
      10    H7      17.627602   19.807452   23.682599 H          1 MOL1         0.1009
      11    C3      20.191902   18.678019   23.577494 C.3        1 MOL1        -0.1392
      12    H8      21.279764   18.819233   23.623755 H          1 MOL1         0.0998
      13    H9      19.826954   18.786090   24.607479 H          1 MOL1         0.0998
      14    C4      19.908099   17.234537   23.088700 C.3        1 MOL1        -0.1302
      15    H10     18.834557   17.012771   23.156532 H          1 MOL1         0.0998
      16    H11     20.403676   16.528650   23.769850 H          1 MOL1         0.0998
      17    C5      20.405614   16.973665   21.648708 C.3        1 MOL1        -0.2317
      18    H12     21.477540   17.191536   21.555620 H          1 MOL1         0.1009
      19    H13     19.865343   17.588424   20.917790 H          1 MOL1         0.1009
      20    H14     20.252525   15.922068   21.373529 H          1 MOL1         0.1009
@<TRIPOS>BOND
    1     1     2    1
    2     1     3    1
    3     1     4    1
    4     1     5    1
    5     5     6    1
    6     5     7    1
    7     7     8    1
    8     7     9    1
    9     7    10    1
   10     5    11    1
   11    11    12    1
   12    11    13    1
   13    11    14    1
   14    14    15    1
   15    14    16    1
   16    14    17    1
   17    17    18    1
   18    17    19    1
   19    17    20    1
@<TRIPOS>SUBSTRUCTURE
       1 MOL1            1 RESIDUE      1      MOL     
@<SCITEGIC>MOL_PROPERTY
VConf Rank
SciTegic.value.IntegerValue
278

@<SCITEGIC>MOL_PROPERTY
Conf_Id
SciTegic.value.IntegerValue
64

@<SCITEGIC>MOL_PROPERTY
Delta U+W
SciTegic.value.DoubleValue
0.544

@<SCITEGIC>MOL_PROPERTY
U+W
SciTegic.value.DoubleValue
-35.732

@<SCITEGIC>MOL_PROPERTY
Grad RMS
SciTegic.value.DoubleValue
0.000000

@<SCITEGIC>MOL_PROPERTY
U
SciTegic.value.DoubleValue
22.800

@<SCITEGIC>MOL_PROPERTY
W
SciTegic.value.DoubleValue
-58.532

@<SCITEGIC>MOL_PROPERTY
W(PB)
SciTegic.value.DoubleValue
-60.437

@<SCITEGIC>MOL_PROPERTY
W(SA)
SciTegic.value.DoubleValue
1.905

@<SCITEGIC>MOL_PROPERTY
Valence
SciTegic.value.DoubleValue
2.662

@<SCITEGIC>MOL_PROPERTY
Coulomb
SciTegic.value.DoubleValue
19.485

@<SCITEGIC>MOL_PROPERTY
VdW
SciTegic.value.DoubleValue
0.653

@<SCITEGIC>MOL_PROPERTY
VdW6
SciTegic.value.DoubleValue
-5.460

@<SCITEGIC>MOL_PROPERTY
VdW12
SciTegic.value.DoubleValue
6.113

@<SCITEGIC>MOL_PROPERTY
Bond
SciTegic.value.DoubleValue
0.174

@<SCITEGIC>MOL_PROPERTY
Angle
SciTegic.value.DoubleValue
1.378

@<SCITEGIC>MOL_PROPERTY
Pdih
SciTegic.value.DoubleValue
1.109

@<SCITEGIC>MOL_PROPERTY
Idih
SciTegic.value.DoubleValue
0.000

@<SCITEGIC>MOL_PROPERTY
Tether
SciTegic.value.DoubleValue
0.000

@<TRIPOS>MOLECULE
guest-s10_confgen4.mol2 : confsearch ligand conformer 279
          20          19           1
SMALL
USER_CHARGES
 
@<TRIPOS>ATOM
       1    N1      18.988954   17.017061   22.244165 N.4        1 MOL1        -0.5937
       2    H1      18.850002   17.518523   21.364108 H          1 MOL1         0.3684
       3    H2      18.109883   16.542914   22.467841 H          1 MOL1         0.3684
       4    H3      19.691087   16.291363   22.076737 H          1 MOL1         0.3684
       5    C1      19.408267   17.948854   23.349050 C.3        1 MOL1         0.1270
       6    H4      19.518950   17.324434   24.241132 H          1 MOL1         0.0960
       7    C2      18.306672   18.979938   23.644142 C.3        1 MOL1        -0.2382
       8    H5      18.045776   19.556148   22.748807 H          1 MOL1         0.1009
       9    H6      18.624180   19.677594   24.428873 H          1 MOL1         0.1009
      10    H7      17.396385   18.477977   23.993978 H          1 MOL1         0.1009
      11    C3      20.788424   18.599536   23.079388 C.3        1 MOL1        -0.1392
      12    H8      21.125623   19.125712   23.982125 H          1 MOL1         0.0998
      13    H9      21.511389   17.786233   22.933307 H          1 MOL1         0.0998
      14    C4      20.871625   19.550694   21.853174 C.3        1 MOL1        -0.1302
      15    H10     20.172820   19.237736   21.066340 H          1 MOL1         0.0998
      16    H11     21.875299   19.462104   21.414115 H          1 MOL1         0.0998
      17    C5      20.641819   21.038581   22.208320 C.3        1 MOL1        -0.2317
      18    H12     19.639770   21.217262   22.613225 H          1 MOL1         0.1009
      19    H13     20.754241   21.667377   21.315604 H          1 MOL1         0.1009
      20    H14     21.373452   21.382906   22.950747 H          1 MOL1         0.1009
@<TRIPOS>BOND
    1     1     2    1
    2     1     3    1
    3     1     4    1
    4     1     5    1
    5     5     6    1
    6     5     7    1
    7     7     8    1
    8     7     9    1
    9     7    10    1
   10     5    11    1
   11    11    12    1
   12    11    13    1
   13    11    14    1
   14    14    15    1
   15    14    16    1
   16    14    17    1
   17    17    18    1
   18    17    19    1
   19    17    20    1
@<TRIPOS>SUBSTRUCTURE
       1 MOL1            1 RESIDUE      1      MOL     
@<SCITEGIC>MOL_PROPERTY
VConf Rank
SciTegic.value.IntegerValue
279

@<SCITEGIC>MOL_PROPERTY
Conf_Id
SciTegic.value.IntegerValue
35

@<SCITEGIC>MOL_PROPERTY
Delta U+W
SciTegic.value.DoubleValue
3.004

@<SCITEGIC>MOL_PROPERTY
U+W
SciTegic.value.DoubleValue
-33.272

@<SCITEGIC>MOL_PROPERTY
Grad RMS
SciTegic.value.DoubleValue
0.000000

@<SCITEGIC>MOL_PROPERTY
U
SciTegic.value.DoubleValue
25.367

@<SCITEGIC>MOL_PROPERTY
W
SciTegic.value.DoubleValue
-58.639

@<SCITEGIC>MOL_PROPERTY
W(PB)
SciTegic.value.DoubleValue
-60.512

@<SCITEGIC>MOL_PROPERTY
W(SA)
SciTegic.value.DoubleValue
1.873

@<SCITEGIC>MOL_PROPERTY
Valence
SciTegic.value.DoubleValue
4.943

@<SCITEGIC>MOL_PROPERTY
Coulomb
SciTegic.value.DoubleValue
19.661

@<SCITEGIC>MOL_PROPERTY
VdW
SciTegic.value.DoubleValue
0.764

@<SCITEGIC>MOL_PROPERTY
VdW6
SciTegic.value.DoubleValue
-5.871

@<SCITEGIC>MOL_PROPERTY
VdW12
SciTegic.value.DoubleValue
6.636

@<SCITEGIC>MOL_PROPERTY
Bond
SciTegic.value.DoubleValue
0.230

@<SCITEGIC>MOL_PROPERTY
Angle
SciTegic.value.DoubleValue
1.857

@<SCITEGIC>MOL_PROPERTY
Pdih
SciTegic.value.DoubleValue
2.855

@<SCITEGIC>MOL_PROPERTY
Idih
SciTegic.value.DoubleValue
0.000

@<SCITEGIC>MOL_PROPERTY
Tether
SciTegic.value.DoubleValue
0.000

@<TRIPOS>MOLECULE
guest-s10_confgen4.mol2 : confsearch ligand conformer 280
          20          19           1
SMALL
USER_CHARGES
 
@<TRIPOS>ATOM
       1    N1      19.657476   17.265524   23.199864 N.4        1 MOL1        -0.5937
       2    H1      20.133976   16.374975   23.034117 H          1 MOL1         0.3684
       3    H2      18.732641   17.049719   23.581557 H          1 MOL1         0.3684
       4    H3      20.177833   17.765631   23.923133 H          1 MOL1         0.3684
       5    C1      19.556705   18.080550   21.939689 C.3        1 MOL1         0.1270
       6    H4      18.965828   17.471876   21.248092 H          1 MOL1         0.0960
       7    C2      20.938613   18.293336   21.296602 C.3        1 MOL1        -0.2382
       8    H5      21.623327   18.818899   21.972801 H          1 MOL1         0.1009
       9    H6      20.851539   18.877525   20.372177 H          1 MOL1         0.1009
      10    H7      21.395174   17.329839   21.039320 H          1 MOL1         0.1009
      11    C3      18.785552   19.410863   22.136931 C.3        1 MOL1        -0.1392
      12    H8      18.490666   19.774382   21.143735 H          1 MOL1         0.0998
      13    H9      17.843946   19.201515   22.661115 H          1 MOL1         0.0998
      14    C4      19.530494   20.565923   22.863220 C.3        1 MOL1        -0.1302
      15    H10     18.865991   21.441149   22.878726 H          1 MOL1         0.0998
      16    H11     20.410932   20.875200   22.283731 H          1 MOL1         0.0998
      17    C5      19.949791   20.249968   24.316934 C.3        1 MOL1        -0.2317
      18    H12     19.105954   19.856071   24.898247 H          1 MOL1         0.1009
      19    H13     20.301362   21.161614   24.817403 H          1 MOL1         0.1009
      20    H14     20.772808   19.526986   24.351678 H          1 MOL1         0.1009
@<TRIPOS>BOND
    1     1     2    1
    2     1     3    1
    3     1     4    1
    4     1     5    1
    5     5     6    1
    6     5     7    1
    7     7     8    1
    8     7     9    1
    9     7    10    1
   10     5    11    1
   11    11    12    1
   12    11    13    1
   13    11    14    1
   14    14    15    1
   15    14    16    1
   16    14    17    1
   17    17    18    1
   18    17    19    1
   19    17    20    1
@<TRIPOS>SUBSTRUCTURE
       1 MOL1            1 RESIDUE      1      MOL     
@<SCITEGIC>MOL_PROPERTY
VConf Rank
SciTegic.value.IntegerValue
280

@<SCITEGIC>MOL_PROPERTY
Conf_Id
SciTegic.value.IntegerValue
55

@<SCITEGIC>MOL_PROPERTY
Delta U+W
SciTegic.value.DoubleValue
2.767

@<SCITEGIC>MOL_PROPERTY
U+W
SciTegic.value.DoubleValue
-33.509

@<SCITEGIC>MOL_PROPERTY
Grad RMS
SciTegic.value.DoubleValue
0.000000

@<SCITEGIC>MOL_PROPERTY
U
SciTegic.value.DoubleValue
24.552

@<SCITEGIC>MOL_PROPERTY
W
SciTegic.value.DoubleValue
-58.061

@<SCITEGIC>MOL_PROPERTY
W(PB)
SciTegic.value.DoubleValue
-59.930

@<SCITEGIC>MOL_PROPERTY
W(SA)
SciTegic.value.DoubleValue
1.869

@<SCITEGIC>MOL_PROPERTY
Valence
SciTegic.value.DoubleValue
3.726

@<SCITEGIC>MOL_PROPERTY
Coulomb
SciTegic.value.DoubleValue
20.219

@<SCITEGIC>MOL_PROPERTY
VdW
SciTegic.value.DoubleValue
0.606

@<SCITEGIC>MOL_PROPERTY
VdW6
SciTegic.value.DoubleValue
-6.395

@<SCITEGIC>MOL_PROPERTY
VdW12
SciTegic.value.DoubleValue
7.001

@<SCITEGIC>MOL_PROPERTY
Bond
SciTegic.value.DoubleValue
0.241

@<SCITEGIC>MOL_PROPERTY
Angle
SciTegic.value.DoubleValue
2.098

@<SCITEGIC>MOL_PROPERTY
Pdih
SciTegic.value.DoubleValue
1.387

@<SCITEGIC>MOL_PROPERTY
Idih
SciTegic.value.DoubleValue
0.000

@<SCITEGIC>MOL_PROPERTY
Tether
SciTegic.value.DoubleValue
0.000

@<TRIPOS>MOLECULE
guest-s10_confgen4.mol2 : confsearch ligand conformer 281
          20          19           1
SMALL
USER_CHARGES
 
@<TRIPOS>ATOM
       1    N1      20.556757   17.734573   21.399428 N.4        1 MOL1        -0.5937
       2    H1      21.404953   18.277288   21.218956 H          1 MOL1         0.3684
       3    H2      20.387854   17.149713   20.576588 H          1 MOL1         0.3684
       4    H3      20.754047   17.106869   22.182784 H          1 MOL1         0.3684
       5    C1      19.381527   18.628583   21.690361 C.3        1 MOL1         0.1270
       6    H4      18.524894   17.972652   21.874266 H          1 MOL1         0.0960
       7    C2      19.059443   19.510527   20.472820 C.3        1 MOL1        -0.2382
       8    H5      18.867218   18.893770   19.586296 H          1 MOL1         0.1009
       9    H6      19.890012   20.189636   20.243128 H          1 MOL1         0.1009
      10    H7      18.163532   20.116629   20.656186 H          1 MOL1         0.1009
      11    C3      19.597595   19.503511   22.944939 C.3        1 MOL1        -0.1392
      12    H8      20.468089   20.156019   22.795307 H          1 MOL1         0.0998
      13    H9      18.729283   20.164209   23.069758 H          1 MOL1         0.0998
      14    C4      19.782357   18.673168   24.237964 C.3        1 MOL1        -0.1302
      15    H10     20.679130   18.043732   24.160287 H          1 MOL1         0.0998
      16    H11     18.927376   17.994616   24.367643 H          1 MOL1         0.0998
      17    C5      19.910272   19.577492   25.482608 C.3        1 MOL1        -0.2317
      18    H12     20.775526   20.247711   25.396601 H          1 MOL1         0.1009
      19    H13     20.041904   18.972829   26.389327 H          1 MOL1         0.1009
      20    H14     19.012236   20.194399   25.617476 H          1 MOL1         0.1009
@<TRIPOS>BOND
    1     1     2    1
    2     1     3    1
    3     1     4    1
    4     1     5    1
    5     5     6    1
    6     5     7    1
    7     7     8    1
    8     7     9    1
    9     7    10    1
   10     5    11    1
   11    11    12    1
   12    11    13    1
   13    11    14    1
   14    14    15    1
   15    14    16    1
   16    14    17    1
   17    17    18    1
   18    17    19    1
   19    17    20    1
@<TRIPOS>SUBSTRUCTURE
       1 MOL1            1 RESIDUE      1      MOL     
@<SCITEGIC>MOL_PROPERTY
VConf Rank
SciTegic.value.IntegerValue
281

@<SCITEGIC>MOL_PROPERTY
Conf_Id
SciTegic.value.IntegerValue
74

@<SCITEGIC>MOL_PROPERTY
Delta U+W
SciTegic.value.DoubleValue
0.000

@<SCITEGIC>MOL_PROPERTY
U+W
SciTegic.value.DoubleValue
-36.276

@<SCITEGIC>MOL_PROPERTY
Grad RMS
SciTegic.value.DoubleValue
0.000000

@<SCITEGIC>MOL_PROPERTY
U
SciTegic.value.DoubleValue
22.080

@<SCITEGIC>MOL_PROPERTY
W
SciTegic.value.DoubleValue
-58.356

@<SCITEGIC>MOL_PROPERTY
W(PB)
SciTegic.value.DoubleValue
-60.289

@<SCITEGIC>MOL_PROPERTY
W(SA)
SciTegic.value.DoubleValue
1.932

@<SCITEGIC>MOL_PROPERTY
Valence
SciTegic.value.DoubleValue
1.885

@<SCITEGIC>MOL_PROPERTY
Coulomb
SciTegic.value.DoubleValue
19.559

@<SCITEGIC>MOL_PROPERTY
VdW
SciTegic.value.DoubleValue
0.637

@<SCITEGIC>MOL_PROPERTY
VdW6
SciTegic.value.DoubleValue
-4.482

@<SCITEGIC>MOL_PROPERTY
VdW12
SciTegic.value.DoubleValue
5.119

@<SCITEGIC>MOL_PROPERTY
Bond
SciTegic.value.DoubleValue
0.136

@<SCITEGIC>MOL_PROPERTY
Angle
SciTegic.value.DoubleValue
0.867

@<SCITEGIC>MOL_PROPERTY
Pdih
SciTegic.value.DoubleValue
0.882

@<SCITEGIC>MOL_PROPERTY
Idih
SciTegic.value.DoubleValue
0.000

@<SCITEGIC>MOL_PROPERTY
Tether
SciTegic.value.DoubleValue
0.000

@<TRIPOS>MOLECULE
guest-s10_confgen4.mol2 : confsearch ligand conformer 282
          20          19           1
SMALL
USER_CHARGES
 
@<TRIPOS>ATOM
       1    N1      19.308962   21.034710   21.663164 N.4        1 MOL1        -0.5937
       2    H1      18.770849   21.524290   22.383305 H          1 MOL1         0.3684
       3    H2      18.646565   20.706515   20.955884 H          1 MOL1         0.3684
       4    H3      19.914061   21.727854   21.214738 H          1 MOL1         0.3684
       5    C1      20.107329   19.898925   22.242016 C.3        1 MOL1         0.1270
       6    H4      20.783778   20.342226   22.979421 H          1 MOL1         0.0960
       7    C2      20.955420   19.229083   21.145270 C.3        1 MOL1        -0.2382
       8    H5      21.555159   19.975837   20.610580 H          1 MOL1         0.1009
       9    H6      20.322034   18.713963   20.412431 H          1 MOL1         0.1009
      10    H7      21.653262   18.498664   21.570391 H          1 MOL1         0.1009
      11    C3      19.193022   18.887232   22.971405 C.3        1 MOL1        -0.1392
      12    H8      18.541337   19.441470   23.659728 H          1 MOL1         0.0998
      13    H9      18.531590   18.396239   22.245263 H          1 MOL1         0.0998
      14    C4      19.965226   17.816798   23.780748 C.3        1 MOL1        -0.1302
      15    H10     20.673232   18.307516   24.463385 H          1 MOL1         0.0998
      16    H11     20.558431   17.184069   23.107204 H          1 MOL1         0.0998
      17    C5      19.009096   16.918457   24.594677 C.3        1 MOL1        -0.2317
      18    H12     18.426335   17.509377   25.313316 H          1 MOL1         0.1009
      19    H13     19.572376   16.163783   25.158831 H          1 MOL1         0.1009
      20    H14     18.306396   16.391234   23.936263 H          1 MOL1         0.1009
@<TRIPOS>BOND
    1     1     2    1
    2     1     3    1
    3     1     4    1
    4     1     5    1
    5     5     6    1
    6     5     7    1
    7     7     8    1
    8     7     9    1
    9     7    10    1
   10     5    11    1
   11    11    12    1
   12    11    13    1
   13    11    14    1
   14    14    15    1
   15    14    16    1
   16    14    17    1
   17    17    18    1
   18    17    19    1
   19    17    20    1
@<TRIPOS>SUBSTRUCTURE
       1 MOL1            1 RESIDUE      1      MOL     
@<SCITEGIC>MOL_PROPERTY
VConf Rank
SciTegic.value.IntegerValue
282

@<SCITEGIC>MOL_PROPERTY
Conf_Id
SciTegic.value.IntegerValue
80

@<SCITEGIC>MOL_PROPERTY
Delta U+W
SciTegic.value.DoubleValue
0.460

@<SCITEGIC>MOL_PROPERTY
U+W
SciTegic.value.DoubleValue
-35.817

@<SCITEGIC>MOL_PROPERTY
Grad RMS
SciTegic.value.DoubleValue
0.000000

@<SCITEGIC>MOL_PROPERTY
U
SciTegic.value.DoubleValue
22.495

@<SCITEGIC>MOL_PROPERTY
W
SciTegic.value.DoubleValue
-58.311

@<SCITEGIC>MOL_PROPERTY
W(PB)
SciTegic.value.DoubleValue
-60.259

@<SCITEGIC>MOL_PROPERTY
W(SA)
SciTegic.value.DoubleValue
1.948

@<SCITEGIC>MOL_PROPERTY
Valence
SciTegic.value.DoubleValue
2.419

@<SCITEGIC>MOL_PROPERTY
Coulomb
SciTegic.value.DoubleValue
19.304

@<SCITEGIC>MOL_PROPERTY
VdW
SciTegic.value.DoubleValue
0.772

@<SCITEGIC>MOL_PROPERTY
VdW6
SciTegic.value.DoubleValue
-4.635

@<SCITEGIC>MOL_PROPERTY
VdW12
SciTegic.value.DoubleValue
5.407

@<SCITEGIC>MOL_PROPERTY
Bond
SciTegic.value.DoubleValue
0.149

@<SCITEGIC>MOL_PROPERTY
Angle
SciTegic.value.DoubleValue
1.142

@<SCITEGIC>MOL_PROPERTY
Pdih
SciTegic.value.DoubleValue
1.129

@<SCITEGIC>MOL_PROPERTY
Idih
SciTegic.value.DoubleValue
0.000

@<SCITEGIC>MOL_PROPERTY
Tether
SciTegic.value.DoubleValue
0.000

@<TRIPOS>MOLECULE
guest-s10_confgen4.mol2 : confsearch ligand conformer 283
          20          19           1
SMALL
USER_CHARGES
 
@<TRIPOS>ATOM
       1    N1      18.896733   21.128315   22.741161 N.4        1 MOL1        -0.5937
       2    H1      19.246747   21.663029   21.941546 H          1 MOL1         0.3684
       3    H2      19.430478   21.421554   23.563241 H          1 MOL1         0.3684
       4    H3      17.925007   21.412026   22.892397 H          1 MOL1         0.3684
       5    C1      19.008129   19.646047   22.510463 C.3        1 MOL1         0.1270
       6    H4      18.405817   19.428174   21.623022 H          1 MOL1         0.0960
       7    C2      18.405681   18.875744   23.697875 C.3        1 MOL1        -0.2382
       8    H5      17.403205   19.252217   23.935473 H          1 MOL1         0.1009
       9    H6      19.028974   18.975962   24.595046 H          1 MOL1         0.1009
      10    H7      18.301062   17.810577   23.462334 H          1 MOL1         0.1009
      11    C3      20.471333   19.238950   22.209395 C.3        1 MOL1        -0.1392
      12    H8      20.822490   19.863929   21.377661 H          1 MOL1         0.0998
      13    H9      21.117248   19.486840   23.062081 H          1 MOL1         0.0998
      14    C4      20.668067   17.755116   21.800523 C.3        1 MOL1        -0.1302
      15    H10     21.449872   17.704933   21.029563 H          1 MOL1         0.0998
      16    H11     19.755381   17.364337   21.329076 H          1 MOL1         0.0998
      17    C5      21.099768   16.845640   22.975053 C.3        1 MOL1        -0.2317
      18    H12     22.051502   17.185004   23.404183 H          1 MOL1         0.1009
      19    H13     21.240814   15.813298   22.629568 H          1 MOL1         0.1009
      20    H14     20.355526   16.827368   23.778988 H          1 MOL1         0.1009
@<TRIPOS>BOND
    1     1     2    1
    2     1     3    1
    3     1     4    1
    4     1     5    1
    5     5     6    1
    6     5     7    1
    7     7     8    1
    8     7     9    1
    9     7    10    1
   10     5    11    1
   11    11    12    1
   12    11    13    1
   13    11    14    1
   14    14    15    1
   15    14    16    1
   16    14    17    1
   17    17    18    1
   18    17    19    1
   19    17    20    1
@<TRIPOS>SUBSTRUCTURE
       1 MOL1            1 RESIDUE      1      MOL     
@<SCITEGIC>MOL_PROPERTY
VConf Rank
SciTegic.value.IntegerValue
283

@<SCITEGIC>MOL_PROPERTY
Conf_Id
SciTegic.value.IntegerValue
52

@<SCITEGIC>MOL_PROPERTY
Delta U+W
SciTegic.value.DoubleValue
2.995

@<SCITEGIC>MOL_PROPERTY
U+W
SciTegic.value.DoubleValue
-33.282

@<SCITEGIC>MOL_PROPERTY
Grad RMS
SciTegic.value.DoubleValue
0.000000

@<SCITEGIC>MOL_PROPERTY
U
SciTegic.value.DoubleValue
25.224

@<SCITEGIC>MOL_PROPERTY
W
SciTegic.value.DoubleValue
-58.506

@<SCITEGIC>MOL_PROPERTY
W(PB)
SciTegic.value.DoubleValue
-60.411

@<SCITEGIC>MOL_PROPERTY
W(SA)
SciTegic.value.DoubleValue
1.905

@<SCITEGIC>MOL_PROPERTY
Valence
SciTegic.value.DoubleValue
4.945

@<SCITEGIC>MOL_PROPERTY
Coulomb
SciTegic.value.DoubleValue
19.467

@<SCITEGIC>MOL_PROPERTY
VdW
SciTegic.value.DoubleValue
0.813

@<SCITEGIC>MOL_PROPERTY
VdW6
SciTegic.value.DoubleValue
-5.458

@<SCITEGIC>MOL_PROPERTY
VdW12
SciTegic.value.DoubleValue
6.270

@<SCITEGIC>MOL_PROPERTY
Bond
SciTegic.value.DoubleValue
0.200

@<SCITEGIC>MOL_PROPERTY
Angle
SciTegic.value.DoubleValue
1.675

@<SCITEGIC>MOL_PROPERTY
Pdih
SciTegic.value.DoubleValue
3.070

@<SCITEGIC>MOL_PROPERTY
Idih
SciTegic.value.DoubleValue
0.000

@<SCITEGIC>MOL_PROPERTY
Tether
SciTegic.value.DoubleValue
0.000

@<TRIPOS>MOLECULE
guest-s10_confgen4.mol2 : confsearch ligand conformer 284
          20          19           1
SMALL
USER_CHARGES
 
@<TRIPOS>ATOM
       1    N1      19.526985   17.762561   21.734212 N.4        1 MOL1        -0.5937
       2    H1      18.520536   17.753363   21.551584 H          1 MOL1         0.3684
       3    H2      19.885402   16.827988   21.520300 H          1 MOL1         0.3684
       4    H3      19.951996   18.415475   21.072355 H          1 MOL1         0.3684
       5    C1      19.822897   18.155909   23.155817 C.3        1 MOL1         0.1270
       6    H4      20.907698   18.096067   23.287576 H          1 MOL1         0.0960
       7    C2      19.165372   17.155362   24.121388 C.3        1 MOL1        -0.2382
       8    H5      18.071547   17.186171   24.041029 H          1 MOL1         0.1009
       9    H6      19.438206   17.377539   25.160544 H          1 MOL1         0.1009
      10    H7      19.495429   16.131874   23.904893 H          1 MOL1         0.1009
      11    C3      19.372189   19.599066   23.485054 C.3        1 MOL1        -0.1392
      12    H8      18.348541   19.763340   23.123486 H          1 MOL1         0.0998
      13    H9      19.325920   19.710804   24.576593 H          1 MOL1         0.0998
      14    C4      20.312337   20.711675   22.951360 C.3        1 MOL1        -0.1302
      15    H10     21.324054   20.566965   23.355738 H          1 MOL1         0.0998
      16    H11     19.962845   21.674814   23.349161 H          1 MOL1         0.0998
      17    C5      20.382994   20.818569   21.410974 C.3        1 MOL1        -0.2317
      18    H12     20.898872   21.742541   21.118687 H          1 MOL1         0.1009
      19    H13     19.379798   20.843527   20.965675 H          1 MOL1         0.1009
      20    H14     20.946775   19.986659   20.973349 H          1 MOL1         0.1009
@<TRIPOS>BOND
    1     1     2    1
    2     1     3    1
    3     1     4    1
    4     1     5    1
    5     5     6    1
    6     5     7    1
    7     7     8    1
    8     7     9    1
    9     7    10    1
   10     5    11    1
   11    11    12    1
   12    11    13    1
   13    11    14    1
   14    14    15    1
   15    14    16    1
   16    14    17    1
   17    17    18    1
   18    17    19    1
   19    17    20    1
@<TRIPOS>SUBSTRUCTURE
       1 MOL1            1 RESIDUE      1      MOL     
@<SCITEGIC>MOL_PROPERTY
VConf Rank
SciTegic.value.IntegerValue
284

@<SCITEGIC>MOL_PROPERTY
Conf_Id
SciTegic.value.IntegerValue
54

@<SCITEGIC>MOL_PROPERTY
Delta U+W
SciTegic.value.DoubleValue
2.752

@<SCITEGIC>MOL_PROPERTY
U+W
SciTegic.value.DoubleValue
-33.525

@<SCITEGIC>MOL_PROPERTY
Grad RMS
SciTegic.value.DoubleValue
0.000000

@<SCITEGIC>MOL_PROPERTY
U
SciTegic.value.DoubleValue
24.337

@<SCITEGIC>MOL_PROPERTY
W
SciTegic.value.DoubleValue
-57.862

@<SCITEGIC>MOL_PROPERTY
W(PB)
SciTegic.value.DoubleValue
-59.764

@<SCITEGIC>MOL_PROPERTY
W(SA)
SciTegic.value.DoubleValue
1.901

@<SCITEGIC>MOL_PROPERTY
Valence
SciTegic.value.DoubleValue
3.593

@<SCITEGIC>MOL_PROPERTY
Coulomb
SciTegic.value.DoubleValue
20.067

@<SCITEGIC>MOL_PROPERTY
VdW
SciTegic.value.DoubleValue
0.677

@<SCITEGIC>MOL_PROPERTY
VdW6
SciTegic.value.DoubleValue
-5.466

@<SCITEGIC>MOL_PROPERTY
VdW12
SciTegic.value.DoubleValue
6.144

@<SCITEGIC>MOL_PROPERTY
Bond
SciTegic.value.DoubleValue
0.191

@<SCITEGIC>MOL_PROPERTY
Angle
SciTegic.value.DoubleValue
1.557

@<SCITEGIC>MOL_PROPERTY
Pdih
SciTegic.value.DoubleValue
1.845

@<SCITEGIC>MOL_PROPERTY
Idih
SciTegic.value.DoubleValue
0.000

@<SCITEGIC>MOL_PROPERTY
Tether
SciTegic.value.DoubleValue
0.000

@<TRIPOS>MOLECULE
guest-s10_confgen4.mol2 : confsearch ligand conformer 285
          20          19           1
SMALL
USER_CHARGES
 
@<TRIPOS>ATOM
       1    N1      18.394763   18.140587   24.019610 N.4        1 MOL1        -0.5937
       2    H1      18.070790   18.152485   24.990462 H          1 MOL1         0.3684
       3    H2      18.226875   17.199010   23.654977 H          1 MOL1         0.3684
       4    H3      17.801549   18.784850   23.491907 H          1 MOL1         0.3684
       5    C1      19.846735   18.522063   23.918909 C.3        1 MOL1         0.1270
       6    H4      20.394044   17.792194   24.523695 H          1 MOL1         0.0960
       7    C2      20.097044   19.911947   24.530800 C.3        1 MOL1        -0.2382
       8    H5      21.156216   20.187092   24.453843 H          1 MOL1         0.1009
       9    H6      19.829490   19.916449   25.594511 H          1 MOL1         0.1009
      10    H7      19.503120   20.687745   24.033374 H          1 MOL1         0.1009
      11    C3      20.388503   18.416705   22.473074 C.3        1 MOL1        -0.1392
      12    H8      21.467642   18.619323   22.484964 H          1 MOL1         0.0998
      13    H9      20.281257   17.376929   22.137260 H          1 MOL1         0.0998
      14    C4      19.702896   19.355664   21.447089 C.3        1 MOL1        -0.1302
      15    H10     19.843953   20.404995   21.738671 H          1 MOL1         0.0998
      16    H11     18.620206   19.172267   21.429470 H          1 MOL1         0.0998
      17    C5      20.270426   19.152332   20.025859 C.3        1 MOL1        -0.2317
      18    H12     19.777498   19.824621   19.311635 H          1 MOL1         0.1009
      19    H13     20.113435   18.121968   19.681004 H          1 MOL1         0.1009
      20    H14     21.347637   19.362077   19.996758 H          1 MOL1         0.1009
@<TRIPOS>BOND
    1     1     2    1
    2     1     3    1
    3     1     4    1
    4     1     5    1
    5     5     6    1
    6     5     7    1
    7     7     8    1
    8     7     9    1
    9     7    10    1
   10     5    11    1
   11    11    12    1
   12    11    13    1
   13    11    14    1
   14    14    15    1
   15    14    16    1
   16    14    17    1
   17    17    18    1
   18    17    19    1
   19    17    20    1
@<TRIPOS>SUBSTRUCTURE
       1 MOL1            1 RESIDUE      1      MOL     
@<SCITEGIC>MOL_PROPERTY
VConf Rank
SciTegic.value.IntegerValue
285

@<SCITEGIC>MOL_PROPERTY
Conf_Id
SciTegic.value.IntegerValue
63

@<SCITEGIC>MOL_PROPERTY
Delta U+W
SciTegic.value.DoubleValue
0.420

@<SCITEGIC>MOL_PROPERTY
U+W
SciTegic.value.DoubleValue
-35.856

@<SCITEGIC>MOL_PROPERTY
Grad RMS
SciTegic.value.DoubleValue
0.000000

@<SCITEGIC>MOL_PROPERTY
U
SciTegic.value.DoubleValue
22.625

@<SCITEGIC>MOL_PROPERTY
W
SciTegic.value.DoubleValue
-58.481

@<SCITEGIC>MOL_PROPERTY
W(PB)
SciTegic.value.DoubleValue
-60.400

@<SCITEGIC>MOL_PROPERTY
W(SA)
SciTegic.value.DoubleValue
1.919

@<SCITEGIC>MOL_PROPERTY
Valence
SciTegic.value.DoubleValue
2.404

@<SCITEGIC>MOL_PROPERTY
Coulomb
SciTegic.value.DoubleValue
19.464

@<SCITEGIC>MOL_PROPERTY
VdW
SciTegic.value.DoubleValue
0.757

@<SCITEGIC>MOL_PROPERTY
VdW6
SciTegic.value.DoubleValue
-5.074

@<SCITEGIC>MOL_PROPERTY
VdW12
SciTegic.value.DoubleValue
5.830

@<SCITEGIC>MOL_PROPERTY
Bond
SciTegic.value.DoubleValue
0.172

@<SCITEGIC>MOL_PROPERTY
Angle
SciTegic.value.DoubleValue
1.207

@<SCITEGIC>MOL_PROPERTY
Pdih
SciTegic.value.DoubleValue
1.025

@<SCITEGIC>MOL_PROPERTY
Idih
SciTegic.value.DoubleValue
0.000

@<SCITEGIC>MOL_PROPERTY
Tether
SciTegic.value.DoubleValue
0.000

@<TRIPOS>MOLECULE
guest-s10_confgen4.mol2 : confsearch ligand conformer 286
          20          19           1
SMALL
USER_CHARGES
 
@<TRIPOS>ATOM
       1    N1      19.670869   20.737658   22.543649 N.4        1 MOL1        -0.5937
       2    H1      18.665570   20.618950   22.394795 H          1 MOL1         0.3684
       3    H2      20.087925   20.988949   21.644017 H          1 MOL1         0.3684
       4    H3      19.794728   21.536045   23.171964 H          1 MOL1         0.3684
       5    C1      20.291117   19.488759   23.109087 C.3        1 MOL1         0.1270
       6    H4      19.793712   19.294973   24.064160 H          1 MOL1         0.0960
       7    C2      21.788394   19.702754   23.384550 C.3        1 MOL1        -0.2382
       8    H5      21.940975   20.549435   24.065055 H          1 MOL1         0.1009
       9    H6      22.338205   19.906362   22.457186 H          1 MOL1         0.1009
      10    H7      22.228923   18.814854   23.854859 H          1 MOL1         0.1009
      11    C3      20.082344   18.259426   22.195777 C.3        1 MOL1        -0.1392
      12    H8      20.589152   18.428139   21.236342 H          1 MOL1         0.0998
      13    H9      20.571620   17.388451   22.651782 H          1 MOL1         0.0998
      14    C4      18.595839   17.911234   21.929388 C.3        1 MOL1        -0.1302
      15    H10     18.552183   17.032086   21.271287 H          1 MOL1         0.0998
      16    H11     18.107769   18.725704   21.377128 H          1 MOL1         0.0998
      17    C5      17.803318   17.609085   23.221667 C.3        1 MOL1        -0.2317
      18    H12     18.272896   16.796736   23.791550 H          1 MOL1         0.1009
      19    H13     16.778235   17.299116   22.980437 H          1 MOL1         0.1009
      20    H14     17.737584   18.490417   23.871919 H          1 MOL1         0.1009
@<TRIPOS>BOND
    1     1     2    1
    2     1     3    1
    3     1     4    1
    4     1     5    1
    5     5     6    1
    6     5     7    1
    7     7     8    1
    8     7     9    1
    9     7    10    1
   10     5    11    1
   11    11    12    1
   12    11    13    1
   13    11    14    1
   14    14    15    1
   15    14    16    1
   16    14    17    1
   17    17    18    1
   18    17    19    1
   19    17    20    1
@<TRIPOS>SUBSTRUCTURE
       1 MOL1            1 RESIDUE      1      MOL     
@<SCITEGIC>MOL_PROPERTY
VConf Rank
SciTegic.value.IntegerValue
286

@<SCITEGIC>MOL_PROPERTY
Conf_Id
SciTegic.value.IntegerValue
50

@<SCITEGIC>MOL_PROPERTY
Delta U+W
SciTegic.value.DoubleValue
0.466

@<SCITEGIC>MOL_PROPERTY
U+W
SciTegic.value.DoubleValue
-35.811

@<SCITEGIC>MOL_PROPERTY
Grad RMS
SciTegic.value.DoubleValue
0.000000

@<SCITEGIC>MOL_PROPERTY
U
SciTegic.value.DoubleValue
22.369

@<SCITEGIC>MOL_PROPERTY
W
SciTegic.value.DoubleValue
-58.180

@<SCITEGIC>MOL_PROPERTY
W(PB)
SciTegic.value.DoubleValue
-60.103

@<SCITEGIC>MOL_PROPERTY
W(SA)
SciTegic.value.DoubleValue
1.923

@<SCITEGIC>MOL_PROPERTY
Valence
SciTegic.value.DoubleValue
2.168

@<SCITEGIC>MOL_PROPERTY
Coulomb
SciTegic.value.DoubleValue
19.636

@<SCITEGIC>MOL_PROPERTY
VdW
SciTegic.value.DoubleValue
0.566

@<SCITEGIC>MOL_PROPERTY
VdW6
SciTegic.value.DoubleValue
-5.263

@<SCITEGIC>MOL_PROPERTY
VdW12
SciTegic.value.DoubleValue
5.829

@<SCITEGIC>MOL_PROPERTY
Bond
SciTegic.value.DoubleValue
0.162

@<SCITEGIC>MOL_PROPERTY
Angle
SciTegic.value.DoubleValue
1.066

@<SCITEGIC>MOL_PROPERTY
Pdih
SciTegic.value.DoubleValue
0.939

@<SCITEGIC>MOL_PROPERTY
Idih
SciTegic.value.DoubleValue
0.000

@<SCITEGIC>MOL_PROPERTY
Tether
SciTegic.value.DoubleValue
0.000

@<TRIPOS>MOLECULE
guest-s10_confgen4.mol2 : confsearch ligand conformer 287
          20          19           1
SMALL
USER_CHARGES
 
@<TRIPOS>ATOM
       1    N1      21.142246   17.527163   23.931991 N.4        1 MOL1        -0.5937
       2    H1      20.657207   17.329234   24.811512 H          1 MOL1         0.3684
       3    H2      21.965039   18.092796   24.155470 H          1 MOL1         0.3684
       4    H3      21.478508   16.632953   23.564499 H          1 MOL1         0.3684
       5    C1      20.243104   18.224218   22.946983 C.3        1 MOL1         0.1270
       6    H4      19.398607   17.549663   22.775051 H          1 MOL1         0.0960
       7    C2      20.985393   18.435710   21.614225 C.3        1 MOL1        -0.2382
       8    H5      21.869813   19.070381   21.750822 H          1 MOL1         0.1009
       9    H6      20.342422   18.911721   20.866033 H          1 MOL1         0.1009
      10    H7      21.318136   17.475726   21.200898 H          1 MOL1         0.1009
      11    C3      19.689077   19.555579   23.511575 C.3        1 MOL1        -0.1392
      12    H8      19.816118   19.563990   24.602200 H          1 MOL1         0.0998
      13    H9      20.277595   20.404664   23.139133 H          1 MOL1         0.0998
      14    C4      18.183758   19.782263   23.221038 C.3        1 MOL1        -0.1302
      15    H10     17.864816   20.706307   23.723383 H          1 MOL1         0.0998
      16    H11     17.596125   18.970928   23.673258 H          1 MOL1         0.0998
      17    C5      17.838844   19.888954   21.719077 C.3        1 MOL1        -0.2317
      18    H12     18.441619   20.663909   21.228022 H          1 MOL1         0.1009
      19    H13     16.781721   20.153395   21.586404 H          1 MOL1         0.1009
      20    H14     18.005533   18.936489   21.200756 H          1 MOL1         0.1009
@<TRIPOS>BOND
    1     1     2    1
    2     1     3    1
    3     1     4    1
    4     1     5    1
    5     5     6    1
    6     5     7    1
    7     7     8    1
    8     7     9    1
    9     7    10    1
   10     5    11    1
   11    11    12    1
   12    11    13    1
   13    11    14    1
   14    14    15    1
   15    14    16    1
   16    14    17    1
   17    17    18    1
   18    17    19    1
   19    17    20    1
@<TRIPOS>SUBSTRUCTURE
       1 MOL1            1 RESIDUE      1      MOL     
@<SCITEGIC>MOL_PROPERTY
VConf Rank
SciTegic.value.IntegerValue
287

@<SCITEGIC>MOL_PROPERTY
Conf_Id
SciTegic.value.IntegerValue
3

@<SCITEGIC>MOL_PROPERTY
Delta U+W
SciTegic.value.DoubleValue
3.093

@<SCITEGIC>MOL_PROPERTY
U+W
SciTegic.value.DoubleValue
-33.184

@<SCITEGIC>MOL_PROPERTY
Grad RMS
SciTegic.value.DoubleValue
0.000000

@<SCITEGIC>MOL_PROPERTY
U
SciTegic.value.DoubleValue
25.256

@<SCITEGIC>MOL_PROPERTY
W
SciTegic.value.DoubleValue
-58.439

@<SCITEGIC>MOL_PROPERTY
W(PB)
SciTegic.value.DoubleValue
-60.337

@<SCITEGIC>MOL_PROPERTY
W(SA)
SciTegic.value.DoubleValue
1.898

@<SCITEGIC>MOL_PROPERTY
Valence
SciTegic.value.DoubleValue
4.963

@<SCITEGIC>MOL_PROPERTY
Coulomb
SciTegic.value.DoubleValue
19.511

@<SCITEGIC>MOL_PROPERTY
VdW
SciTegic.value.DoubleValue
0.782

@<SCITEGIC>MOL_PROPERTY
VdW6
SciTegic.value.DoubleValue
-5.429

@<SCITEGIC>MOL_PROPERTY
VdW12
SciTegic.value.DoubleValue
6.211

@<SCITEGIC>MOL_PROPERTY
Bond
SciTegic.value.DoubleValue
0.174

@<SCITEGIC>MOL_PROPERTY
Angle
SciTegic.value.DoubleValue
1.377

@<SCITEGIC>MOL_PROPERTY
Pdih
SciTegic.value.DoubleValue
3.412

@<SCITEGIC>MOL_PROPERTY
Idih
SciTegic.value.DoubleValue
0.000

@<SCITEGIC>MOL_PROPERTY
Tether
SciTegic.value.DoubleValue
0.000

@<TRIPOS>MOLECULE
guest-s10_confgen4.mol2 : confsearch ligand conformer 288
          20          19           1
SMALL
USER_CHARGES
 
@<TRIPOS>ATOM
       1    N1      19.872916   19.006517   25.034871 N.4        1 MOL1        -0.5937
       2    H1      19.222783   19.519614   25.636281 H          1 MOL1         0.3684
       3    H2      20.802130   19.410643   25.180044 H          1 MOL1         0.3684
       4    H3      19.902403   18.041378   25.372986 H          1 MOL1         0.3684
       5    C1      19.457465   19.073708   23.590826 C.3        1 MOL1         0.1270
       6    H4      19.450967   20.134461   23.322765 H          1 MOL1         0.0960
       7    C2      18.031568   18.519737   23.417520 C.3        1 MOL1        -0.2382
       8    H5      17.660302   18.688481   22.400061 H          1 MOL1         0.1009
       9    H6      17.336547   19.019367   24.103412 H          1 MOL1         0.1009
      10    H7      17.996397   17.442552   23.622274 H          1 MOL1         0.1009
      11    C3      20.477182   18.348604   22.680425 C.3        1 MOL1        -0.1392
      12    H8      21.482155   18.728947   22.906024 H          1 MOL1         0.0998
      13    H9      20.492846   17.279781   22.931638 H          1 MOL1         0.0998
      14    C4      20.226079   18.507408   21.158968 C.3        1 MOL1        -0.1302
      15    H10     19.285411   18.017185   20.874189 H          1 MOL1         0.0998
      16    H11     21.018417   17.975171   20.614209 H          1 MOL1         0.0998
      17    C5      20.206551   19.982903   20.698876 C.3        1 MOL1        -0.2317
      18    H12     21.137218   20.495245   20.975503 H          1 MOL1         0.1009
      19    H13     19.366838   20.532586   21.142491 H          1 MOL1         0.1009
      20    H14     20.102131   20.044177   19.607840 H          1 MOL1         0.1009
@<TRIPOS>BOND
    1     1     2    1
    2     1     3    1
    3     1     4    1
    4     1     5    1
    5     5     6    1
    6     5     7    1
    7     7     8    1
    8     7     9    1
    9     7    10    1
   10     5    11    1
   11    11    12    1
   12    11    13    1
   13    11    14    1
   14    14    15    1
   15    14    16    1
   16    14    17    1
   17    17    18    1
   18    17    19    1
   19    17    20    1
@<TRIPOS>SUBSTRUCTURE
       1 MOL1            1 RESIDUE      1      MOL     
@<SCITEGIC>MOL_PROPERTY
VConf Rank
SciTegic.value.IntegerValue
288

@<SCITEGIC>MOL_PROPERTY
Conf_Id
SciTegic.value.IntegerValue
64

@<SCITEGIC>MOL_PROPERTY
Delta U+W
SciTegic.value.DoubleValue
0.544

@<SCITEGIC>MOL_PROPERTY
U+W
SciTegic.value.DoubleValue
-35.732

@<SCITEGIC>MOL_PROPERTY
Grad RMS
SciTegic.value.DoubleValue
0.000000

@<SCITEGIC>MOL_PROPERTY
U
SciTegic.value.DoubleValue
22.800

@<SCITEGIC>MOL_PROPERTY
W
SciTegic.value.DoubleValue
-58.532

@<SCITEGIC>MOL_PROPERTY
W(PB)
SciTegic.value.DoubleValue
-60.437

@<SCITEGIC>MOL_PROPERTY
W(SA)
SciTegic.value.DoubleValue
1.905

@<SCITEGIC>MOL_PROPERTY
Valence
SciTegic.value.DoubleValue
2.662

@<SCITEGIC>MOL_PROPERTY
Coulomb
SciTegic.value.DoubleValue
19.485

@<SCITEGIC>MOL_PROPERTY
VdW
SciTegic.value.DoubleValue
0.653

@<SCITEGIC>MOL_PROPERTY
VdW6
SciTegic.value.DoubleValue
-5.460

@<SCITEGIC>MOL_PROPERTY
VdW12
SciTegic.value.DoubleValue
6.113

@<SCITEGIC>MOL_PROPERTY
Bond
SciTegic.value.DoubleValue
0.174

@<SCITEGIC>MOL_PROPERTY
Angle
SciTegic.value.DoubleValue
1.378

@<SCITEGIC>MOL_PROPERTY
Pdih
SciTegic.value.DoubleValue
1.109

@<SCITEGIC>MOL_PROPERTY
Idih
SciTegic.value.DoubleValue
0.000

@<SCITEGIC>MOL_PROPERTY
Tether
SciTegic.value.DoubleValue
0.000

@<TRIPOS>MOLECULE
guest-s10_confgen4.mol2 : confsearch ligand conformer 289
          20          19           1
SMALL
USER_CHARGES
 
@<TRIPOS>ATOM
       1    N1      18.159279   20.040735   21.947863 N.4        1 MOL1        -0.5937
       2    H1      18.621540   20.721729   22.554357 H          1 MOL1         0.3684
       3    H2      17.158694   20.071084   22.161218 H          1 MOL1         0.3684
       4    H3      18.273596   20.361508   20.982618 H          1 MOL1         0.3684
       5    C1      18.721761   18.658477   22.142307 C.3        1 MOL1         0.1270
       6    H4      18.159450   18.008589   21.464506 H          1 MOL1         0.0960
       7    C2      18.466700   18.159303   23.573912 C.3        1 MOL1        -0.2382
       8    H5      18.890276   18.842856   24.318927 H          1 MOL1         0.1009
       9    H6      18.902742   17.164047   23.724482 H          1 MOL1         0.1009
      10    H7      17.389630   18.082972   23.766435 H          1 MOL1         0.1009
      11    C3      20.211278   18.564270   21.725887 C.3        1 MOL1        -0.1392
      12    H8      20.521775   17.511157   21.719582 H          1 MOL1         0.0998
      13    H9      20.280598   18.891062   20.679998 H          1 MOL1         0.0998
      14    C4      21.213732   19.404049   22.565579 C.3        1 MOL1        -0.1302
      15    H10     20.736706   20.315708   22.948597 H          1 MOL1         0.0998
      16    H11     22.020456   19.745136   21.901623 H          1 MOL1         0.0998
      17    C5      21.861189   18.613734   23.727021 C.3        1 MOL1        -0.2317
      18    H12     21.121131   18.275631   24.460490 H          1 MOL1         0.1009
      19    H13     22.589647   19.240410   24.257674 H          1 MOL1         0.1009
      20    H14     22.394436   17.730486   23.352102 H          1 MOL1         0.1009
@<TRIPOS>BOND
    1     1     2    1
    2     1     3    1
    3     1     4    1
    4     1     5    1
    5     5     6    1
    6     5     7    1
    7     7     8    1
    8     7     9    1
    9     7    10    1
   10     5    11    1
   11    11    12    1
   12    11    13    1
   13    11    14    1
   14    14    15    1
   15    14    16    1
   16    14    17    1
   17    17    18    1
   18    17    19    1
   19    17    20    1
@<TRIPOS>SUBSTRUCTURE
       1 MOL1            1 RESIDUE      1      MOL     
@<SCITEGIC>MOL_PROPERTY
VConf Rank
SciTegic.value.IntegerValue
289

@<SCITEGIC>MOL_PROPERTY
Conf_Id
SciTegic.value.IntegerValue
35

@<SCITEGIC>MOL_PROPERTY
Delta U+W
SciTegic.value.DoubleValue
3.004

@<SCITEGIC>MOL_PROPERTY
U+W
SciTegic.value.DoubleValue
-33.272

@<SCITEGIC>MOL_PROPERTY
Grad RMS
SciTegic.value.DoubleValue
0.000000

@<SCITEGIC>MOL_PROPERTY
U
SciTegic.value.DoubleValue
25.367

@<SCITEGIC>MOL_PROPERTY
W
SciTegic.value.DoubleValue
-58.639

@<SCITEGIC>MOL_PROPERTY
W(PB)
SciTegic.value.DoubleValue
-60.512

@<SCITEGIC>MOL_PROPERTY
W(SA)
SciTegic.value.DoubleValue
1.873

@<SCITEGIC>MOL_PROPERTY
Valence
SciTegic.value.DoubleValue
4.943

@<SCITEGIC>MOL_PROPERTY
Coulomb
SciTegic.value.DoubleValue
19.661

@<SCITEGIC>MOL_PROPERTY
VdW
SciTegic.value.DoubleValue
0.764

@<SCITEGIC>MOL_PROPERTY
VdW6
SciTegic.value.DoubleValue
-5.871

@<SCITEGIC>MOL_PROPERTY
VdW12
SciTegic.value.DoubleValue
6.636

@<SCITEGIC>MOL_PROPERTY
Bond
SciTegic.value.DoubleValue
0.230

@<SCITEGIC>MOL_PROPERTY
Angle
SciTegic.value.DoubleValue
1.857

@<SCITEGIC>MOL_PROPERTY
Pdih
SciTegic.value.DoubleValue
2.855

@<SCITEGIC>MOL_PROPERTY
Idih
SciTegic.value.DoubleValue
0.000

@<SCITEGIC>MOL_PROPERTY
Tether
SciTegic.value.DoubleValue
0.000

@<TRIPOS>MOLECULE
guest-s10_confgen4.mol2 : confsearch ligand conformer 290
          20          19           1
SMALL
USER_CHARGES
 
@<TRIPOS>ATOM
       1    N1      18.722562   18.090170   21.587402 N.4        1 MOL1        -0.5937
       2    H1      18.463806   17.122428   21.377348 H          1 MOL1         0.3684
       3    H2      18.432761   18.662863   20.790145 H          1 MOL1         0.3684
       4    H3      18.173006   18.389683   22.395039 H          1 MOL1         0.3684
       5    C1      20.197171   18.222011   21.853128 C.3        1 MOL1         0.1270
       6    H4      20.687357   17.904206   20.927577 H          1 MOL1         0.0960
       7    C2      20.655017   17.263175   22.966466 C.3        1 MOL1        -0.2382
       8    H5      20.133121   17.460132   23.910462 H          1 MOL1         0.1009
       9    H6      21.733550   17.358676   23.142721 H          1 MOL1         0.1009
      10    H7      20.455178   16.222506   22.683556 H          1 MOL1         0.1009
      11    C3      20.638675   19.684894   22.114584 C.3        1 MOL1        -0.1392
      12    H8      21.727859   19.731613   21.984054 H          1 MOL1         0.0998
      13    H9      20.223808   20.327512   21.327092 H          1 MOL1         0.0998
      14    C4      20.300616   20.294176   23.504220 C.3        1 MOL1        -0.1302
      15    H10     20.719244   21.309696   23.540177 H          1 MOL1         0.0998
      16    H11     20.813145   19.736321   24.299672 H          1 MOL1         0.0998
      17    C5      18.790229   20.381126   23.820593 C.3        1 MOL1        -0.2317
      18    H12     18.238389   20.859196   23.000798 H          1 MOL1         0.1009
      19    H13     18.625721   20.980187   24.725709 H          1 MOL1         0.1009
      20    H14     18.359394   19.390972   24.008327 H          1 MOL1         0.1009
@<TRIPOS>BOND
    1     1     2    1
    2     1     3    1
    3     1     4    1
    4     1     5    1
    5     5     6    1
    6     5     7    1
    7     7     8    1
    8     7     9    1
    9     7    10    1
   10     5    11    1
   11    11    12    1
   12    11    13    1
   13    11    14    1
   14    14    15    1
   15    14    16    1
   16    14    17    1
   17    17    18    1
   18    17    19    1
   19    17    20    1
@<TRIPOS>SUBSTRUCTURE
       1 MOL1            1 RESIDUE      1      MOL     
@<SCITEGIC>MOL_PROPERTY
VConf Rank
SciTegic.value.IntegerValue
290

@<SCITEGIC>MOL_PROPERTY
Conf_Id
SciTegic.value.IntegerValue
55

@<SCITEGIC>MOL_PROPERTY
Delta U+W
SciTegic.value.DoubleValue
2.767

@<SCITEGIC>MOL_PROPERTY
U+W
SciTegic.value.DoubleValue
-33.509

@<SCITEGIC>MOL_PROPERTY
Grad RMS
SciTegic.value.DoubleValue
0.000000

@<SCITEGIC>MOL_PROPERTY
U
SciTegic.value.DoubleValue
24.552

@<SCITEGIC>MOL_PROPERTY
W
SciTegic.value.DoubleValue
-58.061

@<SCITEGIC>MOL_PROPERTY
W(PB)
SciTegic.value.DoubleValue
-59.930

@<SCITEGIC>MOL_PROPERTY
W(SA)
SciTegic.value.DoubleValue
1.869

@<SCITEGIC>MOL_PROPERTY
Valence
SciTegic.value.DoubleValue
3.726

@<SCITEGIC>MOL_PROPERTY
Coulomb
SciTegic.value.DoubleValue
20.219

@<SCITEGIC>MOL_PROPERTY
VdW
SciTegic.value.DoubleValue
0.606

@<SCITEGIC>MOL_PROPERTY
VdW6
SciTegic.value.DoubleValue
-6.395

@<SCITEGIC>MOL_PROPERTY
VdW12
SciTegic.value.DoubleValue
7.001

@<SCITEGIC>MOL_PROPERTY
Bond
SciTegic.value.DoubleValue
0.241

@<SCITEGIC>MOL_PROPERTY
Angle
SciTegic.value.DoubleValue
2.098

@<SCITEGIC>MOL_PROPERTY
Pdih
SciTegic.value.DoubleValue
1.387

@<SCITEGIC>MOL_PROPERTY
Idih
SciTegic.value.DoubleValue
0.000

@<SCITEGIC>MOL_PROPERTY
Tether
SciTegic.value.DoubleValue
0.000

@<TRIPOS>MOLECULE
guest-s10_confgen4.mol2 : confsearch ligand conformer 291
          20          19           1
SMALL
USER_CHARGES
 
@<TRIPOS>ATOM
       1    N1      20.818653   18.541204   24.319520 N.4        1 MOL1        -0.5937
       2    H1      20.976336   17.549920   24.121939 H          1 MOL1         0.3684
       3    H2      20.906810   18.668483   25.331293 H          1 MOL1         0.3684
       4    H3      21.578174   19.067086   23.880023 H          1 MOL1         0.3684
       5    C1      19.472603   18.995255   23.822482 C.3        1 MOL1         0.1270
       6    H4      19.388266   20.058340   24.068701 H          1 MOL1         0.0960
       7    C2      18.346342   18.242273   24.549478 C.3        1 MOL1        -0.2382
       8    H5      18.425111   18.379187   25.634980 H          1 MOL1         0.1009
       9    H6      18.385738   17.166600   24.336947 H          1 MOL1         0.1009
      10    H7      17.362945   18.616023   24.238221 H          1 MOL1         0.1009
      11    C3      19.321607   18.840614   22.292961 C.3        1 MOL1        -0.1392
      12    H8      19.426116   17.783104   22.016074 H          1 MOL1         0.0998
      13    H9      18.304936   19.140187   22.005381 H          1 MOL1         0.0998
      14    C4      20.337263   19.693182   21.494781 C.3        1 MOL1        -0.1302
      15    H10     21.363213   19.374060   21.722849 H          1 MOL1         0.0998
      16    H11     20.256426   20.746395   21.798838 H          1 MOL1         0.0998
      17    C5      20.103567   19.581393   19.972877 C.3        1 MOL1        -0.2317
      18    H12     20.207828   18.542866   19.632516 H          1 MOL1         0.1009
      19    H13     20.832670   20.190487   19.422877 H          1 MOL1         0.1009
      20    H14     19.099401   19.931266   19.699984 H          1 MOL1         0.1009
@<TRIPOS>BOND
    1     1     2    1
    2     1     3    1
    3     1     4    1
    4     1     5    1
    5     5     6    1
    6     5     7    1
    7     7     8    1
    8     7     9    1
    9     7    10    1
   10     5    11    1
   11    11    12    1
   12    11    13    1
   13    11    14    1
   14    14    15    1
   15    14    16    1
   16    14    17    1
   17    17    18    1
   18    17    19    1
   19    17    20    1
@<TRIPOS>SUBSTRUCTURE
       1 MOL1            1 RESIDUE      1      MOL     
@<SCITEGIC>MOL_PROPERTY
VConf Rank
SciTegic.value.IntegerValue
291

@<SCITEGIC>MOL_PROPERTY
Conf_Id
SciTegic.value.IntegerValue
74

@<SCITEGIC>MOL_PROPERTY
Delta U+W
SciTegic.value.DoubleValue
0.000

@<SCITEGIC>MOL_PROPERTY
U+W
SciTegic.value.DoubleValue
-36.276

@<SCITEGIC>MOL_PROPERTY
Grad RMS
SciTegic.value.DoubleValue
0.000000

@<SCITEGIC>MOL_PROPERTY
U
SciTegic.value.DoubleValue
22.080

@<SCITEGIC>MOL_PROPERTY
W
SciTegic.value.DoubleValue
-58.356

@<SCITEGIC>MOL_PROPERTY
W(PB)
SciTegic.value.DoubleValue
-60.289

@<SCITEGIC>MOL_PROPERTY
W(SA)
SciTegic.value.DoubleValue
1.932

@<SCITEGIC>MOL_PROPERTY
Valence
SciTegic.value.DoubleValue
1.885

@<SCITEGIC>MOL_PROPERTY
Coulomb
SciTegic.value.DoubleValue
19.559

@<SCITEGIC>MOL_PROPERTY
VdW
SciTegic.value.DoubleValue
0.637

@<SCITEGIC>MOL_PROPERTY
VdW6
SciTegic.value.DoubleValue
-4.482

@<SCITEGIC>MOL_PROPERTY
VdW12
SciTegic.value.DoubleValue
5.119

@<SCITEGIC>MOL_PROPERTY
Bond
SciTegic.value.DoubleValue
0.136

@<SCITEGIC>MOL_PROPERTY
Angle
SciTegic.value.DoubleValue
0.867

@<SCITEGIC>MOL_PROPERTY
Pdih
SciTegic.value.DoubleValue
0.882

@<SCITEGIC>MOL_PROPERTY
Idih
SciTegic.value.DoubleValue
0.000

@<SCITEGIC>MOL_PROPERTY
Tether
SciTegic.value.DoubleValue
0.000

@<TRIPOS>MOLECULE
guest-s10_confgen4.mol2 : confsearch ligand conformer 292
          20          19           1
SMALL
USER_CHARGES
 
@<TRIPOS>ATOM
       1    N1      21.346295   18.579442   24.456024 N.4        1 MOL1        -0.5937
       2    H1      22.228151   18.725150   23.957070 H          1 MOL1         0.3684
       3    H2      21.219422   17.570165   24.565518 H          1 MOL1         0.3684
       4    H3      21.460527   18.975024   25.393118 H          1 MOL1         0.3684
       5    C1      20.187353   19.206753   23.730903 C.3        1 MOL1         0.1270
       6    H4      20.408339   20.276602   23.664167 H          1 MOL1         0.0960
       7    C2      18.890508   19.027925   24.541467 C.3        1 MOL1        -0.2382
       8    H5      19.025577   19.384277   25.570054 H          1 MOL1         0.1009
       9    H6      18.590766   17.973439   24.583817 H          1 MOL1         0.1009
      10    H7      18.065113   19.602869   24.106282 H          1 MOL1         0.1009
      11    C3      20.058499   18.649184   22.294239 C.3        1 MOL1        -0.1392
      12    H8      21.041922   18.707841   21.809366 H          1 MOL1         0.0998
      13    H9      19.794635   17.583961   22.333280 H          1 MOL1         0.0998
      14    C4      19.032696   19.408978   21.418110 C.3        1 MOL1        -0.1302
      15    H10     19.259584   20.484362   21.429975 H          1 MOL1         0.0998
      16    H11     18.020675   19.292244   21.828094 H          1 MOL1         0.0998
      17    C5      19.041284   18.900498   19.960352 C.3        1 MOL1        -0.2317
      18    H12     20.027363   19.039703   19.498284 H          1 MOL1         0.1009
      19    H13     18.306437   19.446814   19.354855 H          1 MOL1         0.1009
      20    H14     18.789314   17.833009   19.913044 H          1 MOL1         0.1009
@<TRIPOS>BOND
    1     1     2    1
    2     1     3    1
    3     1     4    1
    4     1     5    1
    5     5     6    1
    6     5     7    1
    7     7     8    1
    8     7     9    1
    9     7    10    1
   10     5    11    1
   11    11    12    1
   12    11    13    1
   13    11    14    1
   14    14    15    1
   15    14    16    1
   16    14    17    1
   17    17    18    1
   18    17    19    1
   19    17    20    1
@<TRIPOS>SUBSTRUCTURE
       1 MOL1            1 RESIDUE      1      MOL     
@<SCITEGIC>MOL_PROPERTY
VConf Rank
SciTegic.value.IntegerValue
292

@<SCITEGIC>MOL_PROPERTY
Conf_Id
SciTegic.value.IntegerValue
80

@<SCITEGIC>MOL_PROPERTY
Delta U+W
SciTegic.value.DoubleValue
0.460

@<SCITEGIC>MOL_PROPERTY
U+W
SciTegic.value.DoubleValue
-35.817

@<SCITEGIC>MOL_PROPERTY
Grad RMS
SciTegic.value.DoubleValue
0.000000

@<SCITEGIC>MOL_PROPERTY
U
SciTegic.value.DoubleValue
22.495

@<SCITEGIC>MOL_PROPERTY
W
SciTegic.value.DoubleValue
-58.311

@<SCITEGIC>MOL_PROPERTY
W(PB)
SciTegic.value.DoubleValue
-60.259

@<SCITEGIC>MOL_PROPERTY
W(SA)
SciTegic.value.DoubleValue
1.948

@<SCITEGIC>MOL_PROPERTY
Valence
SciTegic.value.DoubleValue
2.419

@<SCITEGIC>MOL_PROPERTY
Coulomb
SciTegic.value.DoubleValue
19.304

@<SCITEGIC>MOL_PROPERTY
VdW
SciTegic.value.DoubleValue
0.772

@<SCITEGIC>MOL_PROPERTY
VdW6
SciTegic.value.DoubleValue
-4.635

@<SCITEGIC>MOL_PROPERTY
VdW12
SciTegic.value.DoubleValue
5.407

@<SCITEGIC>MOL_PROPERTY
Bond
SciTegic.value.DoubleValue
0.149

@<SCITEGIC>MOL_PROPERTY
Angle
SciTegic.value.DoubleValue
1.142

@<SCITEGIC>MOL_PROPERTY
Pdih
SciTegic.value.DoubleValue
1.129

@<SCITEGIC>MOL_PROPERTY
Idih
SciTegic.value.DoubleValue
0.000

@<SCITEGIC>MOL_PROPERTY
Tether
SciTegic.value.DoubleValue
0.000

@<TRIPOS>MOLECULE
guest-s10_confgen4.mol2 : confsearch ligand conformer 293
          20          19           1
SMALL
USER_CHARGES
 
@<TRIPOS>ATOM
       1    N1      19.534329   20.007829   24.839542 N.4        1 MOL1        -0.5937
       2    H1      18.550379   20.118582   25.099135 H          1 MOL1         0.3684
       3    H2      19.863503   20.912316   24.492790 H          1 MOL1         0.3684
       4    H3      20.052464   19.804580   25.698519 H          1 MOL1         0.3684
       5    C1      19.720162   18.922721   23.814479 C.3        1 MOL1         0.1270
       6    H4      19.348990   18.001111   24.273463 H          1 MOL1         0.0960
       7    C2      21.214935   18.733789   23.504291 C.3        1 MOL1        -0.2382
       8    H5      21.792217   18.625262   24.430634 H          1 MOL1         0.1009
       9    H6      21.617962   19.590271   22.949800 H          1 MOL1         0.1009
      10    H7      21.381616   17.825656   22.913937 H          1 MOL1         0.1009
      11    C3      18.873843   19.203267   22.548629 C.3        1 MOL1        -0.1392
      12    H8      17.836741   19.359272   22.873858 H          1 MOL1         0.0998
      13    H9      19.186372   20.148325   22.085035 H          1 MOL1         0.0998
      14    C4      18.871852   18.063682   21.495545 C.3        1 MOL1        -0.1302
      15    H10     17.869586   18.001479   21.048655 H          1 MOL1         0.0998
      16    H11     19.044885   17.093432   21.982003 H          1 MOL1         0.0998
      17    C5      19.889700   18.281989   20.351272 C.3        1 MOL1        -0.2317
      18    H12     19.677666   19.213553   19.810581 H          1 MOL1         0.1009
      19    H13     19.836107   17.458515   19.627392 H          1 MOL1         0.1009
      20    H14     20.920528   18.333426   20.719088 H          1 MOL1         0.1009
@<TRIPOS>BOND
    1     1     2    1
    2     1     3    1
    3     1     4    1
    4     1     5    1
    5     5     6    1
    6     5     7    1
    7     7     8    1
    8     7     9    1
    9     7    10    1
   10     5    11    1
   11    11    12    1
   12    11    13    1
   13    11    14    1
   14    14    15    1
   15    14    16    1
   16    14    17    1
   17    17    18    1
   18    17    19    1
   19    17    20    1
@<TRIPOS>SUBSTRUCTURE
       1 MOL1            1 RESIDUE      1      MOL     
@<SCITEGIC>MOL_PROPERTY
VConf Rank
SciTegic.value.IntegerValue
293

@<SCITEGIC>MOL_PROPERTY
Conf_Id
SciTegic.value.IntegerValue
52

@<SCITEGIC>MOL_PROPERTY
Delta U+W
SciTegic.value.DoubleValue
2.995

@<SCITEGIC>MOL_PROPERTY
U+W
SciTegic.value.DoubleValue
-33.282

@<SCITEGIC>MOL_PROPERTY
Grad RMS
SciTegic.value.DoubleValue
0.000000

@<SCITEGIC>MOL_PROPERTY
U
SciTegic.value.DoubleValue
25.224

@<SCITEGIC>MOL_PROPERTY
W
SciTegic.value.DoubleValue
-58.506

@<SCITEGIC>MOL_PROPERTY
W(PB)
SciTegic.value.DoubleValue
-60.411

@<SCITEGIC>MOL_PROPERTY
W(SA)
SciTegic.value.DoubleValue
1.905

@<SCITEGIC>MOL_PROPERTY
Valence
SciTegic.value.DoubleValue
4.945

@<SCITEGIC>MOL_PROPERTY
Coulomb
SciTegic.value.DoubleValue
19.467

@<SCITEGIC>MOL_PROPERTY
VdW
SciTegic.value.DoubleValue
0.813

@<SCITEGIC>MOL_PROPERTY
VdW6
SciTegic.value.DoubleValue
-5.458

@<SCITEGIC>MOL_PROPERTY
VdW12
SciTegic.value.DoubleValue
6.270

@<SCITEGIC>MOL_PROPERTY
Bond
SciTegic.value.DoubleValue
0.200

@<SCITEGIC>MOL_PROPERTY
Angle
SciTegic.value.DoubleValue
1.675

@<SCITEGIC>MOL_PROPERTY
Pdih
SciTegic.value.DoubleValue
3.070

@<SCITEGIC>MOL_PROPERTY
Idih
SciTegic.value.DoubleValue
0.000

@<SCITEGIC>MOL_PROPERTY
Tether
SciTegic.value.DoubleValue
0.000

@<TRIPOS>MOLECULE
guest-s10_confgen4.mol2 : confsearch ligand conformer 294
          20          19           1
SMALL
USER_CHARGES
 
@<TRIPOS>ATOM
       1    N1      19.021369   19.226843   21.309372 N.4        1 MOL1        -0.5937
       2    H1      19.295010   18.412245   20.754458 H          1 MOL1         0.3684
       3    H2      18.731763   19.959223   20.655617 H          1 MOL1         0.3684
       4    H3      18.201305   18.961169   21.858824 H          1 MOL1         0.3684
       5    C1      20.145714   19.689845   22.195220 C.3        1 MOL1         0.1270
       6    H4      19.796636   20.586313   22.716971 H          1 MOL1         0.0960
       7    C2      21.361368   20.076413   21.335854 C.3        1 MOL1        -0.2382
       8    H5      21.762362   19.206375   20.800974 H          1 MOL1         0.1009
       9    H6      22.162754   20.494713   21.957505 H          1 MOL1         0.1009
      10    H7      21.087306   20.837074   20.594489 H          1 MOL1         0.1009
      11    C3      20.547313   18.636187   23.254823 C.3        1 MOL1        -0.1392
      12    H8      20.656813   17.651694   22.781160 H          1 MOL1         0.0998
      13    H9      21.541268   18.893259   23.644761 H          1 MOL1         0.0998
      14    C4      19.589978   18.540102   24.471739 C.3        1 MOL1        -0.1302
      15    H10     19.522908   19.518404   24.968188 H          1 MOL1         0.0998
      16    H11     20.039164   17.858123   25.207378 H          1 MOL1         0.0998
      17    C5      18.168472   18.030962   24.141129 C.3        1 MOL1        -0.2317
      18    H12     17.624115   17.800224   25.066182 H          1 MOL1         0.1009
      19    H13     18.202540   17.113845   23.538591 H          1 MOL1         0.1009
      20    H14     17.582235   18.787256   23.606540 H          1 MOL1         0.1009
@<TRIPOS>BOND
    1     1     2    1
    2     1     3    1
    3     1     4    1
    4     1     5    1
    5     5     6    1
    6     5     7    1
    7     7     8    1
    8     7     9    1
    9     7    10    1
   10     5    11    1
   11    11    12    1
   12    11    13    1
   13    11    14    1
   14    14    15    1
   15    14    16    1
   16    14    17    1
   17    17    18    1
   18    17    19    1
   19    17    20    1
@<TRIPOS>SUBSTRUCTURE
       1 MOL1            1 RESIDUE      1      MOL     
@<SCITEGIC>MOL_PROPERTY
VConf Rank
SciTegic.value.IntegerValue
294

@<SCITEGIC>MOL_PROPERTY
Conf_Id
SciTegic.value.IntegerValue
54

@<SCITEGIC>MOL_PROPERTY
Delta U+W
SciTegic.value.DoubleValue
2.752

@<SCITEGIC>MOL_PROPERTY
U+W
SciTegic.value.DoubleValue
-33.525

@<SCITEGIC>MOL_PROPERTY
Grad RMS
SciTegic.value.DoubleValue
0.000000

@<SCITEGIC>MOL_PROPERTY
U
SciTegic.value.DoubleValue
24.337

@<SCITEGIC>MOL_PROPERTY
W
SciTegic.value.DoubleValue
-57.862

@<SCITEGIC>MOL_PROPERTY
W(PB)
SciTegic.value.DoubleValue
-59.764

@<SCITEGIC>MOL_PROPERTY
W(SA)
SciTegic.value.DoubleValue
1.901

@<SCITEGIC>MOL_PROPERTY
Valence
SciTegic.value.DoubleValue
3.593

@<SCITEGIC>MOL_PROPERTY
Coulomb
SciTegic.value.DoubleValue
20.067

@<SCITEGIC>MOL_PROPERTY
VdW
SciTegic.value.DoubleValue
0.677

@<SCITEGIC>MOL_PROPERTY
VdW6
SciTegic.value.DoubleValue
-5.466

@<SCITEGIC>MOL_PROPERTY
VdW12
SciTegic.value.DoubleValue
6.144

@<SCITEGIC>MOL_PROPERTY
Bond
SciTegic.value.DoubleValue
0.191

@<SCITEGIC>MOL_PROPERTY
Angle
SciTegic.value.DoubleValue
1.557

@<SCITEGIC>MOL_PROPERTY
Pdih
SciTegic.value.DoubleValue
1.845

@<SCITEGIC>MOL_PROPERTY
Idih
SciTegic.value.DoubleValue
0.000

@<SCITEGIC>MOL_PROPERTY
Tether
SciTegic.value.DoubleValue
0.000

@<TRIPOS>MOLECULE
guest-s10_confgen4.mol2 : confsearch ligand conformer 295
          20          19           1
SMALL
USER_CHARGES
 
@<TRIPOS>ATOM
       1    N1      20.709554   17.233845   22.066566 N.4        1 MOL1        -0.5937
       2    H1      20.573725   16.245213   21.838946 H          1 MOL1         0.3684
       3    H2      21.665322   17.335910   22.418422 H          1 MOL1         0.3684
       4    H3      20.646113   17.759952   21.192132 H          1 MOL1         0.3684
       5    C1      19.696321   17.711927   23.070898 C.3        1 MOL1         0.1270
       6    H4      19.829219   17.083798   23.957360 H          1 MOL1         0.0960
       7    C2      18.262224   17.491595   22.557417 C.3        1 MOL1        -0.2382
       8    H5      17.526678   17.842974   23.291568 H          1 MOL1         0.1009
       9    H6      18.076082   16.424345   22.385907 H          1 MOL1         0.1009
      10    H7      18.083667   18.018197   21.612509 H          1 MOL1         0.1009
      11    C3      19.939514   19.176704   23.507173 C.3        1 MOL1        -0.1392
      12    H8      19.225999   19.431240   24.302058 H          1 MOL1         0.0998
      13    H9      20.935441   19.241680   23.964682 H          1 MOL1         0.0998
      14    C4      19.833282   20.224818   22.369405 C.3        1 MOL1        -0.1302
      15    H10     18.825734   20.211040   21.932746 H          1 MOL1         0.0998
      16    H11     20.534754   19.979325   21.560806 H          1 MOL1         0.0998
      17    C5      20.135360   21.649447   22.881762 C.3        1 MOL1        -0.2317
      18    H12     20.054240   22.380059   22.066475 H          1 MOL1         0.1009
      19    H13     21.151543   21.714986   23.292003 H          1 MOL1         0.1009
      20    H14     19.429303   21.944247   23.669036 H          1 MOL1         0.1009
@<TRIPOS>BOND
    1     1     2    1
    2     1     3    1
    3     1     4    1
    4     1     5    1
    5     5     6    1
    6     5     7    1
    7     7     8    1
    8     7     9    1
    9     7    10    1
   10     5    11    1
   11    11    12    1
   12    11    13    1
   13    11    14    1
   14    14    15    1
   15    14    16    1
   16    14    17    1
   17    17    18    1
   18    17    19    1
   19    17    20    1
@<TRIPOS>SUBSTRUCTURE
       1 MOL1            1 RESIDUE      1      MOL     
@<SCITEGIC>MOL_PROPERTY
VConf Rank
SciTegic.value.IntegerValue
295

@<SCITEGIC>MOL_PROPERTY
Conf_Id
SciTegic.value.IntegerValue
63

@<SCITEGIC>MOL_PROPERTY
Delta U+W
SciTegic.value.DoubleValue
0.420

@<SCITEGIC>MOL_PROPERTY
U+W
SciTegic.value.DoubleValue
-35.856

@<SCITEGIC>MOL_PROPERTY
Grad RMS
SciTegic.value.DoubleValue
0.000000

@<SCITEGIC>MOL_PROPERTY
U
SciTegic.value.DoubleValue
22.625

@<SCITEGIC>MOL_PROPERTY
W
SciTegic.value.DoubleValue
-58.481

@<SCITEGIC>MOL_PROPERTY
W(PB)
SciTegic.value.DoubleValue
-60.400

@<SCITEGIC>MOL_PROPERTY
W(SA)
SciTegic.value.DoubleValue
1.919

@<SCITEGIC>MOL_PROPERTY
Valence
SciTegic.value.DoubleValue
2.404

@<SCITEGIC>MOL_PROPERTY
Coulomb
SciTegic.value.DoubleValue
19.464

@<SCITEGIC>MOL_PROPERTY
VdW
SciTegic.value.DoubleValue
0.757

@<SCITEGIC>MOL_PROPERTY
VdW6
SciTegic.value.DoubleValue
-5.074

@<SCITEGIC>MOL_PROPERTY
VdW12
SciTegic.value.DoubleValue
5.830

@<SCITEGIC>MOL_PROPERTY
Bond
SciTegic.value.DoubleValue
0.172

@<SCITEGIC>MOL_PROPERTY
Angle
SciTegic.value.DoubleValue
1.207

@<SCITEGIC>MOL_PROPERTY
Pdih
SciTegic.value.DoubleValue
1.025

@<SCITEGIC>MOL_PROPERTY
Idih
SciTegic.value.DoubleValue
0.000

@<SCITEGIC>MOL_PROPERTY
Tether
SciTegic.value.DoubleValue
0.000

@<TRIPOS>MOLECULE
guest-s10_confgen4.mol2 : confsearch ligand conformer 296
          20          19           1
SMALL
USER_CHARGES
 
@<TRIPOS>ATOM
       1    N1      20.988368   17.829065   23.104692 N.4        1 MOL1        -0.5937
       2    H1      20.408224   17.550615   23.900162 H          1 MOL1         0.3684
       3    H2      21.806300   18.318302   23.476251 H          1 MOL1         0.3684
       4    H3      21.322361   16.972384   22.655150 H          1 MOL1         0.3684
       5    C1      20.218980   18.693376   22.142825 C.3        1 MOL1         0.1270
       6    H4      19.370195   18.097527   21.794032 H          1 MOL1         0.0960
       7    C2      21.084191   19.052429   20.923808 C.3        1 MOL1        -0.2382
       8    H5      21.443881   18.145650   20.422198 H          1 MOL1         0.1009
       9    H6      21.956638   19.649427   21.217380 H          1 MOL1         0.1009
      10    H7      20.505835   19.629867   20.191898 H          1 MOL1         0.1009
      11    C3      19.669871   19.975286   22.809284 C.3        1 MOL1        -0.1392
      12    H8      20.508651   20.595617   23.152024 H          1 MOL1         0.0998
      13    H9      19.137150   20.569826   22.055189 H          1 MOL1         0.0998
      14    C4      18.714067   19.712313   24.000578 C.3        1 MOL1        -0.1302
      15    H10     18.383125   20.678378   24.406901 H          1 MOL1         0.0998
      16    H11     19.252357   19.210741   24.816197 H          1 MOL1         0.0998
      17    C5      17.470771   18.881968   23.608011 C.3        1 MOL1        -0.2317
      18    H12     16.915503   19.364348   22.793047 H          1 MOL1         0.1009
      19    H13     16.789696   18.781745   24.463091 H          1 MOL1         0.1009
      20    H14     17.745194   17.870272   23.283883 H          1 MOL1         0.1009
@<TRIPOS>BOND
    1     1     2    1
    2     1     3    1
    3     1     4    1
    4     1     5    1
    5     5     6    1
    6     5     7    1
    7     7     8    1
    8     7     9    1
    9     7    10    1
   10     5    11    1
   11    11    12    1
   12    11    13    1
   13    11    14    1
   14    14    15    1
   15    14    16    1
   16    14    17    1
   17    17    18    1
   18    17    19    1
   19    17    20    1
@<TRIPOS>SUBSTRUCTURE
       1 MOL1            1 RESIDUE      1      MOL     
@<SCITEGIC>MOL_PROPERTY
VConf Rank
SciTegic.value.IntegerValue
296

@<SCITEGIC>MOL_PROPERTY
Conf_Id
SciTegic.value.IntegerValue
50

@<SCITEGIC>MOL_PROPERTY
Delta U+W
SciTegic.value.DoubleValue
0.466

@<SCITEGIC>MOL_PROPERTY
U+W
SciTegic.value.DoubleValue
-35.811

@<SCITEGIC>MOL_PROPERTY
Grad RMS
SciTegic.value.DoubleValue
0.000000

@<SCITEGIC>MOL_PROPERTY
U
SciTegic.value.DoubleValue
22.369

@<SCITEGIC>MOL_PROPERTY
W
SciTegic.value.DoubleValue
-58.180

@<SCITEGIC>MOL_PROPERTY
W(PB)
SciTegic.value.DoubleValue
-60.103

@<SCITEGIC>MOL_PROPERTY
W(SA)
SciTegic.value.DoubleValue
1.923

@<SCITEGIC>MOL_PROPERTY
Valence
SciTegic.value.DoubleValue
2.168

@<SCITEGIC>MOL_PROPERTY
Coulomb
SciTegic.value.DoubleValue
19.636

@<SCITEGIC>MOL_PROPERTY
VdW
SciTegic.value.DoubleValue
0.566

@<SCITEGIC>MOL_PROPERTY
VdW6
SciTegic.value.DoubleValue
-5.263

@<SCITEGIC>MOL_PROPERTY
VdW12
SciTegic.value.DoubleValue
5.829

@<SCITEGIC>MOL_PROPERTY
Bond
SciTegic.value.DoubleValue
0.162

@<SCITEGIC>MOL_PROPERTY
Angle
SciTegic.value.DoubleValue
1.066

@<SCITEGIC>MOL_PROPERTY
Pdih
SciTegic.value.DoubleValue
0.939

@<SCITEGIC>MOL_PROPERTY
Idih
SciTegic.value.DoubleValue
0.000

@<SCITEGIC>MOL_PROPERTY
Tether
SciTegic.value.DoubleValue
0.000

@<TRIPOS>MOLECULE
guest-s10_confgen4.mol2 : confsearch ligand conformer 297
          20          19           1
SMALL
USER_CHARGES
 
@<TRIPOS>ATOM
       1    N1      21.577395   18.417634   21.510983 N.4        1 MOL1        -0.5937
       2    H1      21.923411   19.331384   21.205483 H          1 MOL1         0.3684
       3    H2      21.258523   17.915813   20.678295 H          1 MOL1         0.3684
       4    H3      22.377181   17.902594   21.888886 H          1 MOL1         0.3684
       5    C1      20.478178   18.552706   22.529835 C.3        1 MOL1         0.1270
       6    H4      20.910203   19.100034   23.373368 H          1 MOL1         0.0960
       7    C2      20.038461   17.159826   23.018200 C.3        1 MOL1        -0.2382
       8    H5      19.641321   16.558231   22.191139 H          1 MOL1         0.1009
       9    H6      19.261180   17.229179   23.786844 H          1 MOL1         0.1009
      10    H7      20.886593   16.617915   23.454242 H          1 MOL1         0.1009
      11    C3      19.282558   19.372506   21.985177 C.3        1 MOL1        -0.1392
      12    H8      19.605959   19.934226   21.098862 H          1 MOL1         0.0998
      13    H9      18.485558   18.702666   21.635723 H          1 MOL1         0.0998
      14    C4      18.711454   20.397546   22.997558 C.3        1 MOL1        -0.1302
      15    H10     17.924837   20.981563   22.499471 H          1 MOL1         0.0998
      16    H11     19.495603   21.116185   23.274597 H          1 MOL1         0.0998
      17    C5      18.123594   19.762202   24.277009 C.3        1 MOL1        -0.2317
      18    H12     17.365504   19.006945   24.032233 H          1 MOL1         0.1009
      19    H13     17.643579   20.528311   24.899667 H          1 MOL1         0.1009
      20    H14     18.904587   19.288579   24.884759 H          1 MOL1         0.1009
@<TRIPOS>BOND
    1     1     2    1
    2     1     3    1
    3     1     4    1
    4     1     5    1
    5     5     6    1
    6     5     7    1
    7     7     8    1
    8     7     9    1
    9     7    10    1
   10     5    11    1
   11    11    12    1
   12    11    13    1
   13    11    14    1
   14    14    15    1
   15    14    16    1
   16    14    17    1
   17    17    18    1
   18    17    19    1
   19    17    20    1
@<TRIPOS>SUBSTRUCTURE
       1 MOL1            1 RESIDUE      1      MOL     
@<SCITEGIC>MOL_PROPERTY
VConf Rank
SciTegic.value.IntegerValue
297

@<SCITEGIC>MOL_PROPERTY
Conf_Id
SciTegic.value.IntegerValue
3

@<SCITEGIC>MOL_PROPERTY
Delta U+W
SciTegic.value.DoubleValue
3.093

@<SCITEGIC>MOL_PROPERTY
U+W
SciTegic.value.DoubleValue
-33.184

@<SCITEGIC>MOL_PROPERTY
Grad RMS
SciTegic.value.DoubleValue
0.000000

@<SCITEGIC>MOL_PROPERTY
U
SciTegic.value.DoubleValue
25.256

@<SCITEGIC>MOL_PROPERTY
W
SciTegic.value.DoubleValue
-58.439

@<SCITEGIC>MOL_PROPERTY
W(PB)
SciTegic.value.DoubleValue
-60.337

@<SCITEGIC>MOL_PROPERTY
W(SA)
SciTegic.value.DoubleValue
1.898

@<SCITEGIC>MOL_PROPERTY
Valence
SciTegic.value.DoubleValue
4.963

@<SCITEGIC>MOL_PROPERTY
Coulomb
SciTegic.value.DoubleValue
19.511

@<SCITEGIC>MOL_PROPERTY
VdW
SciTegic.value.DoubleValue
0.782

@<SCITEGIC>MOL_PROPERTY
VdW6
SciTegic.value.DoubleValue
-5.429

@<SCITEGIC>MOL_PROPERTY
VdW12
SciTegic.value.DoubleValue
6.211

@<SCITEGIC>MOL_PROPERTY
Bond
SciTegic.value.DoubleValue
0.174

@<SCITEGIC>MOL_PROPERTY
Angle
SciTegic.value.DoubleValue
1.377

@<SCITEGIC>MOL_PROPERTY
Pdih
SciTegic.value.DoubleValue
3.412

@<SCITEGIC>MOL_PROPERTY
Idih
SciTegic.value.DoubleValue
0.000

@<SCITEGIC>MOL_PROPERTY
Tether
SciTegic.value.DoubleValue
0.000

@<TRIPOS>MOLECULE
guest-s10_confgen4.mol2 : confsearch ligand conformer 298
          20          19           1
SMALL
USER_CHARGES
 
@<TRIPOS>ATOM
       1    N1      19.183864   21.151001   22.510589 N.4        1 MOL1        -0.5937
       2    H1      19.387285   21.853574   23.226583 H          1 MOL1         0.3684
       3    H2      18.170704   21.152747   22.364532 H          1 MOL1         0.3684
       4    H3      19.619261   21.468503   21.640930 H          1 MOL1         0.3684
       5    C1      19.684378   19.791443   22.914901 C.3        1 MOL1         0.1270
       6    H4      19.170715   19.540650   23.847826 H          1 MOL1         0.0960
       7    C2      21.198222   19.838410   23.190893 C.3        1 MOL1        -0.2382
       8    H5      21.553769   18.894337   23.619666 H          1 MOL1         0.1009
       9    H6      21.435692   20.631316   23.910644 H          1 MOL1         0.1009
      10    H7      21.763720   20.033063   22.271213 H          1 MOL1         0.1009
      11    C3      19.319522   18.722924   21.856800 C.3        1 MOL1        -0.1392
      12    H8      18.244565   18.791850   21.644100 H          1 MOL1         0.0998
      13    H9      19.831826   18.955537   20.913841 H          1 MOL1         0.0998
      14    C4      19.643554   17.262127   22.261991 C.3        1 MOL1        -0.1302
      15    H10     20.729206   17.123294   22.353408 H          1 MOL1         0.0998
      16    H11     19.322924   16.592840   21.451380 H          1 MOL1         0.0998
      17    C5      18.949087   16.828807   23.573136 C.3        1 MOL1        -0.2317
      18    H12     17.861372   16.961436   23.506476 H          1 MOL1         0.1009
      19    H13     19.313539   17.405904   24.432321 H          1 MOL1         0.1009
      20    H14     19.145103   15.768705   23.779969 H          1 MOL1         0.1009
@<TRIPOS>BOND
    1     1     2    1
    2     1     3    1
    3     1     4    1
    4     1     5    1
    5     5     6    1
    6     5     7    1
    7     7     8    1
    8     7     9    1
    9     7    10    1
   10     5    11    1
   11    11    12    1
   12    11    13    1
   13    11    14    1
   14    14    15    1
   15    14    16    1
   16    14    17    1
   17    17    18    1
   18    17    19    1
   19    17    20    1
@<TRIPOS>SUBSTRUCTURE
       1 MOL1            1 RESIDUE      1      MOL     
@<SCITEGIC>MOL_PROPERTY
VConf Rank
SciTegic.value.IntegerValue
298

@<SCITEGIC>MOL_PROPERTY
Conf_Id
SciTegic.value.IntegerValue
64

@<SCITEGIC>MOL_PROPERTY
Delta U+W
SciTegic.value.DoubleValue
0.544

@<SCITEGIC>MOL_PROPERTY
U+W
SciTegic.value.DoubleValue
-35.732

@<SCITEGIC>MOL_PROPERTY
Grad RMS
SciTegic.value.DoubleValue
0.000000

@<SCITEGIC>MOL_PROPERTY
U
SciTegic.value.DoubleValue
22.800

@<SCITEGIC>MOL_PROPERTY
W
SciTegic.value.DoubleValue
-58.532

@<SCITEGIC>MOL_PROPERTY
W(PB)
SciTegic.value.DoubleValue
-60.437

@<SCITEGIC>MOL_PROPERTY
W(SA)
SciTegic.value.DoubleValue
1.905

@<SCITEGIC>MOL_PROPERTY
Valence
SciTegic.value.DoubleValue
2.662

@<SCITEGIC>MOL_PROPERTY
Coulomb
SciTegic.value.DoubleValue
19.485

@<SCITEGIC>MOL_PROPERTY
VdW
SciTegic.value.DoubleValue
0.653

@<SCITEGIC>MOL_PROPERTY
VdW6
SciTegic.value.DoubleValue
-5.460

@<SCITEGIC>MOL_PROPERTY
VdW12
SciTegic.value.DoubleValue
6.113

@<SCITEGIC>MOL_PROPERTY
Bond
SciTegic.value.DoubleValue
0.174

@<SCITEGIC>MOL_PROPERTY
Angle
SciTegic.value.DoubleValue
1.378

@<SCITEGIC>MOL_PROPERTY
Pdih
SciTegic.value.DoubleValue
1.109

@<SCITEGIC>MOL_PROPERTY
Idih
SciTegic.value.DoubleValue
0.000

@<SCITEGIC>MOL_PROPERTY
Tether
SciTegic.value.DoubleValue
0.000

@<TRIPOS>MOLECULE
guest-s10_confgen4.mol2 : confsearch ligand conformer 299
          20          19           1
SMALL
USER_CHARGES
 
@<TRIPOS>ATOM
       1    N1      19.312447   20.392298   24.137986 N.4        1 MOL1        -0.5937
       2    H1      19.639987   19.622030   24.725079 H          1 MOL1         0.3684
       3    H2      18.436984   20.734451   24.543090 H          1 MOL1         0.3684
       4    H3      19.997722   21.148866   24.213235 H          1 MOL1         0.3684
       5    C1      19.124430   19.955467   22.710169 C.3        1 MOL1         0.1270
       6    H4      18.765490   20.838356   22.171995 H          1 MOL1         0.0960
       7    C2      18.032132   18.878571   22.605747 C.3        1 MOL1        -0.2382
       8    H5      18.262636   18.010578   23.234369 H          1 MOL1         0.1009
       9    H6      17.915874   18.538779   21.569232 H          1 MOL1         0.1009
      10    H7      17.065891   19.280358   22.934252 H          1 MOL1         0.1009
      11    C3      20.457114   19.531096   22.043234 C.3        1 MOL1        -0.1392
      12    H8      20.297066   19.391661   20.965997 H          1 MOL1         0.0998
      13    H9      21.148956   20.379812   22.123961 H          1 MOL1         0.0998
      14    C4      21.154420   18.276472   22.638975 C.3        1 MOL1        -0.1302
      15    H10     20.945372   18.184799   23.712881 H          1 MOL1         0.0998
      16    H11     22.241849   18.413291   22.556740 H          1 MOL1         0.0998
      17    C5      20.788099   16.961622   21.911152 C.3        1 MOL1        -0.2317
      18    H12     19.719973   16.730624   21.986818 H          1 MOL1         0.1009
      19    H13     21.340051   16.117361   22.344208 H          1 MOL1         0.1009
      20    H14     21.048124   17.016453   20.846059 H          1 MOL1         0.1009
@<TRIPOS>BOND
    1     1     2    1
    2     1     3    1
    3     1     4    1
    4     1     5    1
    5     5     6    1
    6     5     7    1
    7     7     8    1
    8     7     9    1
    9     7    10    1
   10     5    11    1
   11    11    12    1
   12    11    13    1
   13    11    14    1
   14    14    15    1
   15    14    16    1
   16    14    17    1
   17    17    18    1
   18    17    19    1
   19    17    20    1
@<TRIPOS>SUBSTRUCTURE
       1 MOL1            1 RESIDUE      1      MOL     
@<SCITEGIC>MOL_PROPERTY
VConf Rank
SciTegic.value.IntegerValue
299

@<SCITEGIC>MOL_PROPERTY
Conf_Id
SciTegic.value.IntegerValue
35

@<SCITEGIC>MOL_PROPERTY
Delta U+W
SciTegic.value.DoubleValue
3.004

@<SCITEGIC>MOL_PROPERTY
U+W
SciTegic.value.DoubleValue
-33.272

@<SCITEGIC>MOL_PROPERTY
Grad RMS
SciTegic.value.DoubleValue
0.000000

@<SCITEGIC>MOL_PROPERTY
U
SciTegic.value.DoubleValue
25.367

@<SCITEGIC>MOL_PROPERTY
W
SciTegic.value.DoubleValue
-58.639

@<SCITEGIC>MOL_PROPERTY
W(PB)
SciTegic.value.DoubleValue
-60.512

@<SCITEGIC>MOL_PROPERTY
W(SA)
SciTegic.value.DoubleValue
1.873

@<SCITEGIC>MOL_PROPERTY
Valence
SciTegic.value.DoubleValue
4.943

@<SCITEGIC>MOL_PROPERTY
Coulomb
SciTegic.value.DoubleValue
19.661

@<SCITEGIC>MOL_PROPERTY
VdW
SciTegic.value.DoubleValue
0.764

@<SCITEGIC>MOL_PROPERTY
VdW6
SciTegic.value.DoubleValue
-5.871

@<SCITEGIC>MOL_PROPERTY
VdW12
SciTegic.value.DoubleValue
6.636

@<SCITEGIC>MOL_PROPERTY
Bond
SciTegic.value.DoubleValue
0.230

@<SCITEGIC>MOL_PROPERTY
Angle
SciTegic.value.DoubleValue
1.857

@<SCITEGIC>MOL_PROPERTY
Pdih
SciTegic.value.DoubleValue
2.855

@<SCITEGIC>MOL_PROPERTY
Idih
SciTegic.value.DoubleValue
0.000

@<SCITEGIC>MOL_PROPERTY
Tether
SciTegic.value.DoubleValue
0.000

@<TRIPOS>MOLECULE
guest-s10_confgen4.mol2 : confsearch ligand conformer 300
          20          19           1
SMALL
USER_CHARGES
 
@<TRIPOS>ATOM
       1    N1      20.091439   17.250146   23.070213 N.4        1 MOL1        -0.5937
       2    H1      19.964731   16.338586   22.622324 H          1 MOL1         0.3684
       3    H2      20.211513   17.082854   24.072798 H          1 MOL1         0.3684
       4    H3      20.964482   17.648995   22.719909 H          1 MOL1         0.3684
       5    C1      18.928083   18.164466   22.799871 C.3        1 MOL1         0.1270
       6    H4      18.057968   17.661136   23.232867 H          1 MOL1         0.0960
       7    C2      18.668123   18.311008   21.290083 C.3        1 MOL1        -0.2382
       8    H5      19.538636   18.725189   20.767631 H          1 MOL1         0.1009
       9    H6      17.810190   18.969207   21.105301 H          1 MOL1         0.1009
      10    H7      18.441319   17.335589   20.842774 H          1 MOL1         0.1009
      11    C3      19.054177   19.534902   23.513535 C.3        1 MOL1        -0.1392
      12    H8      18.057888   19.996212   23.525482 H          1 MOL1         0.0998
      13    H9      19.308179   19.364538   24.567896 H          1 MOL1         0.0998
      14    C4      20.047320   20.565807   22.907317 C.3        1 MOL1        -0.1302
      15    H10     19.981367   21.489107   23.499762 H          1 MOL1         0.0998
      16    H11     19.734353   20.844731   21.891992 H          1 MOL1         0.0998
      17    C5      21.522950   20.106366   22.888595 C.3        1 MOL1        -0.2317
      18    H12     21.838692   19.740199   23.874176 H          1 MOL1         0.1009
      19    H13     22.178411   20.945066   22.620035 H          1 MOL1         0.1009
      20    H14     21.690789   19.317439   22.146508 H          1 MOL1         0.1009
@<TRIPOS>BOND
    1     1     2    1
    2     1     3    1
    3     1     4    1
    4     1     5    1
    5     5     6    1
    6     5     7    1
    7     7     8    1
    8     7     9    1
    9     7    10    1
   10     5    11    1
   11    11    12    1
   12    11    13    1
   13    11    14    1
   14    14    15    1
   15    14    16    1
   16    14    17    1
   17    17    18    1
   18    17    19    1
   19    17    20    1
@<TRIPOS>SUBSTRUCTURE
       1 MOL1            1 RESIDUE      1      MOL     
@<SCITEGIC>MOL_PROPERTY
VConf Rank
SciTegic.value.IntegerValue
300

@<SCITEGIC>MOL_PROPERTY
Conf_Id
SciTegic.value.IntegerValue
55

@<SCITEGIC>MOL_PROPERTY
Delta U+W
SciTegic.value.DoubleValue
2.767

@<SCITEGIC>MOL_PROPERTY
U+W
SciTegic.value.DoubleValue
-33.509

@<SCITEGIC>MOL_PROPERTY
Grad RMS
SciTegic.value.DoubleValue
0.000000

@<SCITEGIC>MOL_PROPERTY
U
SciTegic.value.DoubleValue
24.552

@<SCITEGIC>MOL_PROPERTY
W
SciTegic.value.DoubleValue
-58.061

@<SCITEGIC>MOL_PROPERTY
W(PB)
SciTegic.value.DoubleValue
-59.930

@<SCITEGIC>MOL_PROPERTY
W(SA)
SciTegic.value.DoubleValue
1.869

@<SCITEGIC>MOL_PROPERTY
Valence
SciTegic.value.DoubleValue
3.726

@<SCITEGIC>MOL_PROPERTY
Coulomb
SciTegic.value.DoubleValue
20.219

@<SCITEGIC>MOL_PROPERTY
VdW
SciTegic.value.DoubleValue
0.606

@<SCITEGIC>MOL_PROPERTY
VdW6
SciTegic.value.DoubleValue
-6.395

@<SCITEGIC>MOL_PROPERTY
VdW12
SciTegic.value.DoubleValue
7.001

@<SCITEGIC>MOL_PROPERTY
Bond
SciTegic.value.DoubleValue
0.241

@<SCITEGIC>MOL_PROPERTY
Angle
SciTegic.value.DoubleValue
2.098

@<SCITEGIC>MOL_PROPERTY
Pdih
SciTegic.value.DoubleValue
1.387

@<SCITEGIC>MOL_PROPERTY
Idih
SciTegic.value.DoubleValue
0.000

@<SCITEGIC>MOL_PROPERTY
Tether
SciTegic.value.DoubleValue
0.000

@<TRIPOS>MOLECULE
guest-s10_confgen4.mol2 : confsearch ligand conformer 301
          20          19           1
SMALL
USER_CHARGES
 
@<TRIPOS>ATOM
       1    N1      18.808258   18.207063   21.153396 N.4        1 MOL1        -0.5937
       2    H1      19.034408   18.954253   20.492254 H          1 MOL1         0.3684
       3    H2      17.953361   17.753317   20.820346 H          1 MOL1         0.3684
       4    H3      19.559171   17.514112   21.103106 H          1 MOL1         0.3684
       5    C1      18.640610   18.739499   22.551061 C.3        1 MOL1         0.1270
       6    H4      18.406578   17.881426   23.188889 H          1 MOL1         0.0960
       7    C2      17.460866   19.723328   22.616283 C.3        1 MOL1        -0.2382
       8    H5      16.536410   19.244887   22.270248 H          1 MOL1         0.1009
       9    H6      17.644052   20.605617   21.990342 H          1 MOL1         0.1009
      10    H7      17.293260   20.063816   23.645659 H          1 MOL1         0.1009
      11    C3      19.925656   19.405658   23.090540 C.3        1 MOL1        -0.1392
      12    H8      20.196311   20.257625   22.452720 H          1 MOL1         0.0998
      13    H9      19.720104   19.815077   24.088634 H          1 MOL1         0.0998
      14    C4      21.119928   18.426157   23.189598 C.3        1 MOL1        -0.1302
      15    H10     21.382149   18.044928   22.193440 H          1 MOL1         0.0998
      16    H11     20.835942   17.556371   23.798751 H          1 MOL1         0.0998
      17    C5      22.361129   19.101809   23.811060 C.3        1 MOL1        -0.2317
      18    H12     22.688437   19.958305   23.207289 H          1 MOL1         0.1009
      19    H13     23.197984   18.393995   23.872366 H          1 MOL1         0.1009
      20    H14     22.149393   19.460685   24.826741 H          1 MOL1         0.1009
@<TRIPOS>BOND
    1     1     2    1
    2     1     3    1
    3     1     4    1
    4     1     5    1
    5     5     6    1
    6     5     7    1
    7     7     8    1
    8     7     9    1
    9     7    10    1
   10     5    11    1
   11    11    12    1
   12    11    13    1
   13    11    14    1
   14    14    15    1
   15    14    16    1
   16    14    17    1
   17    17    18    1
   18    17    19    1
   19    17    20    1
@<TRIPOS>SUBSTRUCTURE
       1 MOL1            1 RESIDUE      1      MOL     
@<SCITEGIC>MOL_PROPERTY
VConf Rank
SciTegic.value.IntegerValue
301

@<SCITEGIC>MOL_PROPERTY
Conf_Id
SciTegic.value.IntegerValue
74

@<SCITEGIC>MOL_PROPERTY
Delta U+W
SciTegic.value.DoubleValue
0.000

@<SCITEGIC>MOL_PROPERTY
U+W
SciTegic.value.DoubleValue
-36.276

@<SCITEGIC>MOL_PROPERTY
Grad RMS
SciTegic.value.DoubleValue
0.000000

@<SCITEGIC>MOL_PROPERTY
U
SciTegic.value.DoubleValue
22.080

@<SCITEGIC>MOL_PROPERTY
W
SciTegic.value.DoubleValue
-58.356

@<SCITEGIC>MOL_PROPERTY
W(PB)
SciTegic.value.DoubleValue
-60.289

@<SCITEGIC>MOL_PROPERTY
W(SA)
SciTegic.value.DoubleValue
1.932

@<SCITEGIC>MOL_PROPERTY
Valence
SciTegic.value.DoubleValue
1.885

@<SCITEGIC>MOL_PROPERTY
Coulomb
SciTegic.value.DoubleValue
19.559

@<SCITEGIC>MOL_PROPERTY
VdW
SciTegic.value.DoubleValue
0.637

@<SCITEGIC>MOL_PROPERTY
VdW6
SciTegic.value.DoubleValue
-4.482

@<SCITEGIC>MOL_PROPERTY
VdW12
SciTegic.value.DoubleValue
5.119

@<SCITEGIC>MOL_PROPERTY
Bond
SciTegic.value.DoubleValue
0.136

@<SCITEGIC>MOL_PROPERTY
Angle
SciTegic.value.DoubleValue
0.867

@<SCITEGIC>MOL_PROPERTY
Pdih
SciTegic.value.DoubleValue
0.882

@<SCITEGIC>MOL_PROPERTY
Idih
SciTegic.value.DoubleValue
0.000

@<SCITEGIC>MOL_PROPERTY
Tether
SciTegic.value.DoubleValue
0.000

@<TRIPOS>MOLECULE
guest-s10_confgen4.mol2 : confsearch ligand conformer 302
          20          19           1
SMALL
USER_CHARGES
 
@<TRIPOS>ATOM
       1    N1      17.842695   19.551404   21.402020 N.4        1 MOL1        -0.5937
       2    H1      17.832413   18.813724   20.692386 H          1 MOL1         0.3684
       3    H2      18.236880   20.389373   20.967105 H          1 MOL1         0.3684
       4    H3      16.868086   19.759666   21.635354 H          1 MOL1         0.3684
       5    C1      18.624775   19.140505   22.619387 C.3        1 MOL1         0.1270
       6    H4      18.132393   18.246520   23.014628 H          1 MOL1         0.0960
       7    C2      18.562457   20.243905   23.691499 C.3        1 MOL1        -0.2382
       8    H5      17.522166   20.524638   23.896940 H          1 MOL1         0.1009
       9    H6      19.099487   21.143837   23.366999 H          1 MOL1         0.1009
      10    H7      18.998704   19.905753   24.638370 H          1 MOL1         0.1009
      11    C3      20.079522   18.767879   22.250132 C.3        1 MOL1        -0.1392
      12    H8      20.054532   18.060888   21.410368 H          1 MOL1         0.0998
      13    H9      20.609499   19.659519   21.889645 H          1 MOL1         0.0998
      14    C4      20.874071   18.122809   23.411914 C.3        1 MOL1        -0.1302
      15    H10     20.313251   17.267605   23.814627 H          1 MOL1         0.0998
      16    H11     20.996059   18.839830   24.234653 H          1 MOL1         0.0998
      17    C5      22.269984   17.648757   22.953237 C.3        1 MOL1        -0.2317
      18    H12     22.190951   16.895918   22.158111 H          1 MOL1         0.1009
      19    H13     22.820364   17.197888   23.789231 H          1 MOL1         0.1009
      20    H14     22.866170   18.487823   22.571413 H          1 MOL1         0.1009
@<TRIPOS>BOND
    1     1     2    1
    2     1     3    1
    3     1     4    1
    4     1     5    1
    5     5     6    1
    6     5     7    1
    7     7     8    1
    8     7     9    1
    9     7    10    1
   10     5    11    1
   11    11    12    1
   12    11    13    1
   13    11    14    1
   14    14    15    1
   15    14    16    1
   16    14    17    1
   17    17    18    1
   18    17    19    1
   19    17    20    1
@<TRIPOS>SUBSTRUCTURE
       1 MOL1            1 RESIDUE      1      MOL     
@<SCITEGIC>MOL_PROPERTY
VConf Rank
SciTegic.value.IntegerValue
302

@<SCITEGIC>MOL_PROPERTY
Conf_Id
SciTegic.value.IntegerValue
80

@<SCITEGIC>MOL_PROPERTY
Delta U+W
SciTegic.value.DoubleValue
0.460

@<SCITEGIC>MOL_PROPERTY
U+W
SciTegic.value.DoubleValue
-35.817

@<SCITEGIC>MOL_PROPERTY
Grad RMS
SciTegic.value.DoubleValue
0.000000

@<SCITEGIC>MOL_PROPERTY
U
SciTegic.value.DoubleValue
22.495

@<SCITEGIC>MOL_PROPERTY
W
SciTegic.value.DoubleValue
-58.311

@<SCITEGIC>MOL_PROPERTY
W(PB)
SciTegic.value.DoubleValue
-60.259

@<SCITEGIC>MOL_PROPERTY
W(SA)
SciTegic.value.DoubleValue
1.948

@<SCITEGIC>MOL_PROPERTY
Valence
SciTegic.value.DoubleValue
2.419

@<SCITEGIC>MOL_PROPERTY
Coulomb
SciTegic.value.DoubleValue
19.304

@<SCITEGIC>MOL_PROPERTY
VdW
SciTegic.value.DoubleValue
0.772

@<SCITEGIC>MOL_PROPERTY
VdW6
SciTegic.value.DoubleValue
-4.635

@<SCITEGIC>MOL_PROPERTY
VdW12
SciTegic.value.DoubleValue
5.407

@<SCITEGIC>MOL_PROPERTY
Bond
SciTegic.value.DoubleValue
0.149

@<SCITEGIC>MOL_PROPERTY
Angle
SciTegic.value.DoubleValue
1.142

@<SCITEGIC>MOL_PROPERTY
Pdih
SciTegic.value.DoubleValue
1.129

@<SCITEGIC>MOL_PROPERTY
Idih
SciTegic.value.DoubleValue
0.000

@<SCITEGIC>MOL_PROPERTY
Tether
SciTegic.value.DoubleValue
0.000

@<TRIPOS>MOLECULE
guest-s10_confgen4.mol2 : confsearch ligand conformer 303
          20          19           1
SMALL
USER_CHARGES
 
@<TRIPOS>ATOM
       1    N1      21.507454   20.486842   22.370013 N.4        1 MOL1        -0.5937
       2    H1      21.456940   21.249216   23.051221 H          1 MOL1         0.3684
       3    H2      21.126635   20.838301   21.487889 H          1 MOL1         0.3684
       4    H3      22.498908   20.285680   22.214553 H          1 MOL1         0.3684
       5    C1      20.765864   19.267167   22.844549 C.3        1 MOL1         0.1270
       6    H4      21.243699   18.963402   23.781139 H          1 MOL1         0.0960
       7    C2      20.925533   18.119791   21.832477 C.3        1 MOL1        -0.2382
       8    H5      21.982114   17.972200   21.577532 H          1 MOL1         0.1009
       9    H6      20.376906   18.327247   20.905426 H          1 MOL1         0.1009
      10    H7      20.561005   17.174418   22.250085 H          1 MOL1         0.1009
      11    C3      19.284459   19.600404   23.147418 C.3        1 MOL1        -0.1392
      12    H8      19.273679   20.448447   23.844841 H          1 MOL1         0.0998
      13    H9      18.781906   19.955717   22.238066 H          1 MOL1         0.0998
      14    C4      18.472080   18.447296   23.793968 C.3        1 MOL1        -0.1302
      15    H10     17.776286   18.877709   24.527953 H          1 MOL1         0.0998
      16    H11     19.137554   17.783631   24.363757 H          1 MOL1         0.0998
      17    C5      17.642554   17.632228   22.773878 C.3        1 MOL1        -0.2317
      18    H12     16.921020   18.274884   22.252822 H          1 MOL1         0.1009
      19    H13     17.075850   16.842281   23.283596 H          1 MOL1         0.1009
      20    H14     18.273390   17.152199   22.017464 H          1 MOL1         0.1009
@<TRIPOS>BOND
    1     1     2    1
    2     1     3    1
    3     1     4    1
    4     1     5    1
    5     5     6    1
    6     5     7    1
    7     7     8    1
    8     7     9    1
    9     7    10    1
   10     5    11    1
   11    11    12    1
   12    11    13    1
   13    11    14    1
   14    14    15    1
   15    14    16    1
   16    14    17    1
   17    17    18    1
   18    17    19    1
   19    17    20    1
@<TRIPOS>SUBSTRUCTURE
       1 MOL1            1 RESIDUE      1      MOL     
@<SCITEGIC>MOL_PROPERTY
VConf Rank
SciTegic.value.IntegerValue
303

@<SCITEGIC>MOL_PROPERTY
Conf_Id
SciTegic.value.IntegerValue
52

@<SCITEGIC>MOL_PROPERTY
Delta U+W
SciTegic.value.DoubleValue
2.995

@<SCITEGIC>MOL_PROPERTY
U+W
SciTegic.value.DoubleValue
-33.282

@<SCITEGIC>MOL_PROPERTY
Grad RMS
SciTegic.value.DoubleValue
0.000000

@<SCITEGIC>MOL_PROPERTY
U
SciTegic.value.DoubleValue
25.224

@<SCITEGIC>MOL_PROPERTY
W
SciTegic.value.DoubleValue
-58.506

@<SCITEGIC>MOL_PROPERTY
W(PB)
SciTegic.value.DoubleValue
-60.411

@<SCITEGIC>MOL_PROPERTY
W(SA)
SciTegic.value.DoubleValue
1.905

@<SCITEGIC>MOL_PROPERTY
Valence
SciTegic.value.DoubleValue
4.945

@<SCITEGIC>MOL_PROPERTY
Coulomb
SciTegic.value.DoubleValue
19.467

@<SCITEGIC>MOL_PROPERTY
VdW
SciTegic.value.DoubleValue
0.813

@<SCITEGIC>MOL_PROPERTY
VdW6
SciTegic.value.DoubleValue
-5.458

@<SCITEGIC>MOL_PROPERTY
VdW12
SciTegic.value.DoubleValue
6.270

@<SCITEGIC>MOL_PROPERTY
Bond
SciTegic.value.DoubleValue
0.200

@<SCITEGIC>MOL_PROPERTY
Angle
SciTegic.value.DoubleValue
1.675

@<SCITEGIC>MOL_PROPERTY
Pdih
SciTegic.value.DoubleValue
3.070

@<SCITEGIC>MOL_PROPERTY
Idih
SciTegic.value.DoubleValue
0.000

@<SCITEGIC>MOL_PROPERTY
Tether
SciTegic.value.DoubleValue
0.000

@<TRIPOS>MOLECULE
guest-s10_confgen4.mol2 : confsearch ligand conformer 304
          20          19           1
SMALL
USER_CHARGES
 
@<TRIPOS>ATOM
       1    N1      21.075793   19.882255   23.101018 N.4        1 MOL1        -0.5937
       2    H1      20.993059   20.082449   24.100745 H          1 MOL1         0.3684
       3    H2      21.714894   20.575075   22.702020 H          1 MOL1         0.3684
       4    H3      21.517374   18.964982   23.008275 H          1 MOL1         0.3684
       5    C1      19.733447   19.913309   22.422495 C.3        1 MOL1         0.1270
       6    H4      19.907381   19.739905   21.356000 H          1 MOL1         0.0960
       7    C2      19.098492   21.304649   22.586099 C.3        1 MOL1        -0.2382
       8    H5      18.887831   21.523539   23.640408 H          1 MOL1         0.1009
       9    H6      18.156439   21.372813   22.027945 H          1 MOL1         0.1009
      10    H7      19.767170   22.084777   22.201906 H          1 MOL1         0.1009
      11    C3      18.772903   18.817450   22.942765 C.3        1 MOL1        -0.1392
      12    H8      18.778097   18.805424   24.040673 H          1 MOL1         0.0998
      13    H9      17.748040   19.083084   22.650911 H          1 MOL1         0.0998
      14    C4      19.050538   17.394189   22.391535 C.3        1 MOL1        -0.1302
      15    H10     18.996795   17.405318   21.293800 H          1 MOL1         0.0998
      16    H11     18.239155   16.733063   22.727090 H          1 MOL1         0.0998
      17    C5      20.396124   16.776755   22.835810 C.3        1 MOL1        -0.2317
      18    H12     20.427090   15.710170   22.577502 H          1 MOL1         0.1009
      19    H13     20.534529   16.859337   23.921785 H          1 MOL1         0.1009
      20    H14     21.245242   17.251728   22.330994 H          1 MOL1         0.1009
@<TRIPOS>BOND
    1     1     2    1
    2     1     3    1
    3     1     4    1
    4     1     5    1
    5     5     6    1
    6     5     7    1
    7     7     8    1
    8     7     9    1
    9     7    10    1
   10     5    11    1
   11    11    12    1
   12    11    13    1
   13    11    14    1
   14    14    15    1
   15    14    16    1
   16    14    17    1
   17    17    18    1
   18    17    19    1
   19    17    20    1
@<TRIPOS>SUBSTRUCTURE
       1 MOL1            1 RESIDUE      1      MOL     
@<SCITEGIC>MOL_PROPERTY
VConf Rank
SciTegic.value.IntegerValue
304

@<SCITEGIC>MOL_PROPERTY
Conf_Id
SciTegic.value.IntegerValue
54

@<SCITEGIC>MOL_PROPERTY
Delta U+W
SciTegic.value.DoubleValue
2.752

@<SCITEGIC>MOL_PROPERTY
U+W
SciTegic.value.DoubleValue
-33.525

@<SCITEGIC>MOL_PROPERTY
Grad RMS
SciTegic.value.DoubleValue
0.000000

@<SCITEGIC>MOL_PROPERTY
U
SciTegic.value.DoubleValue
24.337

@<SCITEGIC>MOL_PROPERTY
W
SciTegic.value.DoubleValue
-57.862

@<SCITEGIC>MOL_PROPERTY
W(PB)
SciTegic.value.DoubleValue
-59.764

@<SCITEGIC>MOL_PROPERTY
W(SA)
SciTegic.value.DoubleValue
1.901

@<SCITEGIC>MOL_PROPERTY
Valence
SciTegic.value.DoubleValue
3.593

@<SCITEGIC>MOL_PROPERTY
Coulomb
SciTegic.value.DoubleValue
20.067

@<SCITEGIC>MOL_PROPERTY
VdW
SciTegic.value.DoubleValue
0.677

@<SCITEGIC>MOL_PROPERTY
VdW6
SciTegic.value.DoubleValue
-5.466

@<SCITEGIC>MOL_PROPERTY
VdW12
SciTegic.value.DoubleValue
6.144

@<SCITEGIC>MOL_PROPERTY
Bond
SciTegic.value.DoubleValue
0.191

@<SCITEGIC>MOL_PROPERTY
Angle
SciTegic.value.DoubleValue
1.557

@<SCITEGIC>MOL_PROPERTY
Pdih
SciTegic.value.DoubleValue
1.845

@<SCITEGIC>MOL_PROPERTY
Idih
SciTegic.value.DoubleValue
0.000

@<SCITEGIC>MOL_PROPERTY
Tether
SciTegic.value.DoubleValue
0.000

@<TRIPOS>MOLECULE
guest-s10_confgen4.mol2 : confsearch ligand conformer 305
          20          19           1
SMALL
USER_CHARGES
 
@<TRIPOS>ATOM
       1    N1      21.766597   18.716281   22.283196 N.4        1 MOL1        -0.5937
       2    H1      22.448368   18.142791   21.779258 H          1 MOL1         0.3684
       3    H2      22.236902   19.088510   23.112636 H          1 MOL1         0.3684
       4    H3      21.530629   19.508930   21.681968 H          1 MOL1         0.3684
       5    C1      20.543121   17.921452   22.650945 C.3        1 MOL1         0.1270
       6    H4      20.895985   17.093766   23.274199 H          1 MOL1         0.0960
       7    C2      19.883307   17.312024   21.401110 C.3        1 MOL1        -0.2382
       8    H5      18.990893   16.734932   21.673203 H          1 MOL1         0.1009
       9    H6      20.577608   16.630379   20.894758 H          1 MOL1         0.1009
      10    H7      19.587437   18.083762   20.680748 H          1 MOL1         0.1009
      11    C3      19.538852   18.737684   23.499628 C.3        1 MOL1        -0.1392
      12    H8      18.718240   18.076446   23.808004 H          1 MOL1         0.0998
      13    H9      20.039466   19.048166   24.426123 H          1 MOL1         0.0998
      14    C4      18.951355   19.988056   22.795525 C.3        1 MOL1        -0.1302
      15    H10     18.401363   19.692328   21.892161 H          1 MOL1         0.0998
      16    H11     19.760513   20.656393   22.471876 H          1 MOL1         0.0998
      17    C5      17.998172   20.767093   23.727123 C.3        1 MOL1        -0.2317
      18    H12     17.588842   21.647417   23.214731 H          1 MOL1         0.1009
      19    H13     18.521736   21.115182   24.627087 H          1 MOL1         0.1009
      20    H14     17.154690   20.139711   24.043592 H          1 MOL1         0.1009
@<TRIPOS>BOND
    1     1     2    1
    2     1     3    1
    3     1     4    1
    4     1     5    1
    5     5     6    1
    6     5     7    1
    7     7     8    1
    8     7     9    1
    9     7    10    1
   10     5    11    1
   11    11    12    1
   12    11    13    1
   13    11    14    1
   14    14    15    1
   15    14    16    1
   16    14    17    1
   17    17    18    1
   18    17    19    1
   19    17    20    1
@<TRIPOS>SUBSTRUCTURE
       1 MOL1            1 RESIDUE      1      MOL     
@<SCITEGIC>MOL_PROPERTY
VConf Rank
SciTegic.value.IntegerValue
305

@<SCITEGIC>MOL_PROPERTY
Conf_Id
SciTegic.value.IntegerValue
63

@<SCITEGIC>MOL_PROPERTY
Delta U+W
SciTegic.value.DoubleValue
0.420

@<SCITEGIC>MOL_PROPERTY
U+W
SciTegic.value.DoubleValue
-35.856

@<SCITEGIC>MOL_PROPERTY
Grad RMS
SciTegic.value.DoubleValue
0.000000

@<SCITEGIC>MOL_PROPERTY
U
SciTegic.value.DoubleValue
22.625

@<SCITEGIC>MOL_PROPERTY
W
SciTegic.value.DoubleValue
-58.481

@<SCITEGIC>MOL_PROPERTY
W(PB)
SciTegic.value.DoubleValue
-60.400

@<SCITEGIC>MOL_PROPERTY
W(SA)
SciTegic.value.DoubleValue
1.919

@<SCITEGIC>MOL_PROPERTY
Valence
SciTegic.value.DoubleValue
2.404

@<SCITEGIC>MOL_PROPERTY
Coulomb
SciTegic.value.DoubleValue
19.464

@<SCITEGIC>MOL_PROPERTY
VdW
SciTegic.value.DoubleValue
0.757

@<SCITEGIC>MOL_PROPERTY
VdW6
SciTegic.value.DoubleValue
-5.074

@<SCITEGIC>MOL_PROPERTY
VdW12
SciTegic.value.DoubleValue
5.830

@<SCITEGIC>MOL_PROPERTY
Bond
SciTegic.value.DoubleValue
0.172

@<SCITEGIC>MOL_PROPERTY
Angle
SciTegic.value.DoubleValue
1.207

@<SCITEGIC>MOL_PROPERTY
Pdih
SciTegic.value.DoubleValue
1.025

@<SCITEGIC>MOL_PROPERTY
Idih
SciTegic.value.DoubleValue
0.000

@<SCITEGIC>MOL_PROPERTY
Tether
SciTegic.value.DoubleValue
0.000

@<TRIPOS>MOLECULE
guest-s10_confgen4.mol2 : confsearch ligand conformer 306
          20          19           1
SMALL
USER_CHARGES
 
@<TRIPOS>ATOM
       1    N1      19.439557   20.726554   22.598785 N.4        1 MOL1        -0.5937
       2    H1      20.406097   20.799362   22.926465 H          1 MOL1         0.3684
       3    H2      18.833753   21.072417   23.346983 H          1 MOL1         0.3684
       4    H3      19.337525   21.362932   21.803703 H          1 MOL1         0.3684
       5    C1      19.095492   19.311304   22.220812 C.3        1 MOL1         0.1270
       6    H4      19.782849   19.023572   21.419637 H          1 MOL1         0.0960
       7    C2      17.661393   19.228837   21.673026 C.3        1 MOL1        -0.2382
       8    H5      17.535152   19.897672   20.812816 H          1 MOL1         0.1009
       9    H6      16.926933   19.512556   22.437111 H          1 MOL1         0.1009
      10    H7      17.429981   18.209933   21.338503 H          1 MOL1         0.1009
      11    C3      19.280325   18.324151   23.395694 C.3        1 MOL1        -0.1392
      12    H8      18.586095   18.586900   24.204916 H          1 MOL1         0.0998
      13    H9      18.996638   17.316577   23.063662 H          1 MOL1         0.0998
      14    C4      20.722239   18.273126   23.961538 C.3        1 MOL1        -0.1302
      15    H10     20.750540   17.551289   24.789822 H          1 MOL1         0.0998
      16    H11     20.993744   19.243782   24.398203 H          1 MOL1         0.0998
      17    C5      21.773677   17.864103   22.904869 C.3        1 MOL1        -0.2317
      18    H12     21.523226   16.895142   22.453683 H          1 MOL1         0.1009
      19    H13     22.765899   17.771988   23.365388 H          1 MOL1         0.1009
      20    H14     21.850240   18.606936   22.100982 H          1 MOL1         0.1009
@<TRIPOS>BOND
    1     1     2    1
    2     1     3    1
    3     1     4    1
    4     1     5    1
    5     5     6    1
    6     5     7    1
    7     7     8    1
    8     7     9    1
    9     7    10    1
   10     5    11    1
   11    11    12    1
   12    11    13    1
   13    11    14    1
   14    14    15    1
   15    14    16    1
   16    14    17    1
   17    17    18    1
   18    17    19    1
   19    17    20    1
@<TRIPOS>SUBSTRUCTURE
       1 MOL1            1 RESIDUE      1      MOL     
@<SCITEGIC>MOL_PROPERTY
VConf Rank
SciTegic.value.IntegerValue
306

@<SCITEGIC>MOL_PROPERTY
Conf_Id
SciTegic.value.IntegerValue
50

@<SCITEGIC>MOL_PROPERTY
Delta U+W
SciTegic.value.DoubleValue
0.466

@<SCITEGIC>MOL_PROPERTY
U+W
SciTegic.value.DoubleValue
-35.811

@<SCITEGIC>MOL_PROPERTY
Grad RMS
SciTegic.value.DoubleValue
0.000000

@<SCITEGIC>MOL_PROPERTY
U
SciTegic.value.DoubleValue
22.369

@<SCITEGIC>MOL_PROPERTY
W
SciTegic.value.DoubleValue
-58.180

@<SCITEGIC>MOL_PROPERTY
W(PB)
SciTegic.value.DoubleValue
-60.103

@<SCITEGIC>MOL_PROPERTY
W(SA)
SciTegic.value.DoubleValue
1.923

@<SCITEGIC>MOL_PROPERTY
Valence
SciTegic.value.DoubleValue
2.168

@<SCITEGIC>MOL_PROPERTY
Coulomb
SciTegic.value.DoubleValue
19.636

@<SCITEGIC>MOL_PROPERTY
VdW
SciTegic.value.DoubleValue
0.566

@<SCITEGIC>MOL_PROPERTY
VdW6
SciTegic.value.DoubleValue
-5.263

@<SCITEGIC>MOL_PROPERTY
VdW12
SciTegic.value.DoubleValue
5.829

@<SCITEGIC>MOL_PROPERTY
Bond
SciTegic.value.DoubleValue
0.162

@<SCITEGIC>MOL_PROPERTY
Angle
SciTegic.value.DoubleValue
1.066

@<SCITEGIC>MOL_PROPERTY
Pdih
SciTegic.value.DoubleValue
0.939

@<SCITEGIC>MOL_PROPERTY
Idih
SciTegic.value.DoubleValue
0.000

@<SCITEGIC>MOL_PROPERTY
Tether
SciTegic.value.DoubleValue
0.000

@<TRIPOS>MOLECULE
guest-s10_confgen4.mol2 : confsearch ligand conformer 307
          20          19           1
SMALL
USER_CHARGES
 
@<TRIPOS>ATOM
       1    N1      18.655037   16.998366   23.573546 N.4        1 MOL1        -0.5937
       2    H1      19.305820   16.236231   23.364670 H          1 MOL1         0.3684
       3    H2      17.818799   16.853576   23.002046 H          1 MOL1         0.3684
       4    H3      18.375420   16.897042   24.552976 H          1 MOL1         0.3684
       5    C1      19.275451   18.344667   23.314429 C.3        1 MOL1         0.1270
       6    H4      20.155498   18.404350   23.962285 H          1 MOL1         0.0960
       7    C2      18.293295   19.462551   23.711501 C.3        1 MOL1        -0.2382
       8    H5      17.373152   19.410022   23.116317 H          1 MOL1         0.1009
       9    H6      18.732195   20.455357   23.564899 H          1 MOL1         0.1009
      10    H7      18.017459   19.376461   24.769627 H          1 MOL1         0.1009
      11    C3      19.746924   18.491147   21.846611 C.3        1 MOL1        -0.1392
      12    H8      19.810337   17.495302   21.388416 H          1 MOL1         0.0998
      13    H9      19.000874   19.040542   21.257047 H          1 MOL1         0.0998
      14    C4      21.138712   19.156452   21.698019 C.3        1 MOL1        -0.1302
      15    H10     21.420976   19.145852   20.635876 H          1 MOL1         0.0998
      16    H11     21.892947   18.550866   22.220011 H          1 MOL1         0.0998
      17    C5      21.202543   20.610919   22.214436 C.3        1 MOL1        -0.2317
      18    H12     20.431375   21.233376   21.742338 H          1 MOL1         0.1009
      19    H13     22.179045   21.056707   21.984746 H          1 MOL1         0.1009
      20    H14     21.069823   20.656258   23.302535 H          1 MOL1         0.1009
@<TRIPOS>BOND
    1     1     2    1
    2     1     3    1
    3     1     4    1
    4     1     5    1
    5     5     6    1
    6     5     7    1
    7     7     8    1
    8     7     9    1
    9     7    10    1
   10     5    11    1
   11    11    12    1
   12    11    13    1
   13    11    14    1
   14    14    15    1
   15    14    16    1
   16    14    17    1
   17    17    18    1
   18    17    19    1
   19    17    20    1
@<TRIPOS>SUBSTRUCTURE
       1 MOL1            1 RESIDUE      1      MOL     
@<SCITEGIC>MOL_PROPERTY
VConf Rank
SciTegic.value.IntegerValue
307

@<SCITEGIC>MOL_PROPERTY
Conf_Id
SciTegic.value.IntegerValue
3

@<SCITEGIC>MOL_PROPERTY
Delta U+W
SciTegic.value.DoubleValue
3.093

@<SCITEGIC>MOL_PROPERTY
U+W
SciTegic.value.DoubleValue
-33.184

@<SCITEGIC>MOL_PROPERTY
Grad RMS
SciTegic.value.DoubleValue
0.000000

@<SCITEGIC>MOL_PROPERTY
U
SciTegic.value.DoubleValue
25.256

@<SCITEGIC>MOL_PROPERTY
W
SciTegic.value.DoubleValue
-58.439

@<SCITEGIC>MOL_PROPERTY
W(PB)
SciTegic.value.DoubleValue
-60.337

@<SCITEGIC>MOL_PROPERTY
W(SA)
SciTegic.value.DoubleValue
1.898

@<SCITEGIC>MOL_PROPERTY
Valence
SciTegic.value.DoubleValue
4.963

@<SCITEGIC>MOL_PROPERTY
Coulomb
SciTegic.value.DoubleValue
19.511

@<SCITEGIC>MOL_PROPERTY
VdW
SciTegic.value.DoubleValue
0.782

@<SCITEGIC>MOL_PROPERTY
VdW6
SciTegic.value.DoubleValue
-5.429

@<SCITEGIC>MOL_PROPERTY
VdW12
SciTegic.value.DoubleValue
6.211

@<SCITEGIC>MOL_PROPERTY
Bond
SciTegic.value.DoubleValue
0.174

@<SCITEGIC>MOL_PROPERTY
Angle
SciTegic.value.DoubleValue
1.377

@<SCITEGIC>MOL_PROPERTY
Pdih
SciTegic.value.DoubleValue
3.412

@<SCITEGIC>MOL_PROPERTY
Idih
SciTegic.value.DoubleValue
0.000

@<SCITEGIC>MOL_PROPERTY
Tether
SciTegic.value.DoubleValue
0.000

@<TRIPOS>MOLECULE
guest-s10_confgen4.mol2 : confsearch ligand conformer 308
          20          19           1
SMALL
USER_CHARGES
 
@<TRIPOS>ATOM
       1    N1      21.631859   20.061641   22.421913 N.4        1 MOL1        -0.5937
       2    H1      21.878607   20.493476   21.527335 H          1 MOL1         0.3684
       3    H2      22.347389   19.358595   22.625811 H          1 MOL1         0.3684
       4    H3      21.702373   20.787498   23.139439 H          1 MOL1         0.3684
       5    C1      20.255146   19.457203   22.380743 C.3        1 MOL1         0.1270
       6    H4      20.275342   18.702331   21.589000 H          1 MOL1         0.0960
       7    C2      19.212041   20.525989   22.006939 C.3        1 MOL1        -0.2382
       8    H5      18.226648   20.077316   21.835974 H          1 MOL1         0.1009
       9    H6      19.499425   21.039848   21.081470 H          1 MOL1         0.1009
      10    H7      19.114309   21.279430   22.798307 H          1 MOL1         0.1009
      11    C3      19.912705   18.752757   23.715254 C.3        1 MOL1        -0.1392
      12    H8      20.729081   18.063526   23.968267 H          1 MOL1         0.0998
      13    H9      19.882088   19.497305   24.521757 H          1 MOL1         0.0998
      14    C4      18.583915   17.954374   23.712618 C.3        1 MOL1        -0.1302
      15    H10     17.729998   18.634942   23.594611 H          1 MOL1         0.0998
      16    H11     18.456130   17.480741   24.696072 H          1 MOL1         0.0998
      17    C5      18.535901   16.861478   22.620636 C.3        1 MOL1        -0.2317
      18    H12     19.382790   16.169600   22.716772 H          1 MOL1         0.1009
      19    H13     18.560171   17.296357   21.613484 H          1 MOL1         0.1009
      20    H14     17.612391   16.274058   22.704801 H          1 MOL1         0.1009
@<TRIPOS>BOND
    1     1     2    1
    2     1     3    1
    3     1     4    1
    4     1     5    1
    5     5     6    1
    6     5     7    1
    7     7     8    1
    8     7     9    1
    9     7    10    1
   10     5    11    1
   11    11    12    1
   12    11    13    1
   13    11    14    1
   14    14    15    1
   15    14    16    1
   16    14    17    1
   17    17    18    1
   18    17    19    1
   19    17    20    1
@<TRIPOS>SUBSTRUCTURE
       1 MOL1            1 RESIDUE      1      MOL     
@<SCITEGIC>MOL_PROPERTY
VConf Rank
SciTegic.value.IntegerValue
308

@<SCITEGIC>MOL_PROPERTY
Conf_Id
SciTegic.value.IntegerValue
64

@<SCITEGIC>MOL_PROPERTY
Delta U+W
SciTegic.value.DoubleValue
0.544

@<SCITEGIC>MOL_PROPERTY
U+W
SciTegic.value.DoubleValue
-35.732

@<SCITEGIC>MOL_PROPERTY
Grad RMS
SciTegic.value.DoubleValue
0.000000

@<SCITEGIC>MOL_PROPERTY
U
SciTegic.value.DoubleValue
22.800

@<SCITEGIC>MOL_PROPERTY
W
SciTegic.value.DoubleValue
-58.532

@<SCITEGIC>MOL_PROPERTY
W(PB)
SciTegic.value.DoubleValue
-60.437

@<SCITEGIC>MOL_PROPERTY
W(SA)
SciTegic.value.DoubleValue
1.905

@<SCITEGIC>MOL_PROPERTY
Valence
SciTegic.value.DoubleValue
2.662

@<SCITEGIC>MOL_PROPERTY
Coulomb
SciTegic.value.DoubleValue
19.485

@<SCITEGIC>MOL_PROPERTY
VdW
SciTegic.value.DoubleValue
0.653

@<SCITEGIC>MOL_PROPERTY
VdW6
SciTegic.value.DoubleValue
-5.460

@<SCITEGIC>MOL_PROPERTY
VdW12
SciTegic.value.DoubleValue
6.113

@<SCITEGIC>MOL_PROPERTY
Bond
SciTegic.value.DoubleValue
0.174

@<SCITEGIC>MOL_PROPERTY
Angle
SciTegic.value.DoubleValue
1.378

@<SCITEGIC>MOL_PROPERTY
Pdih
SciTegic.value.DoubleValue
1.109

@<SCITEGIC>MOL_PROPERTY
Idih
SciTegic.value.DoubleValue
0.000

@<SCITEGIC>MOL_PROPERTY
Tether
SciTegic.value.DoubleValue
0.000

@<TRIPOS>MOLECULE
guest-s10_confgen4.mol2 : confsearch ligand conformer 309
          20          19           1
SMALL
USER_CHARGES
 
@<TRIPOS>ATOM
       1    N1      18.011888   19.424136   21.666927 N.4        1 MOL1        -0.5937
       2    H1      18.186753   20.272104   22.210660 H          1 MOL1         0.3684
       3    H2      17.025284   19.180684   21.789225 H          1 MOL1         0.3684
       4    H3      18.146393   19.658925   20.679788 H          1 MOL1         0.3684
       5    C1      18.913793   18.298488   22.096246 C.3        1 MOL1         0.1270
       6    H4      18.643508   17.442896   21.469452 H          1 MOL1         0.0960
       7    C2      18.639517   17.902802   23.556359 C.3        1 MOL1        -0.2382
       8    H5      18.760167   18.756642   24.233197 H          1 MOL1         0.1009
       9    H6      19.317184   17.102601   23.878514 H          1 MOL1         0.1009
      10    H7      17.612718   17.533266   23.666344 H          1 MOL1         0.1009
      11    C3      20.408221   18.603758   21.823414 C.3        1 MOL1        -0.1392
      12    H8      21.001598   17.694769   21.988154 H          1 MOL1         0.0998
      13    H9      20.507907   18.822341   20.752076 H          1 MOL1         0.0998
      14    C4      21.024379   19.786833   22.620851 C.3        1 MOL1        -0.1302
      15    H10     20.267058   20.552786   22.833360 H          1 MOL1         0.0998
      16    H11     21.775922   20.277455   21.986457 H          1 MOL1         0.0998
      17    C5      21.723775   19.351967   23.930234 C.3        1 MOL1        -0.2317
      18    H12     21.026476   18.891297   24.638424 H          1 MOL1         0.1009
      19    H13     22.176459   20.218751   24.428961 H          1 MOL1         0.1009
      20    H14     22.525617   18.630442   23.726535 H          1 MOL1         0.1009
@<TRIPOS>BOND
    1     1     2    1
    2     1     3    1
    3     1     4    1
    4     1     5    1
    5     5     6    1
    6     5     7    1
    7     7     8    1
    8     7     9    1
    9     7    10    1
   10     5    11    1
   11    11    12    1
   12    11    13    1
   13    11    14    1
   14    14    15    1
   15    14    16    1
   16    14    17    1
   17    17    18    1
   18    17    19    1
   19    17    20    1
@<TRIPOS>SUBSTRUCTURE
       1 MOL1            1 RESIDUE      1      MOL     
@<SCITEGIC>MOL_PROPERTY
VConf Rank
SciTegic.value.IntegerValue
309

@<SCITEGIC>MOL_PROPERTY
Conf_Id
SciTegic.value.IntegerValue
35

@<SCITEGIC>MOL_PROPERTY
Delta U+W
SciTegic.value.DoubleValue
3.004

@<SCITEGIC>MOL_PROPERTY
U+W
SciTegic.value.DoubleValue
-33.272

@<SCITEGIC>MOL_PROPERTY
Grad RMS
SciTegic.value.DoubleValue
0.000000

@<SCITEGIC>MOL_PROPERTY
U
SciTegic.value.DoubleValue
25.367

@<SCITEGIC>MOL_PROPERTY
W
SciTegic.value.DoubleValue
-58.639

@<SCITEGIC>MOL_PROPERTY
W(PB)
SciTegic.value.DoubleValue
-60.512

@<SCITEGIC>MOL_PROPERTY
W(SA)
SciTegic.value.DoubleValue
1.873

@<SCITEGIC>MOL_PROPERTY
Valence
SciTegic.value.DoubleValue
4.943

@<SCITEGIC>MOL_PROPERTY
Coulomb
SciTegic.value.DoubleValue
19.661

@<SCITEGIC>MOL_PROPERTY
VdW
SciTegic.value.DoubleValue
0.764

@<SCITEGIC>MOL_PROPERTY
VdW6
SciTegic.value.DoubleValue
-5.871

@<SCITEGIC>MOL_PROPERTY
VdW12
SciTegic.value.DoubleValue
6.636

@<SCITEGIC>MOL_PROPERTY
Bond
SciTegic.value.DoubleValue
0.230

@<SCITEGIC>MOL_PROPERTY
Angle
SciTegic.value.DoubleValue
1.857

@<SCITEGIC>MOL_PROPERTY
Pdih
SciTegic.value.DoubleValue
2.855

@<SCITEGIC>MOL_PROPERTY
Idih
SciTegic.value.DoubleValue
0.000

@<SCITEGIC>MOL_PROPERTY
Tether
SciTegic.value.DoubleValue
0.000

@<TRIPOS>MOLECULE
guest-s10_confgen4.mol2 : confsearch ligand conformer 310
          20          19           1
SMALL
USER_CHARGES
 
@<TRIPOS>ATOM
       1    N1      18.920884   20.295342   21.898670 N.4        1 MOL1        -0.5937
       2    H1      18.995675   21.310669   21.793219 H          1 MOL1         0.3684
       3    H2      17.961955   20.033582   21.654704 H          1 MOL1         0.3684
       4    H3      19.540194   19.865577   21.208921 H          1 MOL1         0.3684
       5    C1      19.273134   19.857874   23.294022 C.3        1 MOL1         0.1270
       6    H4      18.542174   20.348711   23.944178 H          1 MOL1         0.0960
       7    C2      20.666393   20.364976   23.706561 C.3        1 MOL1        -0.2382
       8    H5      21.449033   19.987827   23.037585 H          1 MOL1         0.1009
       9    H6      20.907188   20.051155   24.729769 H          1 MOL1         0.1009
      10    H7      20.700368   21.460881   23.678174 H          1 MOL1         0.1009
      11    C3      19.111838   18.331332   23.510737 C.3        1 MOL1        -0.1392
      12    H8      19.078347   18.151131   24.593303 H          1 MOL1         0.0998
      13    H9      18.128597   18.020770   23.133903 H          1 MOL1         0.0998
      14    C4      20.206732   17.406142   22.909217 C.3        1 MOL1        -0.1302
      15    H10     19.967770   16.370871   23.190173 H          1 MOL1         0.0998
      16    H11     21.180736   17.618823   23.370428 H          1 MOL1         0.0998
      17    C5      20.334499   17.473501   21.370367 C.3        1 MOL1        -0.2317
      18    H12     19.358289   17.349448   20.883781 H          1 MOL1         0.1009
      19    H13     20.990626   16.671255   21.008331 H          1 MOL1         0.1009
      20    H14     20.776176   18.421677   21.043027 H          1 MOL1         0.1009
@<TRIPOS>BOND
    1     1     2    1
    2     1     3    1
    3     1     4    1
    4     1     5    1
    5     5     6    1
    6     5     7    1
    7     7     8    1
    8     7     9    1
    9     7    10    1
   10     5    11    1
   11    11    12    1
   12    11    13    1
   13    11    14    1
   14    14    15    1
   15    14    16    1
   16    14    17    1
   17    17    18    1
   18    17    19    1
   19    17    20    1
@<TRIPOS>SUBSTRUCTURE
       1 MOL1            1 RESIDUE      1      MOL     
@<SCITEGIC>MOL_PROPERTY
VConf Rank
SciTegic.value.IntegerValue
310

@<SCITEGIC>MOL_PROPERTY
Conf_Id
SciTegic.value.IntegerValue
55

@<SCITEGIC>MOL_PROPERTY
Delta U+W
SciTegic.value.DoubleValue
2.767

@<SCITEGIC>MOL_PROPERTY
U+W
SciTegic.value.DoubleValue
-33.509

@<SCITEGIC>MOL_PROPERTY
Grad RMS
SciTegic.value.DoubleValue
0.000000

@<SCITEGIC>MOL_PROPERTY
U
SciTegic.value.DoubleValue
24.552

@<SCITEGIC>MOL_PROPERTY
W
SciTegic.value.DoubleValue
-58.061

@<SCITEGIC>MOL_PROPERTY
W(PB)
SciTegic.value.DoubleValue
-59.930

@<SCITEGIC>MOL_PROPERTY
W(SA)
SciTegic.value.DoubleValue
1.869

@<SCITEGIC>MOL_PROPERTY
Valence
SciTegic.value.DoubleValue
3.726

@<SCITEGIC>MOL_PROPERTY
Coulomb
SciTegic.value.DoubleValue
20.219

@<SCITEGIC>MOL_PROPERTY
VdW
SciTegic.value.DoubleValue
0.606

@<SCITEGIC>MOL_PROPERTY
VdW6
SciTegic.value.DoubleValue
-6.395

@<SCITEGIC>MOL_PROPERTY
VdW12
SciTegic.value.DoubleValue
7.001

@<SCITEGIC>MOL_PROPERTY
Bond
SciTegic.value.DoubleValue
0.241

@<SCITEGIC>MOL_PROPERTY
Angle
SciTegic.value.DoubleValue
2.098

@<SCITEGIC>MOL_PROPERTY
Pdih
SciTegic.value.DoubleValue
1.387

@<SCITEGIC>MOL_PROPERTY
Idih
SciTegic.value.DoubleValue
0.000

@<SCITEGIC>MOL_PROPERTY
Tether
SciTegic.value.DoubleValue
0.000

@<TRIPOS>MOLECULE
guest-s10_confgen4.mol2 : confsearch ligand conformer 311
          20          19           1
SMALL
USER_CHARGES
 
@<TRIPOS>ATOM
       1    N1      19.770120   17.825839   24.333907 N.4        1 MOL1        -0.5937
       2    H1      18.757715   17.729752   24.445033 H          1 MOL1         0.3684
       3    H2      20.193326   17.680282   25.254433 H          1 MOL1         0.3684
       4    H3      20.087048   17.063308   23.730016 H          1 MOL1         0.3684
       5    C1      20.137347   19.169996   23.765185 C.3        1 MOL1         0.1270
       6    H4      21.228053   19.186764   23.675930 H          1 MOL1         0.0960
       7    C2      19.715796   20.295535   24.724051 C.3        1 MOL1        -0.2382
       8    H5      20.171205   20.155124   25.712055 H          1 MOL1         0.1009
       9    H6      18.626285   20.322541   24.850661 H          1 MOL1         0.1009
      10    H7      20.039815   21.272760   24.344997 H          1 MOL1         0.1009
      11    C3      19.534618   19.405767   22.362587 C.3        1 MOL1        -0.1392
      12    H8      18.438573   19.370139   22.420310 H          1 MOL1         0.0998
      13    H9      19.797499   20.418817   22.029887 H          1 MOL1         0.0998
      14    C4      20.036295   18.388990   21.309019 C.3        1 MOL1        -0.1302
      15    H10     19.736123   17.370699   21.590809 H          1 MOL1         0.0998
      16    H11     21.134995   18.399860   21.277697 H          1 MOL1         0.0998
      17    C5      19.481953   18.704647   19.903185 C.3        1 MOL1        -0.2317
      18    H12     18.384645   18.671489   19.894713 H          1 MOL1         0.1009
      19    H13     19.846296   17.973732   19.169630 H          1 MOL1         0.1009
      20    H14     19.796299   19.701885   19.568618 H          1 MOL1         0.1009
@<TRIPOS>BOND
    1     1     2    1
    2     1     3    1
    3     1     4    1
    4     1     5    1
    5     5     6    1
    6     5     7    1
    7     7     8    1
    8     7     9    1
    9     7    10    1
   10     5    11    1
   11    11    12    1
   12    11    13    1
   13    11    14    1
   14    14    15    1
   15    14    16    1
   16    14    17    1
   17    17    18    1
   18    17    19    1
   19    17    20    1
@<TRIPOS>SUBSTRUCTURE
       1 MOL1            1 RESIDUE      1      MOL     
@<SCITEGIC>MOL_PROPERTY
VConf Rank
SciTegic.value.IntegerValue
311

@<SCITEGIC>MOL_PROPERTY
Conf_Id
SciTegic.value.IntegerValue
74

@<SCITEGIC>MOL_PROPERTY
Delta U+W
SciTegic.value.DoubleValue
0.000

@<SCITEGIC>MOL_PROPERTY
U+W
SciTegic.value.DoubleValue
-36.276

@<SCITEGIC>MOL_PROPERTY
Grad RMS
SciTegic.value.DoubleValue
0.000000

@<SCITEGIC>MOL_PROPERTY
U
SciTegic.value.DoubleValue
22.080

@<SCITEGIC>MOL_PROPERTY
W
SciTegic.value.DoubleValue
-58.356

@<SCITEGIC>MOL_PROPERTY
W(PB)
SciTegic.value.DoubleValue
-60.289

@<SCITEGIC>MOL_PROPERTY
W(SA)
SciTegic.value.DoubleValue
1.932

@<SCITEGIC>MOL_PROPERTY
Valence
SciTegic.value.DoubleValue
1.885

@<SCITEGIC>MOL_PROPERTY
Coulomb
SciTegic.value.DoubleValue
19.559

@<SCITEGIC>MOL_PROPERTY
VdW
SciTegic.value.DoubleValue
0.637

@<SCITEGIC>MOL_PROPERTY
VdW6
SciTegic.value.DoubleValue
-4.482

@<SCITEGIC>MOL_PROPERTY
VdW12
SciTegic.value.DoubleValue
5.119

@<SCITEGIC>MOL_PROPERTY
Bond
SciTegic.value.DoubleValue
0.136

@<SCITEGIC>MOL_PROPERTY
Angle
SciTegic.value.DoubleValue
0.867

@<SCITEGIC>MOL_PROPERTY
Pdih
SciTegic.value.DoubleValue
0.882

@<SCITEGIC>MOL_PROPERTY
Idih
SciTegic.value.DoubleValue
0.000

@<SCITEGIC>MOL_PROPERTY
Tether
SciTegic.value.DoubleValue
0.000

@<TRIPOS>MOLECULE
guest-s10_confgen4.mol2 : confsearch ligand conformer 312
          20          19           1
SMALL
USER_CHARGES
 
@<TRIPOS>ATOM
       1    N1      18.104095   18.332647   24.358253 N.4        1 MOL1        -0.5937
       2    H1      17.343120   18.982034   24.141292 H          1 MOL1         0.3684
       3    H2      18.588536   18.693352   25.184046 H          1 MOL1         0.3684
       4    H3      17.674854   17.441777   24.622416 H          1 MOL1         0.3684
       5    C1      19.042895   18.168071   23.194623 C.3        1 MOL1         0.1270
       6    H4      18.442104   17.778859   22.366716 H          1 MOL1         0.0960
       7    C2      20.134082   17.135121   23.530962 C.3        1 MOL1        -0.2382
       8    H5      19.684268   16.198979   23.883846 H          1 MOL1         0.1009
       9    H6      20.804607   17.506856   24.315684 H          1 MOL1         0.1009
      10    H7      20.738148   16.891037   22.649628 H          1 MOL1         0.1009
      11    C3      19.640252   19.527085   22.761338 C.3        1 MOL1        -0.1392
      12    H8      18.818539   20.245637   22.642453 H          1 MOL1         0.0998
      13    H9      20.283118   19.919991   23.560211 H          1 MOL1         0.0998
      14    C4      20.435451   19.466179   21.434269 C.3        1 MOL1        -0.1302
      15    H10     19.812664   19.014415   20.649339 H          1 MOL1         0.0998
      16    H11     21.319287   18.824561   21.548552 H          1 MOL1         0.0998
      17    C5      20.893541   20.868763   20.979744 C.3        1 MOL1        -0.2317
      18    H12     20.034086   21.530865   20.811826 H          1 MOL1         0.1009
      19    H13     21.458319   20.806676   20.040457 H          1 MOL1         0.1009
      20    H14     21.542490   21.335335   21.732364 H          1 MOL1         0.1009
@<TRIPOS>BOND
    1     1     2    1
    2     1     3    1
    3     1     4    1
    4     1     5    1
    5     5     6    1
    6     5     7    1
    7     7     8    1
    8     7     9    1
    9     7    10    1
   10     5    11    1
   11    11    12    1
   12    11    13    1
   13    11    14    1
   14    14    15    1
   15    14    16    1
   16    14    17    1
   17    17    18    1
   18    17    19    1
   19    17    20    1
@<TRIPOS>SUBSTRUCTURE
       1 MOL1            1 RESIDUE      1      MOL     
@<SCITEGIC>MOL_PROPERTY
VConf Rank
SciTegic.value.IntegerValue
312

@<SCITEGIC>MOL_PROPERTY
Conf_Id
SciTegic.value.IntegerValue
80

@<SCITEGIC>MOL_PROPERTY
Delta U+W
SciTegic.value.DoubleValue
0.460

@<SCITEGIC>MOL_PROPERTY
U+W
SciTegic.value.DoubleValue
-35.817

@<SCITEGIC>MOL_PROPERTY
Grad RMS
SciTegic.value.DoubleValue
0.000000

@<SCITEGIC>MOL_PROPERTY
U
SciTegic.value.DoubleValue
22.495

@<SCITEGIC>MOL_PROPERTY
W
SciTegic.value.DoubleValue
-58.311

@<SCITEGIC>MOL_PROPERTY
W(PB)
SciTegic.value.DoubleValue
-60.259

@<SCITEGIC>MOL_PROPERTY
W(SA)
SciTegic.value.DoubleValue
1.948

@<SCITEGIC>MOL_PROPERTY
Valence
SciTegic.value.DoubleValue
2.419

@<SCITEGIC>MOL_PROPERTY
Coulomb
SciTegic.value.DoubleValue
19.304

@<SCITEGIC>MOL_PROPERTY
VdW
SciTegic.value.DoubleValue
0.772

@<SCITEGIC>MOL_PROPERTY
VdW6
SciTegic.value.DoubleValue
-4.635

@<SCITEGIC>MOL_PROPERTY
VdW12
SciTegic.value.DoubleValue
5.407

@<SCITEGIC>MOL_PROPERTY
Bond
SciTegic.value.DoubleValue
0.149

@<SCITEGIC>MOL_PROPERTY
Angle
SciTegic.value.DoubleValue
1.142

@<SCITEGIC>MOL_PROPERTY
Pdih
SciTegic.value.DoubleValue
1.129

@<SCITEGIC>MOL_PROPERTY
Idih
SciTegic.value.DoubleValue
0.000

@<SCITEGIC>MOL_PROPERTY
Tether
SciTegic.value.DoubleValue
0.000

@<TRIPOS>MOLECULE
guest-s10_confgen4.mol2 : confsearch ligand conformer 313
          20          19           1
SMALL
USER_CHARGES
 
@<TRIPOS>ATOM
       1    N1      19.560734   19.982652   20.600559 N.4        1 MOL1        -0.5937
       2    H1      18.588618   20.233112   20.400377 H          1 MOL1         0.3684
       3    H2      19.781760   19.148573   20.050878 H          1 MOL1         0.3684
       4    H3      20.147585   20.743527   20.248011 H          1 MOL1         0.3684
       5    C1      19.783818   19.750610   22.069960 C.3        1 MOL1         0.1270
       6    H4      19.529581   20.690155   22.570377 H          1 MOL1         0.0960
       7    C2      21.267739   19.450421   22.342218 C.3        1 MOL1        -0.2382
       8    H5      21.908647   20.205697   21.871114 H          1 MOL1         0.1009
       9    H6      21.553842   18.467147   21.948807 H          1 MOL1         0.1009
      10    H7      21.482016   19.472646   23.416740 H          1 MOL1         0.1009
      11    C3      18.838533   18.648831   22.608341 C.3        1 MOL1        -0.1392
      12    H8      17.813409   18.932322   22.335496 H          1 MOL1         0.0998
      13    H9      19.032017   17.698237   22.093887 H          1 MOL1         0.0998
      14    C4      18.878351   18.444786   24.146010 C.3        1 MOL1        -0.1302
      15    H10     17.860680   18.221547   24.496193 H          1 MOL1         0.0998
      16    H11     19.171136   19.377706   24.647910 H          1 MOL1         0.0998
      17    C5      19.798803   17.282909   24.588553 C.3        1 MOL1        -0.2317
      18    H12     19.467542   16.332093   24.151138 H          1 MOL1         0.1009
      19    H13     19.778036   17.171073   25.680361 H          1 MOL1         0.1009
      20    H14     20.840989   17.445016   24.291719 H          1 MOL1         0.1009
@<TRIPOS>BOND
    1     1     2    1
    2     1     3    1
    3     1     4    1
    4     1     5    1
    5     5     6    1
    6     5     7    1
    7     7     8    1
    8     7     9    1
    9     7    10    1
   10     5    11    1
   11    11    12    1
   12    11    13    1
   13    11    14    1
   14    14    15    1
   15    14    16    1
   16    14    17    1
   17    17    18    1
   18    17    19    1
   19    17    20    1
@<TRIPOS>SUBSTRUCTURE
       1 MOL1            1 RESIDUE      1      MOL     
@<SCITEGIC>MOL_PROPERTY
VConf Rank
SciTegic.value.IntegerValue
313

@<SCITEGIC>MOL_PROPERTY
Conf_Id
SciTegic.value.IntegerValue
52

@<SCITEGIC>MOL_PROPERTY
Delta U+W
SciTegic.value.DoubleValue
2.995

@<SCITEGIC>MOL_PROPERTY
U+W
SciTegic.value.DoubleValue
-33.282

@<SCITEGIC>MOL_PROPERTY
Grad RMS
SciTegic.value.DoubleValue
0.000000

@<SCITEGIC>MOL_PROPERTY
U
SciTegic.value.DoubleValue
25.224

@<SCITEGIC>MOL_PROPERTY
W
SciTegic.value.DoubleValue
-58.506

@<SCITEGIC>MOL_PROPERTY
W(PB)
SciTegic.value.DoubleValue
-60.411

@<SCITEGIC>MOL_PROPERTY
W(SA)
SciTegic.value.DoubleValue
1.905

@<SCITEGIC>MOL_PROPERTY
Valence
SciTegic.value.DoubleValue
4.945

@<SCITEGIC>MOL_PROPERTY
Coulomb
SciTegic.value.DoubleValue
19.467

@<SCITEGIC>MOL_PROPERTY
VdW
SciTegic.value.DoubleValue
0.813

@<SCITEGIC>MOL_PROPERTY
VdW6
SciTegic.value.DoubleValue
-5.458

@<SCITEGIC>MOL_PROPERTY
VdW12
SciTegic.value.DoubleValue
6.270

@<SCITEGIC>MOL_PROPERTY
Bond
SciTegic.value.DoubleValue
0.200

@<SCITEGIC>MOL_PROPERTY
Angle
SciTegic.value.DoubleValue
1.675

@<SCITEGIC>MOL_PROPERTY
Pdih
SciTegic.value.DoubleValue
3.070

@<SCITEGIC>MOL_PROPERTY
Idih
SciTegic.value.DoubleValue
0.000

@<SCITEGIC>MOL_PROPERTY
Tether
SciTegic.value.DoubleValue
0.000

@<TRIPOS>MOLECULE
guest-s10_confgen4.mol2 : confsearch ligand conformer 314
          20          19           1
SMALL
USER_CHARGES
 
@<TRIPOS>ATOM
       1    N1      19.659185   20.611343   22.470363 N.4        1 MOL1        -0.5937
       2    H1      19.055872   20.700445   21.649113 H          1 MOL1         0.3684
       3    H2      20.208240   21.472220   22.541620 H          1 MOL1         0.3684
       4    H3      19.052562   20.562852   23.291729 H          1 MOL1         0.3684
       5    C1      20.543614   19.398329   22.372213 C.3        1 MOL1         0.1270
       6    H4      21.188776   19.397551   23.256237 H          1 MOL1         0.0960
       7    C2      21.437311   19.504108   21.124866 C.3        1 MOL1        -0.2382
       8    H5      20.838735   19.493098   20.205386 H          1 MOL1         0.1009
       9    H6      22.147473   18.669035   21.080494 H          1 MOL1         0.1009
      10    H7      22.020519   20.433036   21.142091 H          1 MOL1         0.1009
      11    C3      19.744552   18.073434   22.352512 C.3        1 MOL1        -0.1392
      12    H8      18.915274   18.146910   21.636639 H          1 MOL1         0.0998
      13    H9      20.397926   17.276313   21.973323 H          1 MOL1         0.0998
      14    C4      19.216550   17.611827   23.736254 C.3        1 MOL1        -0.1302
      15    H10     20.058115   17.495209   24.433537 H          1 MOL1         0.0998
      16    H11     18.780194   16.609888   23.619050 H          1 MOL1         0.0998
      17    C5      18.149601   18.536347   24.365610 C.3        1 MOL1        -0.2317
      18    H12     17.685521   18.045056   25.230798 H          1 MOL1         0.1009
      19    H13     17.351231   18.770705   23.649371 H          1 MOL1         0.1009
      20    H14     18.589139   19.472565   24.728573 H          1 MOL1         0.1009
@<TRIPOS>BOND
    1     1     2    1
    2     1     3    1
    3     1     4    1
    4     1     5    1
    5     5     6    1
    6     5     7    1
    7     7     8    1
    8     7     9    1
    9     7    10    1
   10     5    11    1
   11    11    12    1
   12    11    13    1
   13    11    14    1
   14    14    15    1
   15    14    16    1
   16    14    17    1
   17    17    18    1
   18    17    19    1
   19    17    20    1
@<TRIPOS>SUBSTRUCTURE
       1 MOL1            1 RESIDUE      1      MOL     
@<SCITEGIC>MOL_PROPERTY
VConf Rank
SciTegic.value.IntegerValue
314

@<SCITEGIC>MOL_PROPERTY
Conf_Id
SciTegic.value.IntegerValue
54

@<SCITEGIC>MOL_PROPERTY
Delta U+W
SciTegic.value.DoubleValue
2.752

@<SCITEGIC>MOL_PROPERTY
U+W
SciTegic.value.DoubleValue
-33.525

@<SCITEGIC>MOL_PROPERTY
Grad RMS
SciTegic.value.DoubleValue
0.000000

@<SCITEGIC>MOL_PROPERTY
U
SciTegic.value.DoubleValue
24.337

@<SCITEGIC>MOL_PROPERTY
W
SciTegic.value.DoubleValue
-57.862

@<SCITEGIC>MOL_PROPERTY
W(PB)
SciTegic.value.DoubleValue
-59.764

@<SCITEGIC>MOL_PROPERTY
W(SA)
SciTegic.value.DoubleValue
1.901

@<SCITEGIC>MOL_PROPERTY
Valence
SciTegic.value.DoubleValue
3.593

@<SCITEGIC>MOL_PROPERTY
Coulomb
SciTegic.value.DoubleValue
20.067

@<SCITEGIC>MOL_PROPERTY
VdW
SciTegic.value.DoubleValue
0.677

@<SCITEGIC>MOL_PROPERTY
VdW6
SciTegic.value.DoubleValue
-5.466

@<SCITEGIC>MOL_PROPERTY
VdW12
SciTegic.value.DoubleValue
6.144

@<SCITEGIC>MOL_PROPERTY
Bond
SciTegic.value.DoubleValue
0.191

@<SCITEGIC>MOL_PROPERTY
Angle
SciTegic.value.DoubleValue
1.557

@<SCITEGIC>MOL_PROPERTY
Pdih
SciTegic.value.DoubleValue
1.845

@<SCITEGIC>MOL_PROPERTY
Idih
SciTegic.value.DoubleValue
0.000

@<SCITEGIC>MOL_PROPERTY
Tether
SciTegic.value.DoubleValue
0.000

@<TRIPOS>MOLECULE
guest-s10_confgen4.mol2 : confsearch ligand conformer 315
          20          19           1
SMALL
USER_CHARGES
 
@<TRIPOS>ATOM
       1    N1      19.154930   20.727644   21.823013 N.4        1 MOL1        -0.5937
       2    H1      18.420888   21.440885   21.811913 H          1 MOL1         0.3684
       3    H2      19.554934   20.688884   20.881627 H          1 MOL1         0.3684
       4    H3      19.888725   21.054583   22.455550 H          1 MOL1         0.3684
       5    C1      18.616069   19.389491   22.250637 C.3        1 MOL1         0.1270
       6    H4      17.832627   19.134434   21.530091 H          1 MOL1         0.0960
       7    C2      17.958184   19.476413   23.639332 C.3        1 MOL1        -0.2382
       8    H5      17.568248   18.498646   23.948189 H          1 MOL1         0.1009
       9    H6      17.115989   20.178888   23.621353 H          1 MOL1         0.1009
      10    H7      18.665201   19.821561   24.402904 H          1 MOL1         0.1009
      11    C3      19.683377   18.270958   22.181416 C.3        1 MOL1        -0.1392
      12    H8      19.204627   17.311307   22.417221 H          1 MOL1         0.0998
      13    H9      20.030957   18.186788   21.143384 H          1 MOL1         0.0998
      14    C4      20.906607   18.474878   23.112259 C.3        1 MOL1        -0.1302
      15    H10     20.584216   18.509741   24.161479 H          1 MOL1         0.0998
      16    H11     21.392087   19.435889   22.895629 H          1 MOL1         0.0998
      17    C5      21.940426   17.340519   22.945591 C.3        1 MOL1        -0.2317
      18    H12     22.798779   17.497197   23.611735 H          1 MOL1         0.1009
      19    H13     22.317754   17.297533   21.915544 H          1 MOL1         0.1009
      20    H14     21.499452   16.365063   23.189006 H          1 MOL1         0.1009
@<TRIPOS>BOND
    1     1     2    1
    2     1     3    1
    3     1     4    1
    4     1     5    1
    5     5     6    1
    6     5     7    1
    7     7     8    1
    8     7     9    1
    9     7    10    1
   10     5    11    1
   11    11    12    1
   12    11    13    1
   13    11    14    1
   14    14    15    1
   15    14    16    1
   16    14    17    1
   17    17    18    1
   18    17    19    1
   19    17    20    1
@<TRIPOS>SUBSTRUCTURE
       1 MOL1            1 RESIDUE      1      MOL     
@<SCITEGIC>MOL_PROPERTY
VConf Rank
SciTegic.value.IntegerValue
315

@<SCITEGIC>MOL_PROPERTY
Conf_Id
SciTegic.value.IntegerValue
63

@<SCITEGIC>MOL_PROPERTY
Delta U+W
SciTegic.value.DoubleValue
0.420

@<SCITEGIC>MOL_PROPERTY
U+W
SciTegic.value.DoubleValue
-35.856

@<SCITEGIC>MOL_PROPERTY
Grad RMS
SciTegic.value.DoubleValue
0.000000

@<SCITEGIC>MOL_PROPERTY
U
SciTegic.value.DoubleValue
22.625

@<SCITEGIC>MOL_PROPERTY
W
SciTegic.value.DoubleValue
-58.481

@<SCITEGIC>MOL_PROPERTY
W(PB)
SciTegic.value.DoubleValue
-60.400

@<SCITEGIC>MOL_PROPERTY
W(SA)
SciTegic.value.DoubleValue
1.919

@<SCITEGIC>MOL_PROPERTY
Valence
SciTegic.value.DoubleValue
2.404

@<SCITEGIC>MOL_PROPERTY
Coulomb
SciTegic.value.DoubleValue
19.464

@<SCITEGIC>MOL_PROPERTY
VdW
SciTegic.value.DoubleValue
0.757

@<SCITEGIC>MOL_PROPERTY
VdW6
SciTegic.value.DoubleValue
-5.074

@<SCITEGIC>MOL_PROPERTY
VdW12
SciTegic.value.DoubleValue
5.830

@<SCITEGIC>MOL_PROPERTY
Bond
SciTegic.value.DoubleValue
0.172

@<SCITEGIC>MOL_PROPERTY
Angle
SciTegic.value.DoubleValue
1.207

@<SCITEGIC>MOL_PROPERTY
Pdih
SciTegic.value.DoubleValue
1.025

@<SCITEGIC>MOL_PROPERTY
Idih
SciTegic.value.DoubleValue
0.000

@<SCITEGIC>MOL_PROPERTY
Tether
SciTegic.value.DoubleValue
0.000

@<TRIPOS>MOLECULE
guest-s10_confgen4.mol2 : confsearch ligand conformer 316
          20          19           1
SMALL
USER_CHARGES
 
@<TRIPOS>ATOM
       1    N1      18.046376   18.318734   22.905114 N.4        1 MOL1        -0.5937
       2    H1      17.839362   19.187782   23.403888 H          1 MOL1         0.3684
       3    H2      18.027400   17.558722   23.589543 H          1 MOL1         0.3684
       4    H3      17.281329   18.155308   22.245161 H          1 MOL1         0.3684
       5    C1      19.374798   18.394693   22.202474 C.3        1 MOL1         0.1270
       6    H4      19.308311   19.224577   21.492544 H          1 MOL1         0.0960
       7    C2      19.643411   17.106211   21.408009 C.3        1 MOL1        -0.2382
       8    H5      18.837838   16.919197   20.687373 H          1 MOL1         0.1009
       9    H6      19.715510   16.236654   22.073160 H          1 MOL1         0.1009
      10    H7      20.581662   17.184102   20.844769 H          1 MOL1         0.1009
      11    C3      20.542045   18.680773   23.174417 C.3        1 MOL1        -0.1392
      12    H8      20.635585   17.849675   23.886007 H          1 MOL1         0.0998
      13    H9      21.481740   18.705323   22.606705 H          1 MOL1         0.0998
      14    C4      20.402307   20.008538   23.961443 C.3        1 MOL1        -0.1302
      15    H10     21.272355   20.118948   24.623809 H          1 MOL1         0.0998
      16    H11     19.524627   19.969004   24.620746 H          1 MOL1         0.0998
      17    C5      20.310451   21.249595   23.044542 C.3        1 MOL1        -0.2317
      18    H12     21.178476   21.310659   22.375225 H          1 MOL1         0.1009
      19    H13     20.284831   22.169148   23.643570 H          1 MOL1         0.1009
      20    H14     19.402945   21.231492   22.428099 H          1 MOL1         0.1009
@<TRIPOS>BOND
    1     1     2    1
    2     1     3    1
    3     1     4    1
    4     1     5    1
    5     5     6    1
    6     5     7    1
    7     7     8    1
    8     7     9    1
    9     7    10    1
   10     5    11    1
   11    11    12    1
   12    11    13    1
   13    11    14    1
   14    14    15    1
   15    14    16    1
   16    14    17    1
   17    17    18    1
   18    17    19    1
   19    17    20    1
@<TRIPOS>SUBSTRUCTURE
       1 MOL1            1 RESIDUE      1      MOL     
@<SCITEGIC>MOL_PROPERTY
VConf Rank
SciTegic.value.IntegerValue
316

@<SCITEGIC>MOL_PROPERTY
Conf_Id
SciTegic.value.IntegerValue
50

@<SCITEGIC>MOL_PROPERTY
Delta U+W
SciTegic.value.DoubleValue
0.466

@<SCITEGIC>MOL_PROPERTY
U+W
SciTegic.value.DoubleValue
-35.811

@<SCITEGIC>MOL_PROPERTY
Grad RMS
SciTegic.value.DoubleValue
0.000000

@<SCITEGIC>MOL_PROPERTY
U
SciTegic.value.DoubleValue
22.369

@<SCITEGIC>MOL_PROPERTY
W
SciTegic.value.DoubleValue
-58.180

@<SCITEGIC>MOL_PROPERTY
W(PB)
SciTegic.value.DoubleValue
-60.103

@<SCITEGIC>MOL_PROPERTY
W(SA)
SciTegic.value.DoubleValue
1.923

@<SCITEGIC>MOL_PROPERTY
Valence
SciTegic.value.DoubleValue
2.168

@<SCITEGIC>MOL_PROPERTY
Coulomb
SciTegic.value.DoubleValue
19.636

@<SCITEGIC>MOL_PROPERTY
VdW
SciTegic.value.DoubleValue
0.566

@<SCITEGIC>MOL_PROPERTY
VdW6
SciTegic.value.DoubleValue
-5.263

@<SCITEGIC>MOL_PROPERTY
VdW12
SciTegic.value.DoubleValue
5.829

@<SCITEGIC>MOL_PROPERTY
Bond
SciTegic.value.DoubleValue
0.162

@<SCITEGIC>MOL_PROPERTY
Angle
SciTegic.value.DoubleValue
1.066

@<SCITEGIC>MOL_PROPERTY
Pdih
SciTegic.value.DoubleValue
0.939

@<SCITEGIC>MOL_PROPERTY
Idih
SciTegic.value.DoubleValue
0.000

@<SCITEGIC>MOL_PROPERTY
Tether
SciTegic.value.DoubleValue
0.000

@<TRIPOS>MOLECULE
guest-s10_confgen4.mol2 : confsearch ligand conformer 317
          20          19           1
SMALL
USER_CHARGES
 
@<TRIPOS>ATOM
       1    N1      20.597737   20.968698   22.299298 N.4        1 MOL1        -0.5937
       2    H1      20.682142   21.423547   23.212526 H          1 MOL1         0.3684
       3    H2      19.894026   21.483265   21.763682 H          1 MOL1         0.3684
       4    H3      21.493378   21.088063   21.818347 H          1 MOL1         0.3684
       5    C1      20.235011   19.514526   22.434926 C.3        1 MOL1         0.1270
       6    H4      21.037293   19.053644   23.019472 H          1 MOL1         0.0960
       7    C2      20.192023   18.850529   21.045961 C.3        1 MOL1        -0.2382
       8    H5      19.430071   19.316301   20.408661 H          1 MOL1         0.1009
       9    H6      19.963059   17.781750   21.117199 H          1 MOL1         0.1009
      10    H7      21.161032   18.947684   20.541272 H          1 MOL1         0.1009
      11    C3      18.905252   19.319666   23.204342 C.3        1 MOL1        -0.1392
      12    H8      18.665619   20.243371   23.747496 H          1 MOL1         0.0998
      13    H9      18.074827   19.165937   22.502362 H          1 MOL1         0.0998
      14    C4      18.944179   18.170658   24.243595 C.3        1 MOL1        -0.1302
      15    H10     17.990725   18.159588   24.790162 H          1 MOL1         0.0998
      16    H11     19.722134   18.378273   24.991767 H          1 MOL1         0.0998
      17    C5      19.182120   16.772435   23.631555 C.3        1 MOL1        -0.2317
      18    H12     18.445102   16.551850   22.848501 H          1 MOL1         0.1009
      19    H13     19.093202   15.996274   24.402729 H          1 MOL1         0.1009
      20    H14     20.186747   16.689987   23.198477 H          1 MOL1         0.1009
@<TRIPOS>BOND
    1     1     2    1
    2     1     3    1
    3     1     4    1
    4     1     5    1
    5     5     6    1
    6     5     7    1
    7     7     8    1
    8     7     9    1
    9     7    10    1
   10     5    11    1
   11    11    12    1
   12    11    13    1
   13    11    14    1
   14    14    15    1
   15    14    16    1
   16    14    17    1
   17    17    18    1
   18    17    19    1
   19    17    20    1
@<TRIPOS>SUBSTRUCTURE
       1 MOL1            1 RESIDUE      1      MOL     
@<SCITEGIC>MOL_PROPERTY
VConf Rank
SciTegic.value.IntegerValue
317

@<SCITEGIC>MOL_PROPERTY
Conf_Id
SciTegic.value.IntegerValue
3

@<SCITEGIC>MOL_PROPERTY
Delta U+W
SciTegic.value.DoubleValue
3.093

@<SCITEGIC>MOL_PROPERTY
U+W
SciTegic.value.DoubleValue
-33.184

@<SCITEGIC>MOL_PROPERTY
Grad RMS
SciTegic.value.DoubleValue
0.000000

@<SCITEGIC>MOL_PROPERTY
U
SciTegic.value.DoubleValue
25.256

@<SCITEGIC>MOL_PROPERTY
W
SciTegic.value.DoubleValue
-58.439

@<SCITEGIC>MOL_PROPERTY
W(PB)
SciTegic.value.DoubleValue
-60.337

@<SCITEGIC>MOL_PROPERTY
W(SA)
SciTegic.value.DoubleValue
1.898

@<SCITEGIC>MOL_PROPERTY
Valence
SciTegic.value.DoubleValue
4.963

@<SCITEGIC>MOL_PROPERTY
Coulomb
SciTegic.value.DoubleValue
19.511

@<SCITEGIC>MOL_PROPERTY
VdW
SciTegic.value.DoubleValue
0.782

@<SCITEGIC>MOL_PROPERTY
VdW6
SciTegic.value.DoubleValue
-5.429

@<SCITEGIC>MOL_PROPERTY
VdW12
SciTegic.value.DoubleValue
6.211

@<SCITEGIC>MOL_PROPERTY
Bond
SciTegic.value.DoubleValue
0.174

@<SCITEGIC>MOL_PROPERTY
Angle
SciTegic.value.DoubleValue
1.377

@<SCITEGIC>MOL_PROPERTY
Pdih
SciTegic.value.DoubleValue
3.412

@<SCITEGIC>MOL_PROPERTY
Idih
SciTegic.value.DoubleValue
0.000

@<SCITEGIC>MOL_PROPERTY
Tether
SciTegic.value.DoubleValue
0.000

@<TRIPOS>MOLECULE
guest-s10_confgen4.mol2 : confsearch ligand conformer 318
          20          19           1
SMALL
USER_CHARGES
 
@<TRIPOS>ATOM
       1    N1      18.589485   17.126275   21.905188 N.4        1 MOL1        -0.5937
       2    H1      18.820527   16.715488   20.996613 H          1 MOL1         0.3684
       3    H2      17.614738   17.435289   21.858193 H          1 MOL1         0.3684
       4    H3      18.639983   16.376448   22.599374 H          1 MOL1         0.3684
       5    C1      19.515761   18.260514   22.248547 C.3        1 MOL1         0.1270
       6    H4      19.396253   19.004696   21.455447 H          1 MOL1         0.0960
       7    C2      20.977584   17.777640   22.245848 C.3        1 MOL1        -0.2382
       8    H5      21.673880   18.617039   22.355926 H          1 MOL1         0.1009
       9    H6      21.218273   17.278588   21.299196 H          1 MOL1         0.1009
      10    H7      21.162858   17.067809   23.061508 H          1 MOL1         0.1009
      11    C3      19.123029   18.916608   23.593809 C.3        1 MOL1        -0.1392
      12    H8      18.054093   19.165675   23.564370 H          1 MOL1         0.0998
      13    H9      19.242765   18.184787   24.403647 H          1 MOL1         0.0998
      14    C4      19.913215   20.201403   23.951596 C.3        1 MOL1        -0.1302
      15    H10     20.972062   19.963603   24.120614 H          1 MOL1         0.0998
      16    H11     19.537051   20.590890   24.907964 H          1 MOL1         0.0998
      17    C5      19.790777   21.306695   22.878055 C.3        1 MOL1        -0.2317
      18    H12     18.739255   21.559696   22.689777 H          1 MOL1         0.1009
      19    H13     20.245356   20.998379   21.928127 H          1 MOL1         0.1009
      20    H14     20.301363   22.220942   23.207406 H          1 MOL1         0.1009
@<TRIPOS>BOND
    1     1     2    1
    2     1     3    1
    3     1     4    1
    4     1     5    1
    5     5     6    1
    6     5     7    1
    7     7     8    1
    8     7     9    1
    9     7    10    1
   10     5    11    1
   11    11    12    1
   12    11    13    1
   13    11    14    1
   14    14    15    1
   15    14    16    1
   16    14    17    1
   17    17    18    1
   18    17    19    1
   19    17    20    1
@<TRIPOS>SUBSTRUCTURE
       1 MOL1            1 RESIDUE      1      MOL     
@<SCITEGIC>MOL_PROPERTY
VConf Rank
SciTegic.value.IntegerValue
318

@<SCITEGIC>MOL_PROPERTY
Conf_Id
SciTegic.value.IntegerValue
64

@<SCITEGIC>MOL_PROPERTY
Delta U+W
SciTegic.value.DoubleValue
0.544

@<SCITEGIC>MOL_PROPERTY
U+W
SciTegic.value.DoubleValue
-35.732

@<SCITEGIC>MOL_PROPERTY
Grad RMS
SciTegic.value.DoubleValue
0.000000

@<SCITEGIC>MOL_PROPERTY
U
SciTegic.value.DoubleValue
22.800

@<SCITEGIC>MOL_PROPERTY
W
SciTegic.value.DoubleValue
-58.532

@<SCITEGIC>MOL_PROPERTY
W(PB)
SciTegic.value.DoubleValue
-60.437

@<SCITEGIC>MOL_PROPERTY
W(SA)
SciTegic.value.DoubleValue
1.905

@<SCITEGIC>MOL_PROPERTY
Valence
SciTegic.value.DoubleValue
2.662

@<SCITEGIC>MOL_PROPERTY
Coulomb
SciTegic.value.DoubleValue
19.485

@<SCITEGIC>MOL_PROPERTY
VdW
SciTegic.value.DoubleValue
0.653

@<SCITEGIC>MOL_PROPERTY
VdW6
SciTegic.value.DoubleValue
-5.460

@<SCITEGIC>MOL_PROPERTY
VdW12
SciTegic.value.DoubleValue
6.113

@<SCITEGIC>MOL_PROPERTY
Bond
SciTegic.value.DoubleValue
0.174

@<SCITEGIC>MOL_PROPERTY
Angle
SciTegic.value.DoubleValue
1.378

@<SCITEGIC>MOL_PROPERTY
Pdih
SciTegic.value.DoubleValue
1.109

@<SCITEGIC>MOL_PROPERTY
Idih
SciTegic.value.DoubleValue
0.000

@<SCITEGIC>MOL_PROPERTY
Tether
SciTegic.value.DoubleValue
0.000

@<TRIPOS>MOLECULE
guest-s10_confgen4.mol2 : confsearch ligand conformer 319
          20          19           1
SMALL
USER_CHARGES
 
@<TRIPOS>ATOM
       1    N1      17.830232   19.547979   22.201351 N.4        1 MOL1        -0.5937
       2    H1      18.340145   19.744031   21.337161 H          1 MOL1         0.3684
       3    H2      17.272923   20.377563   22.422283 H          1 MOL1         0.3684
       4    H3      17.175557   18.785898   22.005667 H          1 MOL1         0.3684
       5    C1      18.766599   19.198405   23.326449 C.3        1 MOL1         0.1270
       6    H4      18.131404   19.019276   24.199605 H          1 MOL1         0.0960
       7    C2      19.685875   20.383927   23.662895 C.3        1 MOL1        -0.2382
       8    H5      20.259599   20.708356   22.786941 H          1 MOL1         0.1009
       9    H6      20.388399   20.119256   24.462737 H          1 MOL1         0.1009
      10    H7      19.094729   21.240291   24.009535 H          1 MOL1         0.1009
      11    C3      19.546112   17.886350   23.058475 C.3        1 MOL1        -0.1392
      12    H8      20.076580   17.584963   23.971309 H          1 MOL1         0.0998
      13    H9      18.805537   17.095339   22.881465 H          1 MOL1         0.0998
      14    C4      20.532917   17.906561   21.858044 C.3        1 MOL1        -0.1302
      15    H10     20.179017   18.585569   21.071226 H          1 MOL1         0.0998
      16    H11     20.546914   16.905367   21.404836 H          1 MOL1         0.0998
      17    C5      21.984091   18.264135   22.256769 C.3        1 MOL1        -0.2317
      18    H12     22.060832   19.272300   22.678302 H          1 MOL1         0.1009
      19    H13     22.643801   18.221488   21.380453 H          1 MOL1         0.1009
      20    H14     22.373353   17.555891   22.999674 H          1 MOL1         0.1009
@<TRIPOS>BOND
    1     1     2    1
    2     1     3    1
    3     1     4    1
    4     1     5    1
    5     5     6    1
    6     5     7    1
    7     7     8    1
    8     7     9    1
    9     7    10    1
   10     5    11    1
   11    11    12    1
   12    11    13    1
   13    11    14    1
   14    14    15    1
   15    14    16    1
   16    14    17    1
   17    17    18    1
   18    17    19    1
   19    17    20    1
@<TRIPOS>SUBSTRUCTURE
       1 MOL1            1 RESIDUE      1      MOL     
@<SCITEGIC>MOL_PROPERTY
VConf Rank
SciTegic.value.IntegerValue
319

@<SCITEGIC>MOL_PROPERTY
Conf_Id
SciTegic.value.IntegerValue
35

@<SCITEGIC>MOL_PROPERTY
Delta U+W
SciTegic.value.DoubleValue
3.004

@<SCITEGIC>MOL_PROPERTY
U+W
SciTegic.value.DoubleValue
-33.272

@<SCITEGIC>MOL_PROPERTY
Grad RMS
SciTegic.value.DoubleValue
0.000000

@<SCITEGIC>MOL_PROPERTY
U
SciTegic.value.DoubleValue
25.367

@<SCITEGIC>MOL_PROPERTY
W
SciTegic.value.DoubleValue
-58.639

@<SCITEGIC>MOL_PROPERTY
W(PB)
SciTegic.value.DoubleValue
-60.512

@<SCITEGIC>MOL_PROPERTY
W(SA)
SciTegic.value.DoubleValue
1.873

@<SCITEGIC>MOL_PROPERTY
Valence
SciTegic.value.DoubleValue
4.943

@<SCITEGIC>MOL_PROPERTY
Coulomb
SciTegic.value.DoubleValue
19.661

@<SCITEGIC>MOL_PROPERTY
VdW
SciTegic.value.DoubleValue
0.764

@<SCITEGIC>MOL_PROPERTY
VdW6
SciTegic.value.DoubleValue
-5.871

@<SCITEGIC>MOL_PROPERTY
VdW12
SciTegic.value.DoubleValue
6.636

@<SCITEGIC>MOL_PROPERTY
Bond
SciTegic.value.DoubleValue
0.230

@<SCITEGIC>MOL_PROPERTY
Angle
SciTegic.value.DoubleValue
1.857

@<SCITEGIC>MOL_PROPERTY
Pdih
SciTegic.value.DoubleValue
2.855

@<SCITEGIC>MOL_PROPERTY
Idih
SciTegic.value.DoubleValue
0.000

@<SCITEGIC>MOL_PROPERTY
Tether
SciTegic.value.DoubleValue
0.000

@<TRIPOS>MOLECULE
guest-s10_confgen4.mol2 : confsearch ligand conformer 320
          20          19           1
SMALL
USER_CHARGES
 
@<TRIPOS>ATOM
       1    N1      19.340603   17.252520   22.815518 N.4        1 MOL1        -0.5937
       2    H1      19.576923   16.432848   23.381109 H          1 MOL1         0.3684
       3    H2      18.878738   16.914270   21.967078 H          1 MOL1         0.3684
       4    H3      18.656125   17.802685   23.337825 H          1 MOL1         0.3684
       5    C1      20.561166   18.069030   22.489944 C.3        1 MOL1         0.1270
       6    H4      21.210549   17.401681   21.914727 H          1 MOL1         0.0960
       7    C2      21.326872   18.466902   23.764269 C.3        1 MOL1        -0.2382
       8    H5      20.704190   19.064044   24.441014 H          1 MOL1         0.1009
       9    H6      22.221380   19.050617   23.514167 H          1 MOL1         0.1009
      10    H7      21.654484   17.573879   24.310296 H          1 MOL1         0.1009
      11    C3      20.252580   19.286745   21.581507 C.3        1 MOL1        -0.1392
      12    H8      21.202077   19.626290   21.147103 H          1 MOL1         0.0998
      13    H9      19.647147   18.950377   20.729730 H          1 MOL1         0.0998
      14    C4      19.567519   20.515000   22.243835 C.3        1 MOL1        -0.1302
      15    H10     19.463174   21.298032   21.479769 H          1 MOL1         0.0998
      16    H11     20.219233   20.943598   23.017271 H          1 MOL1         0.0998
      17    C5      18.170308   20.230772   22.840443 C.3        1 MOL1        -0.2317
      18    H12     17.522735   19.722889   22.113914 H          1 MOL1         0.1009
      19    H13     17.679433   21.171285   23.122664 H          1 MOL1         0.1009
      20    H14     18.235373   19.618079   23.746887 H          1 MOL1         0.1009
@<TRIPOS>BOND
    1     1     2    1
    2     1     3    1
    3     1     4    1
    4     1     5    1
    5     5     6    1
    6     5     7    1
    7     7     8    1
    8     7     9    1
    9     7    10    1
   10     5    11    1
   11    11    12    1
   12    11    13    1
   13    11    14    1
   14    14    15    1
   15    14    16    1
   16    14    17    1
   17    17    18    1
   18    17    19    1
   19    17    20    1
@<TRIPOS>SUBSTRUCTURE
       1 MOL1            1 RESIDUE      1      MOL     
@<SCITEGIC>MOL_PROPERTY
VConf Rank
SciTegic.value.IntegerValue
320

@<SCITEGIC>MOL_PROPERTY
Conf_Id
SciTegic.value.IntegerValue
55

@<SCITEGIC>MOL_PROPERTY
Delta U+W
SciTegic.value.DoubleValue
2.767

@<SCITEGIC>MOL_PROPERTY
U+W
SciTegic.value.DoubleValue
-33.509

@<SCITEGIC>MOL_PROPERTY
Grad RMS
SciTegic.value.DoubleValue
0.000000

@<SCITEGIC>MOL_PROPERTY
U
SciTegic.value.DoubleValue
24.552

@<SCITEGIC>MOL_PROPERTY
W
SciTegic.value.DoubleValue
-58.061

@<SCITEGIC>MOL_PROPERTY
W(PB)
SciTegic.value.DoubleValue
-59.930

@<SCITEGIC>MOL_PROPERTY
W(SA)
SciTegic.value.DoubleValue
1.869

@<SCITEGIC>MOL_PROPERTY
Valence
SciTegic.value.DoubleValue
3.726

@<SCITEGIC>MOL_PROPERTY
Coulomb
SciTegic.value.DoubleValue
20.219

@<SCITEGIC>MOL_PROPERTY
VdW
SciTegic.value.DoubleValue
0.606

@<SCITEGIC>MOL_PROPERTY
VdW6
SciTegic.value.DoubleValue
-6.395

@<SCITEGIC>MOL_PROPERTY
VdW12
SciTegic.value.DoubleValue
7.001

@<SCITEGIC>MOL_PROPERTY
Bond
SciTegic.value.DoubleValue
0.241

@<SCITEGIC>MOL_PROPERTY
Angle
SciTegic.value.DoubleValue
2.098

@<SCITEGIC>MOL_PROPERTY
Pdih
SciTegic.value.DoubleValue
1.387

@<SCITEGIC>MOL_PROPERTY
Idih
SciTegic.value.DoubleValue
0.000

@<SCITEGIC>MOL_PROPERTY
Tether
SciTegic.value.DoubleValue
0.000

@<TRIPOS>MOLECULE
guest-s10_confgen4.mol2 : confsearch ligand conformer 321
          20          19           1
SMALL
USER_CHARGES
 
@<TRIPOS>ATOM
       1    N1      19.229898   18.192530   24.461465 N.4        1 MOL1        -0.5937
       2    H1      19.622695   17.258581   24.320065 H          1 MOL1         0.3684
       3    H2      18.483769   18.107677   25.156985 H          1 MOL1         0.3684
       4    H3      19.963161   18.775664   24.872393 H          1 MOL1         0.3684
       5    C1      18.717442   18.776207   23.172368 C.3        1 MOL1         0.1270
       6    H4      18.322010   19.768407   23.411239 H          1 MOL1         0.0960
       7    C2      17.568050   17.922354   22.612187 C.3        1 MOL1        -0.2382
       8    H5      16.757732   17.832113   23.346016 H          1 MOL1         0.1009
       9    H6      17.911488   16.912208   22.356355 H          1 MOL1         0.1009
      10    H7      17.147510   18.379293   21.707758 H          1 MOL1         0.1009
      11    C3      19.828998   18.941934   22.112592 C.3        1 MOL1        -0.1392
      12    H8      20.259798   17.960895   21.871989 H          1 MOL1         0.0998
      13    H9      19.380272   19.322385   21.185246 H          1 MOL1         0.0998
      14    C4      20.950779   19.910888   22.557850 C.3        1 MOL1        -0.1302
      15    H10     21.454061   19.523221   23.453868 H          1 MOL1         0.0998
      16    H11     20.514213   20.881502   22.832732 H          1 MOL1         0.0998
      17    C5      21.999199   20.119307   21.443992 C.3        1 MOL1        -0.2317
      18    H12     22.476190   19.169829   21.167898 H          1 MOL1         0.1009
      19    H13     22.787137   20.807312   21.776991 H          1 MOL1         0.1009
      20    H14     21.539605   20.545620   20.542736 H          1 MOL1         0.1009
@<TRIPOS>BOND
    1     1     2    1
    2     1     3    1
    3     1     4    1
    4     1     5    1
    5     5     6    1
    6     5     7    1
    7     7     8    1
    8     7     9    1
    9     7    10    1
   10     5    11    1
   11    11    12    1
   12    11    13    1
   13    11    14    1
   14    14    15    1
   15    14    16    1
   16    14    17    1
   17    17    18    1
   18    17    19    1
   19    17    20    1
@<TRIPOS>SUBSTRUCTURE
       1 MOL1            1 RESIDUE      1      MOL     
@<SCITEGIC>MOL_PROPERTY
VConf Rank
SciTegic.value.IntegerValue
321

@<SCITEGIC>MOL_PROPERTY
Conf_Id
SciTegic.value.IntegerValue
74

@<SCITEGIC>MOL_PROPERTY
Delta U+W
SciTegic.value.DoubleValue
0.000

@<SCITEGIC>MOL_PROPERTY
U+W
SciTegic.value.DoubleValue
-36.276

@<SCITEGIC>MOL_PROPERTY
Grad RMS
SciTegic.value.DoubleValue
0.000000

@<SCITEGIC>MOL_PROPERTY
U
SciTegic.value.DoubleValue
22.080

@<SCITEGIC>MOL_PROPERTY
W
SciTegic.value.DoubleValue
-58.356

@<SCITEGIC>MOL_PROPERTY
W(PB)
SciTegic.value.DoubleValue
-60.289

@<SCITEGIC>MOL_PROPERTY
W(SA)
SciTegic.value.DoubleValue
1.932

@<SCITEGIC>MOL_PROPERTY
Valence
SciTegic.value.DoubleValue
1.885

@<SCITEGIC>MOL_PROPERTY
Coulomb
SciTegic.value.DoubleValue
19.559

@<SCITEGIC>MOL_PROPERTY
VdW
SciTegic.value.DoubleValue
0.637

@<SCITEGIC>MOL_PROPERTY
VdW6
SciTegic.value.DoubleValue
-4.482

@<SCITEGIC>MOL_PROPERTY
VdW12
SciTegic.value.DoubleValue
5.119

@<SCITEGIC>MOL_PROPERTY
Bond
SciTegic.value.DoubleValue
0.136

@<SCITEGIC>MOL_PROPERTY
Angle
SciTegic.value.DoubleValue
0.867

@<SCITEGIC>MOL_PROPERTY
Pdih
SciTegic.value.DoubleValue
0.882

@<SCITEGIC>MOL_PROPERTY
Idih
SciTegic.value.DoubleValue
0.000

@<SCITEGIC>MOL_PROPERTY
Tether
SciTegic.value.DoubleValue
0.000

@<TRIPOS>MOLECULE
guest-s10_confgen4.mol2 : confsearch ligand conformer 322
          20          19           1
SMALL
USER_CHARGES
 
@<TRIPOS>ATOM
       1    N1      18.821140   20.245803   20.944847 N.4        1 MOL1        -0.5937
       2    H1      17.962447   19.732326   20.728410 H          1 MOL1         0.3684
       3    H2      19.507894   20.012129   20.223396 H          1 MOL1         0.3684
       4    H3      18.608745   21.242683   20.851050 H          1 MOL1         0.3684
       5    C1      19.332260   19.918692   22.321155 C.3        1 MOL1         0.1270
       6    H4      18.539125   20.202577   23.019877 H          1 MOL1         0.0960
       7    C2      20.583571   20.757617   22.639312 C.3        1 MOL1        -0.2382
       8    H5      20.386560   21.823743   22.472629 H          1 MOL1         0.1009
       9    H6      21.429641   20.465227   22.005078 H          1 MOL1         0.1009
      10    H7      20.884167   20.644743   23.687227 H          1 MOL1         0.1009
      11    C3      19.592415   18.402110   22.475379 C.3        1 MOL1        -0.1392
      12    H8      18.701545   17.860117   22.131492 H          1 MOL1         0.0998
      13    H9      20.414873   18.098873   21.813972 H          1 MOL1         0.0998
      14    C4      19.902946   17.965313   23.927942 C.3        1 MOL1        -0.1302
      15    H10     19.110639   18.323644   24.600192 H          1 MOL1         0.0998
      16    H11     20.841666   18.420658   24.270531 H          1 MOL1         0.0998
      17    C5      20.020681   16.430620   24.048506 C.3        1 MOL1        -0.2317
      18    H12     19.084629   15.937490   23.755473 H          1 MOL1         0.1009
      19    H13     20.244459   16.139024   25.082906 H          1 MOL1         0.1009
      20    H14     20.825056   16.044850   23.408644 H          1 MOL1         0.1009
@<TRIPOS>BOND
    1     1     2    1
    2     1     3    1
    3     1     4    1
    4     1     5    1
    5     5     6    1
    6     5     7    1
    7     7     8    1
    8     7     9    1
    9     7    10    1
   10     5    11    1
   11    11    12    1
   12    11    13    1
   13    11    14    1
   14    14    15    1
   15    14    16    1
   16    14    17    1
   17    17    18    1
   18    17    19    1
   19    17    20    1
@<TRIPOS>SUBSTRUCTURE
       1 MOL1            1 RESIDUE      1      MOL     
@<SCITEGIC>MOL_PROPERTY
VConf Rank
SciTegic.value.IntegerValue
322

@<SCITEGIC>MOL_PROPERTY
Conf_Id
SciTegic.value.IntegerValue
80

@<SCITEGIC>MOL_PROPERTY
Delta U+W
SciTegic.value.DoubleValue
0.460

@<SCITEGIC>MOL_PROPERTY
U+W
SciTegic.value.DoubleValue
-35.817

@<SCITEGIC>MOL_PROPERTY
Grad RMS
SciTegic.value.DoubleValue
0.000000

@<SCITEGIC>MOL_PROPERTY
U
SciTegic.value.DoubleValue
22.495

@<SCITEGIC>MOL_PROPERTY
W
SciTegic.value.DoubleValue
-58.311

@<SCITEGIC>MOL_PROPERTY
W(PB)
SciTegic.value.DoubleValue
-60.259

@<SCITEGIC>MOL_PROPERTY
W(SA)
SciTegic.value.DoubleValue
1.948

@<SCITEGIC>MOL_PROPERTY
Valence
SciTegic.value.DoubleValue
2.419

@<SCITEGIC>MOL_PROPERTY
Coulomb
SciTegic.value.DoubleValue
19.304

@<SCITEGIC>MOL_PROPERTY
VdW
SciTegic.value.DoubleValue
0.772

@<SCITEGIC>MOL_PROPERTY
VdW6
SciTegic.value.DoubleValue
-4.635

@<SCITEGIC>MOL_PROPERTY
VdW12
SciTegic.value.DoubleValue
5.407

@<SCITEGIC>MOL_PROPERTY
Bond
SciTegic.value.DoubleValue
0.149

@<SCITEGIC>MOL_PROPERTY
Angle
SciTegic.value.DoubleValue
1.142

@<SCITEGIC>MOL_PROPERTY
Pdih
SciTegic.value.DoubleValue
1.129

@<SCITEGIC>MOL_PROPERTY
Idih
SciTegic.value.DoubleValue
0.000

@<SCITEGIC>MOL_PROPERTY
Tether
SciTegic.value.DoubleValue
0.000

@<TRIPOS>MOLECULE
guest-s10_confgen4.mol2 : confsearch ligand conformer 323
          20          19           1
SMALL
USER_CHARGES
 
@<TRIPOS>ATOM
       1    N1      17.378208   19.224994   22.812545 N.4        1 MOL1        -0.5937
       2    H1      17.118626   19.830162   23.596254 H          1 MOL1         0.3684
       3    H2      17.161298   18.262599   23.083531 H          1 MOL1         0.3684
       4    H3      16.765361   19.465761   22.028922 H          1 MOL1         0.3684
       5    C1      18.828594   19.381732   22.445715 C.3        1 MOL1         0.1270
       6    H4      18.962215   20.431633   22.167055 H          1 MOL1         0.0960
       7    C2      19.164230   18.515408   21.219710 C.3        1 MOL1        -0.2382
       8    H5      18.441828   18.689342   20.412848 H          1 MOL1         0.1009
       9    H6      19.145599   17.447393   21.469611 H          1 MOL1         0.1009
      10    H7      20.154951   18.764093   20.822676 H          1 MOL1         0.1009
      11    C3      19.743723   19.086930   23.659373 C.3        1 MOL1        -0.1392
      12    H8      19.405413   19.722009   24.488779 H          1 MOL1         0.0998
      13    H9      19.602053   18.052354   23.998947 H          1 MOL1         0.0998
      14    C4      21.250983   19.374640   23.429081 C.3        1 MOL1        -0.1302
      15    H10     21.675980   19.780634   24.357879 H          1 MOL1         0.0998
      16    H11     21.378679   20.160458   22.671355 H          1 MOL1         0.0998
      17    C5      22.065247   18.117037   23.043799 C.3        1 MOL1        -0.2317
      18    H12     22.004829   17.354594   23.831294 H          1 MOL1         0.1009
      19    H13     23.124453   18.371803   22.909043 H          1 MOL1         0.1009
      20    H14     21.711566   17.665484   22.110230 H          1 MOL1         0.1009
@<TRIPOS>BOND
    1     1     2    1
    2     1     3    1
    3     1     4    1
    4     1     5    1
    5     5     6    1
    6     5     7    1
    7     7     8    1
    8     7     9    1
    9     7    10    1
   10     5    11    1
   11    11    12    1
   12    11    13    1
   13    11    14    1
   14    14    15    1
   15    14    16    1
   16    14    17    1
   17    17    18    1
   18    17    19    1
   19    17    20    1
@<TRIPOS>SUBSTRUCTURE
       1 MOL1            1 RESIDUE      1      MOL     
@<SCITEGIC>MOL_PROPERTY
VConf Rank
SciTegic.value.IntegerValue
323

@<SCITEGIC>MOL_PROPERTY
Conf_Id
SciTegic.value.IntegerValue
52

@<SCITEGIC>MOL_PROPERTY
Delta U+W
SciTegic.value.DoubleValue
2.995

@<SCITEGIC>MOL_PROPERTY
U+W
SciTegic.value.DoubleValue
-33.282

@<SCITEGIC>MOL_PROPERTY
Grad RMS
SciTegic.value.DoubleValue
0.000000

@<SCITEGIC>MOL_PROPERTY
U
SciTegic.value.DoubleValue
25.224

@<SCITEGIC>MOL_PROPERTY
W
SciTegic.value.DoubleValue
-58.506

@<SCITEGIC>MOL_PROPERTY
W(PB)
SciTegic.value.DoubleValue
-60.411

@<SCITEGIC>MOL_PROPERTY
W(SA)
SciTegic.value.DoubleValue
1.905

@<SCITEGIC>MOL_PROPERTY
Valence
SciTegic.value.DoubleValue
4.945

@<SCITEGIC>MOL_PROPERTY
Coulomb
SciTegic.value.DoubleValue
19.467

@<SCITEGIC>MOL_PROPERTY
VdW
SciTegic.value.DoubleValue
0.813

@<SCITEGIC>MOL_PROPERTY
VdW6
SciTegic.value.DoubleValue
-5.458

@<SCITEGIC>MOL_PROPERTY
VdW12
SciTegic.value.DoubleValue
6.270

@<SCITEGIC>MOL_PROPERTY
Bond
SciTegic.value.DoubleValue
0.200

@<SCITEGIC>MOL_PROPERTY
Angle
SciTegic.value.DoubleValue
1.675

@<SCITEGIC>MOL_PROPERTY
Pdih
SciTegic.value.DoubleValue
3.070

@<SCITEGIC>MOL_PROPERTY
Idih
SciTegic.value.DoubleValue
0.000

@<SCITEGIC>MOL_PROPERTY
Tether
SciTegic.value.DoubleValue
0.000

@<TRIPOS>MOLECULE
guest-s10_confgen4.mol2 : confsearch ligand conformer 324
          20          19           1
SMALL
USER_CHARGES
 
@<TRIPOS>ATOM
       1    N1      20.315015   20.209880   21.800999 N.4        1 MOL1        -0.5937
       2    H1      21.240959   20.424738   22.178941 H          1 MOL1         0.3684
       3    H2      20.005103   21.026637   21.267604 H          1 MOL1         0.3684
       4    H3      20.425314   19.435034   21.143403 H          1 MOL1         0.3684
       5    C1      19.342802   19.863182   22.895464 C.3        1 MOL1         0.1270
       6    H4      18.370750   19.694901   22.421617 H          1 MOL1         0.0960
       7    C2      19.205788   21.048491   23.866045 C.3        1 MOL1        -0.2382
       8    H5      20.152687   21.250634   24.382164 H          1 MOL1         0.1009
       9    H6      18.439353   20.846392   24.624582 H          1 MOL1         0.1009
      10    H7      18.907855   21.957792   23.329627 H          1 MOL1         0.1009
      11    C3      19.737595   18.579537   23.663989 C.3        1 MOL1        -0.1392
      12    H8      20.801389   18.616599   23.933328 H          1 MOL1         0.0998
      13    H9      19.188396   18.558036   24.614779 H          1 MOL1         0.0998
      14    C4      19.419954   17.254237   22.922847 C.3        1 MOL1        -0.1302
      15    H10     18.345102   17.203752   22.698843 H          1 MOL1         0.0998
      16    H11     19.625011   16.420740   23.609330 H          1 MOL1         0.0998
      17    C5      20.228477   17.025842   21.625414 C.3        1 MOL1        -0.2317
      18    H12     20.098763   15.993505   21.275068 H          1 MOL1         0.1009
      19    H13     21.301797   17.188160   21.789594 H          1 MOL1         0.1009
      20    H14     19.888281   17.682179   20.816138 H          1 MOL1         0.1009
@<TRIPOS>BOND
    1     1     2    1
    2     1     3    1
    3     1     4    1
    4     1     5    1
    5     5     6    1
    6     5     7    1
    7     7     8    1
    8     7     9    1
    9     7    10    1
   10     5    11    1
   11    11    12    1
   12    11    13    1
   13    11    14    1
   14    14    15    1
   15    14    16    1
   16    14    17    1
   17    17    18    1
   18    17    19    1
   19    17    20    1
@<TRIPOS>SUBSTRUCTURE
       1 MOL1            1 RESIDUE      1      MOL     
@<SCITEGIC>MOL_PROPERTY
VConf Rank
SciTegic.value.IntegerValue
324

@<SCITEGIC>MOL_PROPERTY
Conf_Id
SciTegic.value.IntegerValue
54

@<SCITEGIC>MOL_PROPERTY
Delta U+W
SciTegic.value.DoubleValue
2.752

@<SCITEGIC>MOL_PROPERTY
U+W
SciTegic.value.DoubleValue
-33.525

@<SCITEGIC>MOL_PROPERTY
Grad RMS
SciTegic.value.DoubleValue
0.000000

@<SCITEGIC>MOL_PROPERTY
U
SciTegic.value.DoubleValue
24.337

@<SCITEGIC>MOL_PROPERTY
W
SciTegic.value.DoubleValue
-57.862

@<SCITEGIC>MOL_PROPERTY
W(PB)
SciTegic.value.DoubleValue
-59.764

@<SCITEGIC>MOL_PROPERTY
W(SA)
SciTegic.value.DoubleValue
1.901

@<SCITEGIC>MOL_PROPERTY
Valence
SciTegic.value.DoubleValue
3.593

@<SCITEGIC>MOL_PROPERTY
Coulomb
SciTegic.value.DoubleValue
20.067

@<SCITEGIC>MOL_PROPERTY
VdW
SciTegic.value.DoubleValue
0.677

@<SCITEGIC>MOL_PROPERTY
VdW6
SciTegic.value.DoubleValue
-5.466

@<SCITEGIC>MOL_PROPERTY
VdW12
SciTegic.value.DoubleValue
6.144

@<SCITEGIC>MOL_PROPERTY
Bond
SciTegic.value.DoubleValue
0.191

@<SCITEGIC>MOL_PROPERTY
Angle
SciTegic.value.DoubleValue
1.557

@<SCITEGIC>MOL_PROPERTY
Pdih
SciTegic.value.DoubleValue
1.845

@<SCITEGIC>MOL_PROPERTY
Idih
SciTegic.value.DoubleValue
0.000

@<SCITEGIC>MOL_PROPERTY
Tether
SciTegic.value.DoubleValue
0.000

@<TRIPOS>MOLECULE
guest-s10_confgen4.mol2 : confsearch ligand conformer 325
          20          19           1
SMALL
USER_CHARGES
 
@<TRIPOS>ATOM
       1    N1      18.489118   20.209279   23.739970 N.4        1 MOL1        -0.5937
       2    H1      17.541969   20.596254   23.768503 H          1 MOL1         0.3684
       3    H2      19.114337   20.905806   24.154291 H          1 MOL1         0.3684
       4    H3      18.501000   19.386174   24.346440 H          1 MOL1         0.3684
       5    C1      18.900411   19.863071   22.334671 C.3        1 MOL1         0.1270
       6    H4      18.840353   20.794846   21.763521 H          1 MOL1         0.0960
       7    C2      17.914817   18.865873   21.699815 C.3        1 MOL1        -0.2382
       8    H5      18.219076   18.614698   20.676189 H          1 MOL1         0.1009
       9    H6      16.908834   19.300141   21.649847 H          1 MOL1         0.1009
      10    H7      17.849309   17.936098   22.277111 H          1 MOL1         0.1009
      11    C3      20.364258   19.368011   22.250296 C.3        1 MOL1        -0.1392
      12    H8      20.626559   19.220485   21.194279 H          1 MOL1         0.0998
      13    H9      21.022479   20.167485   22.614979 H          1 MOL1         0.0998
      14    C4      20.661323   18.065857   23.038007 C.3        1 MOL1        -0.1302
      15    H10     20.048535   17.240144   22.652388 H          1 MOL1         0.0998
      16    H11     20.395346   18.193437   24.095902 H          1 MOL1         0.0998
      17    C5      22.150366   17.670759   22.938120 C.3        1 MOL1        -0.2317
      18    H12     22.344831   16.746910   23.498256 H          1 MOL1         0.1009
      19    H13     22.796540   18.456456   23.350866 H          1 MOL1         0.1009
      20    H14     22.444617   17.499519   21.894417 H          1 MOL1         0.1009
@<TRIPOS>BOND
    1     1     2    1
    2     1     3    1
    3     1     4    1
    4     1     5    1
    5     5     6    1
    6     5     7    1
    7     7     8    1
    8     7     9    1
    9     7    10    1
   10     5    11    1
   11    11    12    1
   12    11    13    1
   13    11    14    1
   14    14    15    1
   15    14    16    1
   16    14    17    1
   17    17    18    1
   18    17    19    1
   19    17    20    1
@<TRIPOS>SUBSTRUCTURE
       1 MOL1            1 RESIDUE      1      MOL     
@<SCITEGIC>MOL_PROPERTY
VConf Rank
SciTegic.value.IntegerValue
325

@<SCITEGIC>MOL_PROPERTY
Conf_Id
SciTegic.value.IntegerValue
63

@<SCITEGIC>MOL_PROPERTY
Delta U+W
SciTegic.value.DoubleValue
0.420

@<SCITEGIC>MOL_PROPERTY
U+W
SciTegic.value.DoubleValue
-35.856

@<SCITEGIC>MOL_PROPERTY
Grad RMS
SciTegic.value.DoubleValue
0.000000

@<SCITEGIC>MOL_PROPERTY
U
SciTegic.value.DoubleValue
22.625

@<SCITEGIC>MOL_PROPERTY
W
SciTegic.value.DoubleValue
-58.481

@<SCITEGIC>MOL_PROPERTY
W(PB)
SciTegic.value.DoubleValue
-60.400

@<SCITEGIC>MOL_PROPERTY
W(SA)
SciTegic.value.DoubleValue
1.919

@<SCITEGIC>MOL_PROPERTY
Valence
SciTegic.value.DoubleValue
2.404

@<SCITEGIC>MOL_PROPERTY
Coulomb
SciTegic.value.DoubleValue
19.464

@<SCITEGIC>MOL_PROPERTY
VdW
SciTegic.value.DoubleValue
0.757

@<SCITEGIC>MOL_PROPERTY
VdW6
SciTegic.value.DoubleValue
-5.074

@<SCITEGIC>MOL_PROPERTY
VdW12
SciTegic.value.DoubleValue
5.830

@<SCITEGIC>MOL_PROPERTY
Bond
SciTegic.value.DoubleValue
0.172

@<SCITEGIC>MOL_PROPERTY
Angle
SciTegic.value.DoubleValue
1.207

@<SCITEGIC>MOL_PROPERTY
Pdih
SciTegic.value.DoubleValue
1.025

@<SCITEGIC>MOL_PROPERTY
Idih
SciTegic.value.DoubleValue
0.000

@<SCITEGIC>MOL_PROPERTY
Tether
SciTegic.value.DoubleValue
0.000

@<TRIPOS>MOLECULE
guest-s10_confgen4.mol2 : confsearch ligand conformer 326
          20          19           1
SMALL
USER_CHARGES
 
@<TRIPOS>ATOM
       1    N1      19.887154   18.792659   24.511441 N.4        1 MOL1        -0.5937
       2    H1      19.163516   19.512847   24.578901 H          1 MOL1         0.3684
       3    H2      20.769109   19.212777   24.814884 H          1 MOL1         0.3684
       4    H3      19.650944   18.057986   25.183752 H          1 MOL1         0.3684
       5    C1      19.988408   18.248660   23.112158 C.3        1 MOL1         0.1270
       6    H4      19.011760   17.818860   22.870164 H          1 MOL1         0.0960
       7    C2      21.035979   17.125728   23.040522 C.3        1 MOL1        -0.2382
       8    H5      20.794072   16.323189   23.748088 H          1 MOL1         0.1009
       9    H6      22.038653   17.501439   23.279768 H          1 MOL1         0.1009
      10    H7      21.066968   16.685154   22.036254 H          1 MOL1         0.1009
      11    C3      20.305408   19.347405   22.072326 C.3        1 MOL1        -0.1392
      12    H8      21.290992   19.780473   22.288911 H          1 MOL1         0.0998
      13    H9      20.384829   18.886619   21.078698 H          1 MOL1         0.0998
      14    C4      19.254644   20.484898   22.009853 C.3        1 MOL1        -0.1302
      15    H10     19.569050   21.213872   21.249821 H          1 MOL1         0.0998
      16    H11     19.230757   21.032940   22.961507 H          1 MOL1         0.0998
      17    C5      17.835389   19.980328   21.662735 C.3        1 MOL1        -0.2317
      18    H12     17.834056   19.428521   20.713689 H          1 MOL1         0.1009
      19    H13     17.141671   20.824811   21.559430 H          1 MOL1         0.1009
      20    H14     17.437998   19.319968   22.443697 H          1 MOL1         0.1009
@<TRIPOS>BOND
    1     1     2    1
    2     1     3    1
    3     1     4    1
    4     1     5    1
    5     5     6    1
    6     5     7    1
    7     7     8    1
    8     7     9    1
    9     7    10    1
   10     5    11    1
   11    11    12    1
   12    11    13    1
   13    11    14    1
   14    14    15    1
   15    14    16    1
   16    14    17    1
   17    17    18    1
   18    17    19    1
   19    17    20    1
@<TRIPOS>SUBSTRUCTURE
       1 MOL1            1 RESIDUE      1      MOL     
@<SCITEGIC>MOL_PROPERTY
VConf Rank
SciTegic.value.IntegerValue
326

@<SCITEGIC>MOL_PROPERTY
Conf_Id
SciTegic.value.IntegerValue
50

@<SCITEGIC>MOL_PROPERTY
Delta U+W
SciTegic.value.DoubleValue
0.466

@<SCITEGIC>MOL_PROPERTY
U+W
SciTegic.value.DoubleValue
-35.811

@<SCITEGIC>MOL_PROPERTY
Grad RMS
SciTegic.value.DoubleValue
0.000000

@<SCITEGIC>MOL_PROPERTY
U
SciTegic.value.DoubleValue
22.369

@<SCITEGIC>MOL_PROPERTY
W
SciTegic.value.DoubleValue
-58.180

@<SCITEGIC>MOL_PROPERTY
W(PB)
SciTegic.value.DoubleValue
-60.103

@<SCITEGIC>MOL_PROPERTY
W(SA)
SciTegic.value.DoubleValue
1.923

@<SCITEGIC>MOL_PROPERTY
Valence
SciTegic.value.DoubleValue
2.168

@<SCITEGIC>MOL_PROPERTY
Coulomb
SciTegic.value.DoubleValue
19.636

@<SCITEGIC>MOL_PROPERTY
VdW
SciTegic.value.DoubleValue
0.566

@<SCITEGIC>MOL_PROPERTY
VdW6
SciTegic.value.DoubleValue
-5.263

@<SCITEGIC>MOL_PROPERTY
VdW12
SciTegic.value.DoubleValue
5.829

@<SCITEGIC>MOL_PROPERTY
Bond
SciTegic.value.DoubleValue
0.162

@<SCITEGIC>MOL_PROPERTY
Angle
SciTegic.value.DoubleValue
1.066

@<SCITEGIC>MOL_PROPERTY
Pdih
SciTegic.value.DoubleValue
0.939

@<SCITEGIC>MOL_PROPERTY
Idih
SciTegic.value.DoubleValue
0.000

@<SCITEGIC>MOL_PROPERTY
Tether
SciTegic.value.DoubleValue
0.000

@<TRIPOS>MOLECULE
guest-s10_confgen4.mol2 : confsearch ligand conformer 327
          20          19           1
SMALL
USER_CHARGES
 
@<TRIPOS>ATOM
       1    N1      18.720006   19.952953   24.567162 N.4        1 MOL1        -0.5937
       2    H1      18.733172   19.254255   25.315256 H          1 MOL1         0.3684
       3    H2      17.741408   20.118223   24.318359 H          1 MOL1         0.3684
       4    H3      19.085068   20.824325   24.961085 H          1 MOL1         0.3684
       5    C1      19.525334   19.506807   23.376792 C.3        1 MOL1         0.1270
       6    H4      20.546404   19.353786   23.739781 H          1 MOL1         0.0960
       7    C2      19.542410   20.614715   22.307114 C.3        1 MOL1        -0.2382
       8    H5      18.528864   20.833731   21.948753 H          1 MOL1         0.1009
       9    H6      20.150657   20.330007   21.441801 H          1 MOL1         0.1009
      10    H7      19.964123   21.540685   22.716829 H          1 MOL1         0.1009
      11    C3      19.011968   18.163557   22.802017 C.3        1 MOL1        -0.1392
      12    H8      18.377663   17.671167   23.550938 H          1 MOL1         0.0998
      13    H9      18.361823   18.340784   21.934887 H          1 MOL1         0.0998
      14    C4      20.140138   17.169086   22.427797 C.3        1 MOL1        -0.1302
      15    H10     19.681693   16.223567   22.105688 H          1 MOL1         0.0998
      16    H11     20.732217   16.931526   23.322832 H          1 MOL1         0.0998
      17    C5      21.080509   17.671333   21.309902 C.3        1 MOL1        -0.2317
      18    H12     20.514003   17.957951   20.414386 H          1 MOL1         0.1009
      19    H13     21.787196   16.882767   21.020424 H          1 MOL1         0.1009
      20    H14     21.671024   18.534820   21.640525 H          1 MOL1         0.1009
@<TRIPOS>BOND
    1     1     2    1
    2     1     3    1
    3     1     4    1
    4     1     5    1
    5     5     6    1
    6     5     7    1
    7     7     8    1
    8     7     9    1
    9     7    10    1
   10     5    11    1
   11    11    12    1
   12    11    13    1
   13    11    14    1
   14    14    15    1
   15    14    16    1
   16    14    17    1
   17    17    18    1
   18    17    19    1
   19    17    20    1
@<TRIPOS>SUBSTRUCTURE
       1 MOL1            1 RESIDUE      1      MOL     
@<SCITEGIC>MOL_PROPERTY
VConf Rank
SciTegic.value.IntegerValue
327

@<SCITEGIC>MOL_PROPERTY
Conf_Id
SciTegic.value.IntegerValue
3

@<SCITEGIC>MOL_PROPERTY
Delta U+W
SciTegic.value.DoubleValue
3.093

@<SCITEGIC>MOL_PROPERTY
U+W
SciTegic.value.DoubleValue
-33.184

@<SCITEGIC>MOL_PROPERTY
Grad RMS
SciTegic.value.DoubleValue
0.000000

@<SCITEGIC>MOL_PROPERTY
U
SciTegic.value.DoubleValue
25.256

@<SCITEGIC>MOL_PROPERTY
W
SciTegic.value.DoubleValue
-58.439

@<SCITEGIC>MOL_PROPERTY
W(PB)
SciTegic.value.DoubleValue
-60.337

@<SCITEGIC>MOL_PROPERTY
W(SA)
SciTegic.value.DoubleValue
1.898

@<SCITEGIC>MOL_PROPERTY
Valence
SciTegic.value.DoubleValue
4.963

@<SCITEGIC>MOL_PROPERTY
Coulomb
SciTegic.value.DoubleValue
19.511

@<SCITEGIC>MOL_PROPERTY
VdW
SciTegic.value.DoubleValue
0.782

@<SCITEGIC>MOL_PROPERTY
VdW6
SciTegic.value.DoubleValue
-5.429

@<SCITEGIC>MOL_PROPERTY
VdW12
SciTegic.value.DoubleValue
6.211

@<SCITEGIC>MOL_PROPERTY
Bond
SciTegic.value.DoubleValue
0.174

@<SCITEGIC>MOL_PROPERTY
Angle
SciTegic.value.DoubleValue
1.377

@<SCITEGIC>MOL_PROPERTY
Pdih
SciTegic.value.DoubleValue
3.412

@<SCITEGIC>MOL_PROPERTY
Idih
SciTegic.value.DoubleValue
0.000

@<SCITEGIC>MOL_PROPERTY
Tether
SciTegic.value.DoubleValue
0.000

@<TRIPOS>MOLECULE
guest-s10_confgen4.mol2 : confsearch ligand conformer 328
          20          19           1
SMALL
USER_CHARGES
 
@<TRIPOS>ATOM
       1    N1      18.794527   18.177477   20.802607 N.4        1 MOL1        -0.5937
       2    H1      17.948598   17.603082   20.756672 H          1 MOL1         0.3684
       3    H2      19.556559   17.626262   20.398505 H          1 MOL1         0.3684
       4    H3      18.645827   18.986608   20.194430 H          1 MOL1         0.3684
       5    C1      19.100117   18.596217   22.214575 C.3        1 MOL1         0.1270
       6    H4      19.238287   17.672870   22.785044 H          1 MOL1         0.0960
       7    C2      17.908939   19.364896   22.814848 C.3        1 MOL1        -0.2382
       8    H5      18.056942   19.555775   23.884051 H          1 MOL1         0.1009
       9    H6      16.983727   18.784417   22.714041 H          1 MOL1         0.1009
      10    H7      17.763059   20.328113   22.310447 H          1 MOL1         0.1009
      11    C3      20.413067   19.412080   22.285000 C.3        1 MOL1        -0.1392
      12    H8      21.204283   18.849353   21.772320 H          1 MOL1         0.0998
      13    H9      20.290703   20.346784   21.721891 H          1 MOL1         0.0998
      14    C4      20.901774   19.744686   23.718053 C.3        1 MOL1        -0.1302
      15    H10     20.193019   20.420062   24.215853 H          1 MOL1         0.0998
      16    H11     21.846836   20.301167   23.647155 H          1 MOL1         0.0998
      17    C5      21.125275   18.487469   24.589031 C.3        1 MOL1        -0.2317
      18    H12     21.829375   17.794935   24.109659 H          1 MOL1         0.1009
      19    H13     20.185676   17.950749   24.771099 H          1 MOL1         0.1009
      20    H14     21.541718   18.765464   25.565920 H          1 MOL1         0.1009
@<TRIPOS>BOND
    1     1     2    1
    2     1     3    1
    3     1     4    1
    4     1     5    1
    5     5     6    1
    6     5     7    1
    7     7     8    1
    8     7     9    1
    9     7    10    1
   10     5    11    1
   11    11    12    1
   12    11    13    1
   13    11    14    1
   14    14    15    1
   15    14    16    1
   16    14    17    1
   17    17    18    1
   18    17    19    1
   19    17    20    1
@<TRIPOS>SUBSTRUCTURE
       1 MOL1            1 RESIDUE      1      MOL     
@<SCITEGIC>MOL_PROPERTY
VConf Rank
SciTegic.value.IntegerValue
328

@<SCITEGIC>MOL_PROPERTY
Conf_Id
SciTegic.value.IntegerValue
64

@<SCITEGIC>MOL_PROPERTY
Delta U+W
SciTegic.value.DoubleValue
0.544

@<SCITEGIC>MOL_PROPERTY
U+W
SciTegic.value.DoubleValue
-35.732

@<SCITEGIC>MOL_PROPERTY
Grad RMS
SciTegic.value.DoubleValue
0.000000

@<SCITEGIC>MOL_PROPERTY
U
SciTegic.value.DoubleValue
22.800

@<SCITEGIC>MOL_PROPERTY
W
SciTegic.value.DoubleValue
-58.532

@<SCITEGIC>MOL_PROPERTY
W(PB)
SciTegic.value.DoubleValue
-60.437

@<SCITEGIC>MOL_PROPERTY
W(SA)
SciTegic.value.DoubleValue
1.905

@<SCITEGIC>MOL_PROPERTY
Valence
SciTegic.value.DoubleValue
2.662

@<SCITEGIC>MOL_PROPERTY
Coulomb
SciTegic.value.DoubleValue
19.485

@<SCITEGIC>MOL_PROPERTY
VdW
SciTegic.value.DoubleValue
0.653

@<SCITEGIC>MOL_PROPERTY
VdW6
SciTegic.value.DoubleValue
-5.460

@<SCITEGIC>MOL_PROPERTY
VdW12
SciTegic.value.DoubleValue
6.113

@<SCITEGIC>MOL_PROPERTY
Bond
SciTegic.value.DoubleValue
0.174

@<SCITEGIC>MOL_PROPERTY
Angle
SciTegic.value.DoubleValue
1.378

@<SCITEGIC>MOL_PROPERTY
Pdih
SciTegic.value.DoubleValue
1.109

@<SCITEGIC>MOL_PROPERTY
Idih
SciTegic.value.DoubleValue
0.000

@<SCITEGIC>MOL_PROPERTY
Tether
SciTegic.value.DoubleValue
0.000

@<TRIPOS>MOLECULE
guest-s10_confgen4.mol2 : confsearch ligand conformer 329
          20          19           1
SMALL
USER_CHARGES
 
@<TRIPOS>ATOM
       1    N1      21.893965   19.011647   22.632315 N.4        1 MOL1        -0.5937
       2    H1      21.670595   19.776706   23.272678 H          1 MOL1         0.3684
       3    H2      22.568191   19.370421   21.950910 H          1 MOL1         0.3684
       4    H3      22.368534   18.285208   23.175205 H          1 MOL1         0.3684
       5    C1      20.658692   18.480041   21.956794 C.3        1 MOL1         0.1270
       6    H4      21.001730   17.681652   21.291315 H          1 MOL1         0.0960
       7    C2      20.005878   19.560477   21.079175 C.3        1 MOL1        -0.2382
       8    H5      19.756944   20.454895   21.662061 H          1 MOL1         0.1009
       9    H6      19.089132   19.182150   20.610364 H          1 MOL1         0.1009
      10    H7      20.688301   19.865449   20.276515 H          1 MOL1         0.1009
      11    C3      19.668521   17.837021   22.960301 C.3        1 MOL1        -0.1392
      12    H8      18.877234   17.314350   22.406970 H          1 MOL1         0.0998
      13    H9      20.212177   17.049214   23.498147 H          1 MOL1         0.0998
      14    C4      19.034743   18.793490   24.008498 C.3        1 MOL1        -0.1302
      15    H10     19.722745   19.611588   24.258994 H          1 MOL1         0.0998
      16    H11     18.884352   18.233015   24.941897 H          1 MOL1         0.0998
      17    C5      17.664012   19.364480   23.575122 C.3        1 MOL1        -0.2317
      18    H12     17.738496   19.977109   22.670073 H          1 MOL1         0.1009
      19    H13     17.244219   19.996700   24.368241 H          1 MOL1         0.1009
      20    H14     16.946152   18.557330   23.379601 H          1 MOL1         0.1009
@<TRIPOS>BOND
    1     1     2    1
    2     1     3    1
    3     1     4    1
    4     1     5    1
    5     5     6    1
    6     5     7    1
    7     7     8    1
    8     7     9    1
    9     7    10    1
   10     5    11    1
   11    11    12    1
   12    11    13    1
   13    11    14    1
   14    14    15    1
   15    14    16    1
   16    14    17    1
   17    17    18    1
   18    17    19    1
   19    17    20    1
@<TRIPOS>SUBSTRUCTURE
       1 MOL1            1 RESIDUE      1      MOL     
@<SCITEGIC>MOL_PROPERTY
VConf Rank
SciTegic.value.IntegerValue
329

@<SCITEGIC>MOL_PROPERTY
Conf_Id
SciTegic.value.IntegerValue
35

@<SCITEGIC>MOL_PROPERTY
Delta U+W
SciTegic.value.DoubleValue
3.004

@<SCITEGIC>MOL_PROPERTY
U+W
SciTegic.value.DoubleValue
-33.272

@<SCITEGIC>MOL_PROPERTY
Grad RMS
SciTegic.value.DoubleValue
0.000000

@<SCITEGIC>MOL_PROPERTY
U
SciTegic.value.DoubleValue
25.367

@<SCITEGIC>MOL_PROPERTY
W
SciTegic.value.DoubleValue
-58.639

@<SCITEGIC>MOL_PROPERTY
W(PB)
SciTegic.value.DoubleValue
-60.512

@<SCITEGIC>MOL_PROPERTY
W(SA)
SciTegic.value.DoubleValue
1.873

@<SCITEGIC>MOL_PROPERTY
Valence
SciTegic.value.DoubleValue
4.943

@<SCITEGIC>MOL_PROPERTY
Coulomb
SciTegic.value.DoubleValue
19.661

@<SCITEGIC>MOL_PROPERTY
VdW
SciTegic.value.DoubleValue
0.764

@<SCITEGIC>MOL_PROPERTY
VdW6
SciTegic.value.DoubleValue
-5.871

@<SCITEGIC>MOL_PROPERTY
VdW12
SciTegic.value.DoubleValue
6.636

@<SCITEGIC>MOL_PROPERTY
Bond
SciTegic.value.DoubleValue
0.230

@<SCITEGIC>MOL_PROPERTY
Angle
SciTegic.value.DoubleValue
1.857

@<SCITEGIC>MOL_PROPERTY
Pdih
SciTegic.value.DoubleValue
2.855

@<SCITEGIC>MOL_PROPERTY
Idih
SciTegic.value.DoubleValue
0.000

@<SCITEGIC>MOL_PROPERTY
Tether
SciTegic.value.DoubleValue
0.000

@<TRIPOS>MOLECULE
guest-s10_confgen4.mol2 : confsearch ligand conformer 330
          20          19           1
SMALL
USER_CHARGES
 
@<TRIPOS>ATOM
       1    N1      21.131134   18.680863   23.852988 N.4        1 MOL1        -0.5937
       2    H1      21.438879   17.947645   24.497414 H          1 MOL1         0.3684
       3    H2      21.604933   19.545744   24.126988 H          1 MOL1         0.3684
       4    H3      21.463592   18.432519   22.919289 H          1 MOL1         0.3684
       5    C1      19.635761   18.841801   23.873514 C.3        1 MOL1         0.1270
       6    H4      19.389941   19.129609   24.900483 H          1 MOL1         0.0960
       7    C2      18.923471   17.507602   23.588793 C.3        1 MOL1        -0.2382
       8    H5      19.196150   17.104632   22.606166 H          1 MOL1         0.1009
       9    H6      17.834205   17.634126   23.619000 H          1 MOL1         0.1009
      10    H7      19.192421   16.759526   24.344449 H          1 MOL1         0.1009
      11    C3      19.135536   19.986418   22.955396 C.3        1 MOL1        -0.1392
      12    H8      18.111646   20.236042   23.263421 H          1 MOL1         0.0998
      13    H9      19.727777   20.888498   23.157187 H          1 MOL1         0.0998
      14    C4      19.118199   19.716639   21.424542 C.3        1 MOL1        -0.1302
      15    H10     18.698038   20.602907   20.928743 H          1 MOL1         0.0998
      16    H11     18.428875   18.894042   21.190449 H          1 MOL1         0.0998
      17    C5      20.503930   19.425895   20.804752 C.3        1 MOL1        -0.2317
      18    H12     21.237777   20.189433   21.093919 H          1 MOL1         0.1009
      19    H13     20.437561   19.426861   19.708958 H          1 MOL1         0.1009
      20    H14     20.880782   18.440743   21.102621 H          1 MOL1         0.1009
@<TRIPOS>BOND
    1     1     2    1
    2     1     3    1
    3     1     4    1
    4     1     5    1
    5     5     6    1
    6     5     7    1
    7     7     8    1
    8     7     9    1
    9     7    10    1
   10     5    11    1
   11    11    12    1
   12    11    13    1
   13    11    14    1
   14    14    15    1
   15    14    16    1
   16    14    17    1
   17    17    18    1
   18    17    19    1
   19    17    20    1
@<TRIPOS>SUBSTRUCTURE
       1 MOL1            1 RESIDUE      1      MOL     
@<SCITEGIC>MOL_PROPERTY
VConf Rank
SciTegic.value.IntegerValue
330

@<SCITEGIC>MOL_PROPERTY
Conf_Id
SciTegic.value.IntegerValue
55

@<SCITEGIC>MOL_PROPERTY
Delta U+W
SciTegic.value.DoubleValue
2.767

@<SCITEGIC>MOL_PROPERTY
U+W
SciTegic.value.DoubleValue
-33.509

@<SCITEGIC>MOL_PROPERTY
Grad RMS
SciTegic.value.DoubleValue
0.000000

@<SCITEGIC>MOL_PROPERTY
U
SciTegic.value.DoubleValue
24.552

@<SCITEGIC>MOL_PROPERTY
W
SciTegic.value.DoubleValue
-58.061

@<SCITEGIC>MOL_PROPERTY
W(PB)
SciTegic.value.DoubleValue
-59.930

@<SCITEGIC>MOL_PROPERTY
W(SA)
SciTegic.value.DoubleValue
1.869

@<SCITEGIC>MOL_PROPERTY
Valence
SciTegic.value.DoubleValue
3.726

@<SCITEGIC>MOL_PROPERTY
Coulomb
SciTegic.value.DoubleValue
20.219

@<SCITEGIC>MOL_PROPERTY
VdW
SciTegic.value.DoubleValue
0.606

@<SCITEGIC>MOL_PROPERTY
VdW6
SciTegic.value.DoubleValue
-6.395

@<SCITEGIC>MOL_PROPERTY
VdW12
SciTegic.value.DoubleValue
7.001

@<SCITEGIC>MOL_PROPERTY
Bond
SciTegic.value.DoubleValue
0.241

@<SCITEGIC>MOL_PROPERTY
Angle
SciTegic.value.DoubleValue
2.098

@<SCITEGIC>MOL_PROPERTY
Pdih
SciTegic.value.DoubleValue
1.387

@<SCITEGIC>MOL_PROPERTY
Idih
SciTegic.value.DoubleValue
0.000

@<SCITEGIC>MOL_PROPERTY
Tether
SciTegic.value.DoubleValue
0.000

@<TRIPOS>MOLECULE
guest-s10_confgen4.mol2 : confsearch ligand conformer 331
          20          19           1
SMALL
USER_CHARGES
 
@<TRIPOS>ATOM
       1    N1      18.389161   17.916009   23.701339 N.4        1 MOL1        -0.5937
       2    H1      19.012408   17.188237   24.059747 H          1 MOL1         0.3684
       3    H2      17.444867   17.522131   23.672599 H          1 MOL1         0.3684
       4    H3      18.379987   18.677162   24.384818 H          1 MOL1         0.3684
       5    C1      18.826660   18.397470   22.344191 C.3        1 MOL1         0.1270
       6    H4      18.114249   19.170519   22.039639 H          1 MOL1         0.0960
       7    C2      18.762708   17.253530   21.318872 C.3        1 MOL1        -0.2382
       8    H5      17.752151   16.829398   21.272506 H          1 MOL1         0.1009
       9    H6      19.460085   16.447371   21.578807 H          1 MOL1         0.1009
      10    H7      19.017477   17.614871   20.314798 H          1 MOL1         0.1009
      11    C3      20.238896   19.023073   22.363197 C.3        1 MOL1        -0.1392
      12    H8      20.971419   18.272703   22.689188 H          1 MOL1         0.0998
      13    H9      20.515089   19.305158   21.338397 H          1 MOL1         0.0998
      14    C4      20.334588   20.275136   23.268017 C.3        1 MOL1        -0.1302
      15    H10     20.117301   20.007619   24.310921 H          1 MOL1         0.0998
      16    H11     19.576783   21.010845   22.963541 H          1 MOL1         0.0998
      17    C5      21.733738   20.923747   23.197396 C.3        1 MOL1        -0.2317
      18    H12     22.511507   20.221736   23.525285 H          1 MOL1         0.1009
      19    H13     21.784152   21.808400   23.845418 H          1 MOL1         0.1009
      20    H14     21.970780   21.242809   22.174047 H          1 MOL1         0.1009
@<TRIPOS>BOND
    1     1     2    1
    2     1     3    1
    3     1     4    1
    4     1     5    1
    5     5     6    1
    6     5     7    1
    7     7     8    1
    8     7     9    1
    9     7    10    1
   10     5    11    1
   11    11    12    1
   12    11    13    1
   13    11    14    1
   14    14    15    1
   15    14    16    1
   16    14    17    1
   17    17    18    1
   18    17    19    1
   19    17    20    1
@<TRIPOS>SUBSTRUCTURE
       1 MOL1            1 RESIDUE      1      MOL     
@<SCITEGIC>MOL_PROPERTY
VConf Rank
SciTegic.value.IntegerValue
331

@<SCITEGIC>MOL_PROPERTY
Conf_Id
SciTegic.value.IntegerValue
74

@<SCITEGIC>MOL_PROPERTY
Delta U+W
SciTegic.value.DoubleValue
0.000

@<SCITEGIC>MOL_PROPERTY
U+W
SciTegic.value.DoubleValue
-36.276

@<SCITEGIC>MOL_PROPERTY
Grad RMS
SciTegic.value.DoubleValue
0.000000

@<SCITEGIC>MOL_PROPERTY
U
SciTegic.value.DoubleValue
22.080

@<SCITEGIC>MOL_PROPERTY
W
SciTegic.value.DoubleValue
-58.356

@<SCITEGIC>MOL_PROPERTY
W(PB)
SciTegic.value.DoubleValue
-60.289

@<SCITEGIC>MOL_PROPERTY
W(SA)
SciTegic.value.DoubleValue
1.932

@<SCITEGIC>MOL_PROPERTY
Valence
SciTegic.value.DoubleValue
1.885

@<SCITEGIC>MOL_PROPERTY
Coulomb
SciTegic.value.DoubleValue
19.559

@<SCITEGIC>MOL_PROPERTY
VdW
SciTegic.value.DoubleValue
0.637

@<SCITEGIC>MOL_PROPERTY
VdW6
SciTegic.value.DoubleValue
-4.482

@<SCITEGIC>MOL_PROPERTY
VdW12
SciTegic.value.DoubleValue
5.119

@<SCITEGIC>MOL_PROPERTY
Bond
SciTegic.value.DoubleValue
0.136

@<SCITEGIC>MOL_PROPERTY
Angle
SciTegic.value.DoubleValue
0.867

@<SCITEGIC>MOL_PROPERTY
Pdih
SciTegic.value.DoubleValue
0.882

@<SCITEGIC>MOL_PROPERTY
Idih
SciTegic.value.DoubleValue
0.000

@<SCITEGIC>MOL_PROPERTY
Tether
SciTegic.value.DoubleValue
0.000

@<TRIPOS>MOLECULE
guest-s10_confgen4.mol2 : confsearch ligand conformer 332
          20          19           1
SMALL
USER_CHARGES
 
@<TRIPOS>ATOM
       1    N1      18.741926   16.859904   23.371340 N.4        1 MOL1        -0.5937
       2    H1      18.321438   16.545620   22.492550 H          1 MOL1         0.3684
       3    H2      17.989923   17.238596   23.952556 H          1 MOL1         0.3684
       4    H3      19.104723   16.029176   23.846681 H          1 MOL1         0.3684
       5    C1      19.824793   17.877154   23.136673 C.3        1 MOL1         0.1270
       6    H4      20.579279   17.385974   22.514292 H          1 MOL1         0.0960
       7    C2      20.480572   18.276382   24.471353 C.3        1 MOL1        -0.2382
       8    H5      20.809114   17.386306   25.021850 H          1 MOL1         0.1009
       9    H6      19.779782   18.830329   25.108232 H          1 MOL1         0.1009
      10    H7      21.366280   18.901420   24.309881 H          1 MOL1         0.1009
      11    C3      19.283374   19.102226   22.363658 C.3        1 MOL1        -0.1392
      12    H8      18.736252   18.742686   21.482153 H          1 MOL1         0.0998
      13    H9      18.553507   19.638339   22.984726 H          1 MOL1         0.0998
      14    C4      20.386023   20.081368   21.891845 C.3        1 MOL1        -0.1302
      15    H10     21.150137   19.532974   21.323106 H          1 MOL1         0.0998
      16    H11     20.893064   20.529845   22.756529 H          1 MOL1         0.0998
      17    C5      19.806863   21.210928   21.013010 C.3        1 MOL1        -0.2317
      18    H12     19.327229   20.805558   20.112530 H          1 MOL1         0.1009
      19    H13     20.600777   21.897177   20.690753 H          1 MOL1         0.1009
      20    H14     19.059399   21.796280   21.564301 H          1 MOL1         0.1009
@<TRIPOS>BOND
    1     1     2    1
    2     1     3    1
    3     1     4    1
    4     1     5    1
    5     5     6    1
    6     5     7    1
    7     7     8    1
    8     7     9    1
    9     7    10    1
   10     5    11    1
   11    11    12    1
   12    11    13    1
   13    11    14    1
   14    14    15    1
   15    14    16    1
   16    14    17    1
   17    17    18    1
   18    17    19    1
   19    17    20    1
@<TRIPOS>SUBSTRUCTURE
       1 MOL1            1 RESIDUE      1      MOL     
@<SCITEGIC>MOL_PROPERTY
VConf Rank
SciTegic.value.IntegerValue
332

@<SCITEGIC>MOL_PROPERTY
Conf_Id
SciTegic.value.IntegerValue
80

@<SCITEGIC>MOL_PROPERTY
Delta U+W
SciTegic.value.DoubleValue
0.460

@<SCITEGIC>MOL_PROPERTY
U+W
SciTegic.value.DoubleValue
-35.817

@<SCITEGIC>MOL_PROPERTY
Grad RMS
SciTegic.value.DoubleValue
0.000000

@<SCITEGIC>MOL_PROPERTY
U
SciTegic.value.DoubleValue
22.495

@<SCITEGIC>MOL_PROPERTY
W
SciTegic.value.DoubleValue
-58.311

@<SCITEGIC>MOL_PROPERTY
W(PB)
SciTegic.value.DoubleValue
-60.259

@<SCITEGIC>MOL_PROPERTY
W(SA)
SciTegic.value.DoubleValue
1.948

@<SCITEGIC>MOL_PROPERTY
Valence
SciTegic.value.DoubleValue
2.419

@<SCITEGIC>MOL_PROPERTY
Coulomb
SciTegic.value.DoubleValue
19.304

@<SCITEGIC>MOL_PROPERTY
VdW
SciTegic.value.DoubleValue
0.772

@<SCITEGIC>MOL_PROPERTY
VdW6
SciTegic.value.DoubleValue
-4.635

@<SCITEGIC>MOL_PROPERTY
VdW12
SciTegic.value.DoubleValue
5.407

@<SCITEGIC>MOL_PROPERTY
Bond
SciTegic.value.DoubleValue
0.149

@<SCITEGIC>MOL_PROPERTY
Angle
SciTegic.value.DoubleValue
1.142

@<SCITEGIC>MOL_PROPERTY
Pdih
SciTegic.value.DoubleValue
1.129

@<SCITEGIC>MOL_PROPERTY
Idih
SciTegic.value.DoubleValue
0.000

@<SCITEGIC>MOL_PROPERTY
Tether
SciTegic.value.DoubleValue
0.000

@<TRIPOS>MOLECULE
guest-s10_confgen4.mol2 : confsearch ligand conformer 333
          20          19           1
SMALL
USER_CHARGES
 
@<TRIPOS>ATOM
       1    N1      17.641677   17.777041   22.448826 N.4        1 MOL1        -0.5937
       2    H1      17.717498   16.777709   22.657146 H          1 MOL1         0.3684
       3    H2      17.623634   17.877404   21.430842 H          1 MOL1         0.3684
       4    H3      16.733655   18.091224   22.801530 H          1 MOL1         0.3684
       5    C1      18.771025   18.559819   23.060856 C.3        1 MOL1         0.1270
       6    H4      18.705842   18.397541   24.141234 H          1 MOL1         0.0960
       7    C2      18.584497   20.062732   22.791196 C.3        1 MOL1        -0.2382
       8    H5      17.572047   20.382994   23.066010 H          1 MOL1         0.1009
       9    H6      18.741176   20.299676   21.731591 H          1 MOL1         0.1009
      10    H7      19.283123   20.658566   23.389453 H          1 MOL1         0.1009
      11    C3      20.142200   18.027491   22.577286 C.3        1 MOL1        -0.1392
      12    H8      20.165767   16.948206   22.777988 H          1 MOL1         0.0998
      13    H9      20.226031   18.130028   21.487246 H          1 MOL1         0.0998
      14    C4      21.374744   18.663852   23.272646 C.3        1 MOL1        -0.1302
      15    H10     22.139739   17.886584   23.409593 H          1 MOL1         0.0998
      16    H11     21.109391   19.005847   24.282890 H          1 MOL1         0.0998
      17    C5      22.009995   19.818364   22.462343 C.3        1 MOL1        -0.2317
      18    H12     22.347340   19.467296   21.478439 H          1 MOL1         0.1009
      19    H13     22.884922   20.221059   22.988957 H          1 MOL1         0.1009
      20    H14     21.309529   20.645627   22.302576 H          1 MOL1         0.1009
@<TRIPOS>BOND
    1     1     2    1
    2     1     3    1
    3     1     4    1
    4     1     5    1
    5     5     6    1
    6     5     7    1
    7     7     8    1
    8     7     9    1
    9     7    10    1
   10     5    11    1
   11    11    12    1
   12    11    13    1
   13    11    14    1
   14    14    15    1
   15    14    16    1
   16    14    17    1
   17    17    18    1
   18    17    19    1
   19    17    20    1
@<TRIPOS>SUBSTRUCTURE
       1 MOL1            1 RESIDUE      1      MOL     
@<SCITEGIC>MOL_PROPERTY
VConf Rank
SciTegic.value.IntegerValue
333

@<SCITEGIC>MOL_PROPERTY
Conf_Id
SciTegic.value.IntegerValue
52

@<SCITEGIC>MOL_PROPERTY
Delta U+W
SciTegic.value.DoubleValue
2.995

@<SCITEGIC>MOL_PROPERTY
U+W
SciTegic.value.DoubleValue
-33.282

@<SCITEGIC>MOL_PROPERTY
Grad RMS
SciTegic.value.DoubleValue
0.000000

@<SCITEGIC>MOL_PROPERTY
U
SciTegic.value.DoubleValue
25.224

@<SCITEGIC>MOL_PROPERTY
W
SciTegic.value.DoubleValue
-58.506

@<SCITEGIC>MOL_PROPERTY
W(PB)
SciTegic.value.DoubleValue
-60.411

@<SCITEGIC>MOL_PROPERTY
W(SA)
SciTegic.value.DoubleValue
1.905

@<SCITEGIC>MOL_PROPERTY
Valence
SciTegic.value.DoubleValue
4.945

@<SCITEGIC>MOL_PROPERTY
Coulomb
SciTegic.value.DoubleValue
19.467

@<SCITEGIC>MOL_PROPERTY
VdW
SciTegic.value.DoubleValue
0.813

@<SCITEGIC>MOL_PROPERTY
VdW6
SciTegic.value.DoubleValue
-5.458

@<SCITEGIC>MOL_PROPERTY
VdW12
SciTegic.value.DoubleValue
6.270

@<SCITEGIC>MOL_PROPERTY
Bond
SciTegic.value.DoubleValue
0.200

@<SCITEGIC>MOL_PROPERTY
Angle
SciTegic.value.DoubleValue
1.675

@<SCITEGIC>MOL_PROPERTY
Pdih
SciTegic.value.DoubleValue
3.070

@<SCITEGIC>MOL_PROPERTY
Idih
SciTegic.value.DoubleValue
0.000

@<SCITEGIC>MOL_PROPERTY
Tether
SciTegic.value.DoubleValue
0.000

@<TRIPOS>MOLECULE
guest-s10_confgen4.mol2 : confsearch ligand conformer 334
          20          19           1
SMALL
USER_CHARGES
 
@<TRIPOS>ATOM
       1    N1      18.850006   18.952563   24.090950 N.4        1 MOL1        -0.5937
       2    H1      18.372147   19.856347   24.125618 H          1 MOL1         0.3684
       3    H2      18.847528   18.568465   25.039692 H          1 MOL1         0.3684
       4    H3      18.287979   18.331693   23.504750 H          1 MOL1         0.3684
       5    C1      20.248712   19.091875   23.554794 C.3        1 MOL1         0.1270
       6    H4      20.708910   18.099673   23.593363 H          1 MOL1         0.0960
       7    C2      21.061955   20.034503   24.458038 C.3        1 MOL1        -0.2382
       8    H5      20.650569   21.051558   24.443260 H          1 MOL1         0.1009
       9    H6      22.107932   20.084028   24.130737 H          1 MOL1         0.1009
      10    H7      21.057110   19.678752   25.495705 H          1 MOL1         0.1009
      11    C3      20.282722   19.586767   22.089134 C.3        1 MOL1        -0.1392
      12    H8      19.613087   20.448626   21.969293 H          1 MOL1         0.0998
      13    H9      21.292226   19.958799   21.868730 H          1 MOL1         0.0998
      14    C4      19.953660   18.503022   21.029029 C.3        1 MOL1        -0.1302
      15    H10     20.658330   17.665032   21.125193 H          1 MOL1         0.0998
      16    H11     20.130333   18.933634   20.033346 H          1 MOL1         0.0998
      17    C5      18.504797   17.966625   21.076788 C.3        1 MOL1        -0.2317
      18    H12     18.294112   17.364687   20.183162 H          1 MOL1         0.1009
      19    H13     17.775644   18.786943   21.103815 H          1 MOL1         0.1009
      20    H14     18.342631   17.316678   21.944377 H          1 MOL1         0.1009
@<TRIPOS>BOND
    1     1     2    1
    2     1     3    1
    3     1     4    1
    4     1     5    1
    5     5     6    1
    6     5     7    1
    7     7     8    1
    8     7     9    1
    9     7    10    1
   10     5    11    1
   11    11    12    1
   12    11    13    1
   13    11    14    1
   14    14    15    1
   15    14    16    1
   16    14    17    1
   17    17    18    1
   18    17    19    1
   19    17    20    1
@<TRIPOS>SUBSTRUCTURE
       1 MOL1            1 RESIDUE      1      MOL     
@<SCITEGIC>MOL_PROPERTY
VConf Rank
SciTegic.value.IntegerValue
334

@<SCITEGIC>MOL_PROPERTY
Conf_Id
SciTegic.value.IntegerValue
54

@<SCITEGIC>MOL_PROPERTY
Delta U+W
SciTegic.value.DoubleValue
2.752

@<SCITEGIC>MOL_PROPERTY
U+W
SciTegic.value.DoubleValue
-33.525

@<SCITEGIC>MOL_PROPERTY
Grad RMS
SciTegic.value.DoubleValue
0.000000

@<SCITEGIC>MOL_PROPERTY
U
SciTegic.value.DoubleValue
24.337

@<SCITEGIC>MOL_PROPERTY
W
SciTegic.value.DoubleValue
-57.862

@<SCITEGIC>MOL_PROPERTY
W(PB)
SciTegic.value.DoubleValue
-59.764

@<SCITEGIC>MOL_PROPERTY
W(SA)
SciTegic.value.DoubleValue
1.901

@<SCITEGIC>MOL_PROPERTY
Valence
SciTegic.value.DoubleValue
3.593

@<SCITEGIC>MOL_PROPERTY
Coulomb
SciTegic.value.DoubleValue
20.067

@<SCITEGIC>MOL_PROPERTY
VdW
SciTegic.value.DoubleValue
0.677

@<SCITEGIC>MOL_PROPERTY
VdW6
SciTegic.value.DoubleValue
-5.466

@<SCITEGIC>MOL_PROPERTY
VdW12
SciTegic.value.DoubleValue
6.144

@<SCITEGIC>MOL_PROPERTY
Bond
SciTegic.value.DoubleValue
0.191

@<SCITEGIC>MOL_PROPERTY
Angle
SciTegic.value.DoubleValue
1.557

@<SCITEGIC>MOL_PROPERTY
Pdih
SciTegic.value.DoubleValue
1.845

@<SCITEGIC>MOL_PROPERTY
Idih
SciTegic.value.DoubleValue
0.000

@<SCITEGIC>MOL_PROPERTY
Tether
SciTegic.value.DoubleValue
0.000

@<TRIPOS>MOLECULE
guest-s10_confgen4.mol2 : confsearch ligand conformer 335
          20          19           1
SMALL
USER_CHARGES
 
@<TRIPOS>ATOM
       1    N1      19.179369   19.927127   24.425944 N.4        1 MOL1        -0.5937
       2    H1      18.479345   20.553649   24.832258 H          1 MOL1         0.3684
       3    H2      20.058173   20.089231   24.925080 H          1 MOL1         0.3684
       4    H3      18.884355   18.968854   24.626264 H          1 MOL1         0.3684
       5    C1      19.332497   20.157733   22.947006 C.3        1 MOL1         0.1270
       6    H4      19.630489   21.204767   22.833232 H          1 MOL1         0.0960
       7    C2      17.989747   19.975987   22.217051 C.3        1 MOL1        -0.2382
       8    H5      18.105947   20.143185   21.139084 H          1 MOL1         0.1009
       9    H6      17.251373   20.697766   22.587088 H          1 MOL1         0.1009
      10    H7      17.578747   18.970661   22.366856 H          1 MOL1         0.1009
      11    C3      20.454661   19.292276   22.325085 C.3        1 MOL1        -0.1392
      12    H8      20.573662   19.573515   21.270344 H          1 MOL1         0.0998
      13    H9      21.403177   19.550243   22.814142 H          1 MOL1         0.0998
      14    C4      20.231433   17.761042   22.424264 C.3        1 MOL1        -0.1302
      15    H10     19.312243   17.475860   21.895329 H          1 MOL1         0.0998
      16    H11     20.100967   17.463902   23.473477 H          1 MOL1         0.0998
      17    C5      21.416876   16.975801   21.823058 C.3        1 MOL1        -0.2317
      18    H12     21.243756   15.894405   21.898414 H          1 MOL1         0.1009
      19    H13     22.351427   17.204275   22.351865 H          1 MOL1         0.1009
      20    H14     21.555833   17.221024   20.762030 H          1 MOL1         0.1009
@<TRIPOS>BOND
    1     1     2    1
    2     1     3    1
    3     1     4    1
    4     1     5    1
    5     5     6    1
    6     5     7    1
    7     7     8    1
    8     7     9    1
    9     7    10    1
   10     5    11    1
   11    11    12    1
   12    11    13    1
   13    11    14    1
   14    14    15    1
   15    14    16    1
   16    14    17    1
   17    17    18    1
   18    17    19    1
   19    17    20    1
@<TRIPOS>SUBSTRUCTURE
       1 MOL1            1 RESIDUE      1      MOL     
@<SCITEGIC>MOL_PROPERTY
VConf Rank
SciTegic.value.IntegerValue
335

@<SCITEGIC>MOL_PROPERTY
Conf_Id
SciTegic.value.IntegerValue
63

@<SCITEGIC>MOL_PROPERTY
Delta U+W
SciTegic.value.DoubleValue
0.420

@<SCITEGIC>MOL_PROPERTY
U+W
SciTegic.value.DoubleValue
-35.856

@<SCITEGIC>MOL_PROPERTY
Grad RMS
SciTegic.value.DoubleValue
0.000000

@<SCITEGIC>MOL_PROPERTY
U
SciTegic.value.DoubleValue
22.625

@<SCITEGIC>MOL_PROPERTY
W
SciTegic.value.DoubleValue
-58.481

@<SCITEGIC>MOL_PROPERTY
W(PB)
SciTegic.value.DoubleValue
-60.400

@<SCITEGIC>MOL_PROPERTY
W(SA)
SciTegic.value.DoubleValue
1.919

@<SCITEGIC>MOL_PROPERTY
Valence
SciTegic.value.DoubleValue
2.404

@<SCITEGIC>MOL_PROPERTY
Coulomb
SciTegic.value.DoubleValue
19.464

@<SCITEGIC>MOL_PROPERTY
VdW
SciTegic.value.DoubleValue
0.757

@<SCITEGIC>MOL_PROPERTY
VdW6
SciTegic.value.DoubleValue
-5.074

@<SCITEGIC>MOL_PROPERTY
VdW12
SciTegic.value.DoubleValue
5.830

@<SCITEGIC>MOL_PROPERTY
Bond
SciTegic.value.DoubleValue
0.172

@<SCITEGIC>MOL_PROPERTY
Angle
SciTegic.value.DoubleValue
1.207

@<SCITEGIC>MOL_PROPERTY
Pdih
SciTegic.value.DoubleValue
1.025

@<SCITEGIC>MOL_PROPERTY
Idih
SciTegic.value.DoubleValue
0.000

@<SCITEGIC>MOL_PROPERTY
Tether
SciTegic.value.DoubleValue
0.000

@<TRIPOS>MOLECULE
guest-s10_confgen4.mol2 : confsearch ligand conformer 336
          20          19           1
SMALL
USER_CHARGES
 
@<TRIPOS>ATOM
       1    N1      18.253971   19.151266   23.792376 N.4        1 MOL1        -0.5937
       2    H1      17.812510   19.543646   22.956897 H          1 MOL1         0.3684
       3    H2      18.385388   19.915765   24.459229 H          1 MOL1         0.3684
       4    H3      17.589859   18.493021   24.208562 H          1 MOL1         0.3684
       5    C1      19.559084   18.481290   23.457727 C.3        1 MOL1         0.1270
       6    H4      19.329154   17.681284   22.747619 H          1 MOL1         0.0960
       7    C2      20.179531   17.843884   24.711629 C.3        1 MOL1        -0.2382
       8    H5      19.485318   17.126891   25.166851 H          1 MOL1         0.1009
       9    H6      20.427099   18.604010   25.463076 H          1 MOL1         0.1009
      10    H7      21.099003   17.301444   24.458740 H          1 MOL1         0.1009
      11    C3      20.565195   19.446744   22.790929 C.3        1 MOL1        -0.1392
      12    H8      20.821512   20.249277   23.495255 H          1 MOL1         0.0998
      13    H9      21.499440   18.905878   22.589485 H          1 MOL1         0.0998
      14    C4      20.060193   20.075898   21.467661 C.3        1 MOL1        -0.1302
      15    H10     20.838834   20.745364   21.075952 H          1 MOL1         0.0998
      16    H11     19.184655   20.711125   21.658675 H          1 MOL1         0.0998
      17    C5      19.715779   19.023533   20.389109 C.3        1 MOL1        -0.2317
      18    H12     20.577219   18.375682   20.180807 H          1 MOL1         0.1009
      19    H13     19.431952   19.514820   19.449350 H          1 MOL1         0.1009
      20    H14     18.875662   18.388312   20.696672 H          1 MOL1         0.1009
@<TRIPOS>BOND
    1     1     2    1
    2     1     3    1
    3     1     4    1
    4     1     5    1
    5     5     6    1
    6     5     7    1
    7     7     8    1
    8     7     9    1
    9     7    10    1
   10     5    11    1
   11    11    12    1
   12    11    13    1
   13    11    14    1
   14    14    15    1
   15    14    16    1
   16    14    17    1
   17    17    18    1
   18    17    19    1
   19    17    20    1
@<TRIPOS>SUBSTRUCTURE
       1 MOL1            1 RESIDUE      1      MOL     
@<SCITEGIC>MOL_PROPERTY
VConf Rank
SciTegic.value.IntegerValue
336

@<SCITEGIC>MOL_PROPERTY
Conf_Id
SciTegic.value.IntegerValue
50

@<SCITEGIC>MOL_PROPERTY
Delta U+W
SciTegic.value.DoubleValue
0.466

@<SCITEGIC>MOL_PROPERTY
U+W
SciTegic.value.DoubleValue
-35.811

@<SCITEGIC>MOL_PROPERTY
Grad RMS
SciTegic.value.DoubleValue
0.000000

@<SCITEGIC>MOL_PROPERTY
U
SciTegic.value.DoubleValue
22.369

@<SCITEGIC>MOL_PROPERTY
W
SciTegic.value.DoubleValue
-58.180

@<SCITEGIC>MOL_PROPERTY
W(PB)
SciTegic.value.DoubleValue
-60.103

@<SCITEGIC>MOL_PROPERTY
W(SA)
SciTegic.value.DoubleValue
1.923

@<SCITEGIC>MOL_PROPERTY
Valence
SciTegic.value.DoubleValue
2.168

@<SCITEGIC>MOL_PROPERTY
Coulomb
SciTegic.value.DoubleValue
19.636

@<SCITEGIC>MOL_PROPERTY
VdW
SciTegic.value.DoubleValue
0.566

@<SCITEGIC>MOL_PROPERTY
VdW6
SciTegic.value.DoubleValue
-5.263

@<SCITEGIC>MOL_PROPERTY
VdW12
SciTegic.value.DoubleValue
5.829

@<SCITEGIC>MOL_PROPERTY
Bond
SciTegic.value.DoubleValue
0.162

@<SCITEGIC>MOL_PROPERTY
Angle
SciTegic.value.DoubleValue
1.066

@<SCITEGIC>MOL_PROPERTY
Pdih
SciTegic.value.DoubleValue
0.939

@<SCITEGIC>MOL_PROPERTY
Idih
SciTegic.value.DoubleValue
0.000

@<SCITEGIC>MOL_PROPERTY
Tether
SciTegic.value.DoubleValue
0.000

@<TRIPOS>MOLECULE
guest-s10_confgen4.mol2 : confsearch ligand conformer 337
          20          19           1
SMALL
USER_CHARGES
 
@<TRIPOS>ATOM
       1    N1      20.060233   19.874303   24.819965 N.4        1 MOL1        -0.5937
       2    H1      19.123740   20.078587   25.179473 H          1 MOL1         0.3684
       3    H2      20.522851   20.769332   24.641697 H          1 MOL1         0.3684
       4    H3      20.577255   19.408871   25.570829 H          1 MOL1         0.3684
       5    C1      20.005313   19.023678   23.579803 C.3        1 MOL1         0.1270
       6    H4      19.495349   18.098899   23.867001 H          1 MOL1         0.0960
       7    C2      21.432153   18.676907   23.115214 C.3        1 MOL1        -0.2382
       8    H5      21.996415   19.583006   22.861722 H          1 MOL1         0.1009
       9    H6      21.422059   18.029138   22.231991 H          1 MOL1         0.1009
      10    H7      21.978098   18.148262   23.906167 H          1 MOL1         0.1009
      11    C3      19.183741   19.696908   22.452855 C.3        1 MOL1        -0.1392
      12    H8      18.567500   20.496047   22.885633 H          1 MOL1         0.0998
      13    H9      19.851034   20.193859   21.736076 H          1 MOL1         0.0998
      14    C4      18.228336   18.729492   21.709155 C.3        1 MOL1        -0.1302
      15    H10     17.635612   19.308189   20.986854 H          1 MOL1         0.0998
      16    H11     17.508666   18.303494   22.422375 H          1 MOL1         0.0998
      17    C5      18.945371   17.584887   20.959504 C.3        1 MOL1        -0.2317
      18    H12     19.702777   17.977020   20.268422 H          1 MOL1         0.1009
      19    H13     18.225180   17.002050   20.370719 H          1 MOL1         0.1009
      20    H14     19.433997   16.893114   21.656874 H          1 MOL1         0.1009
@<TRIPOS>BOND
    1     1     2    1
    2     1     3    1
    3     1     4    1
    4     1     5    1
    5     5     6    1
    6     5     7    1
    7     7     8    1
    8     7     9    1
    9     7    10    1
   10     5    11    1
   11    11    12    1
   12    11    13    1
   13    11    14    1
   14    14    15    1
   15    14    16    1
   16    14    17    1
   17    17    18    1
   18    17    19    1
   19    17    20    1
@<TRIPOS>SUBSTRUCTURE
       1 MOL1            1 RESIDUE      1      MOL     
@<SCITEGIC>MOL_PROPERTY
VConf Rank
SciTegic.value.IntegerValue
337

@<SCITEGIC>MOL_PROPERTY
Conf_Id
SciTegic.value.IntegerValue
3

@<SCITEGIC>MOL_PROPERTY
Delta U+W
SciTegic.value.DoubleValue
3.093

@<SCITEGIC>MOL_PROPERTY
U+W
SciTegic.value.DoubleValue
-33.184

@<SCITEGIC>MOL_PROPERTY
Grad RMS
SciTegic.value.DoubleValue
0.000000

@<SCITEGIC>MOL_PROPERTY
U
SciTegic.value.DoubleValue
25.256

@<SCITEGIC>MOL_PROPERTY
W
SciTegic.value.DoubleValue
-58.439

@<SCITEGIC>MOL_PROPERTY
W(PB)
SciTegic.value.DoubleValue
-60.337

@<SCITEGIC>MOL_PROPERTY
W(SA)
SciTegic.value.DoubleValue
1.898

@<SCITEGIC>MOL_PROPERTY
Valence
SciTegic.value.DoubleValue
4.963

@<SCITEGIC>MOL_PROPERTY
Coulomb
SciTegic.value.DoubleValue
19.511

@<SCITEGIC>MOL_PROPERTY
VdW
SciTegic.value.DoubleValue
0.782

@<SCITEGIC>MOL_PROPERTY
VdW6
SciTegic.value.DoubleValue
-5.429

@<SCITEGIC>MOL_PROPERTY
VdW12
SciTegic.value.DoubleValue
6.211

@<SCITEGIC>MOL_PROPERTY
Bond
SciTegic.value.DoubleValue
0.174

@<SCITEGIC>MOL_PROPERTY
Angle
SciTegic.value.DoubleValue
1.377

@<SCITEGIC>MOL_PROPERTY
Pdih
SciTegic.value.DoubleValue
3.412

@<SCITEGIC>MOL_PROPERTY
Idih
SciTegic.value.DoubleValue
0.000

@<SCITEGIC>MOL_PROPERTY
Tether
SciTegic.value.DoubleValue
0.000

@<TRIPOS>MOLECULE
guest-s10_confgen4.mol2 : confsearch ligand conformer 338
          20          19           1
SMALL
USER_CHARGES
 
@<TRIPOS>ATOM
       1    N1      21.026150   18.925665   20.925040 N.4        1 MOL1        -0.5937
       2    H1      21.981808   18.559307   20.936670 H          1 MOL1         0.3684
       3    H2      21.084608   19.914638   20.667464 H          1 MOL1         0.3684
       4    H3      20.524759   18.442955   20.175184 H          1 MOL1         0.3684
       5    C1      20.347618   18.737059   22.254101 C.3        1 MOL1         0.1270
       6    H4      20.952143   19.280134   22.986709 H          1 MOL1         0.0960
       7    C2      20.335357   17.247384   22.642457 C.3        1 MOL1        -0.2382
       8    H5      19.971733   17.106455   23.666885 H          1 MOL1         0.1009
       9    H6      21.347674   16.827526   22.596981 H          1 MOL1         0.1009
      10    H7      19.695211   16.666201   21.967233 H          1 MOL1         0.1009
      11    C3      18.925881   19.347847   22.248685 C.3        1 MOL1        -0.1392
      12    H8      18.989579   20.382941   21.888062 H          1 MOL1         0.0998
      13    H9      18.302238   18.810321   21.522137 H          1 MOL1         0.0998
      14    C4      18.210081   19.353904   23.623712 C.3        1 MOL1        -0.1302
      15    H10     18.009467   18.325855   23.954078 H          1 MOL1         0.0998
      16    H11     17.225801   19.828392   23.505841 H          1 MOL1         0.0998
      17    C5      19.002033   20.108550   24.715716 C.3        1 MOL1        -0.2317
      18    H12     19.217106   21.139638   24.406264 H          1 MOL1         0.1009
      19    H13     19.954254   19.611333   24.939579 H          1 MOL1         0.1009
      20    H14     18.424806   20.152359   25.648404 H          1 MOL1         0.1009
@<TRIPOS>BOND
    1     1     2    1
    2     1     3    1
    3     1     4    1
    4     1     5    1
    5     5     6    1
    6     5     7    1
    7     7     8    1
    8     7     9    1
    9     7    10    1
   10     5    11    1
   11    11    12    1
   12    11    13    1
   13    11    14    1
   14    14    15    1
   15    14    16    1
   16    14    17    1
   17    17    18    1
   18    17    19    1
   19    17    20    1
@<TRIPOS>SUBSTRUCTURE
       1 MOL1            1 RESIDUE      1      MOL     
@<SCITEGIC>MOL_PROPERTY
VConf Rank
SciTegic.value.IntegerValue
338

@<SCITEGIC>MOL_PROPERTY
Conf_Id
SciTegic.value.IntegerValue
64

@<SCITEGIC>MOL_PROPERTY
Delta U+W
SciTegic.value.DoubleValue
0.544

@<SCITEGIC>MOL_PROPERTY
U+W
SciTegic.value.DoubleValue
-35.732

@<SCITEGIC>MOL_PROPERTY
Grad RMS
SciTegic.value.DoubleValue
0.000000

@<SCITEGIC>MOL_PROPERTY
U
SciTegic.value.DoubleValue
22.800

@<SCITEGIC>MOL_PROPERTY
W
SciTegic.value.DoubleValue
-58.532

@<SCITEGIC>MOL_PROPERTY
W(PB)
SciTegic.value.DoubleValue
-60.437

@<SCITEGIC>MOL_PROPERTY
W(SA)
SciTegic.value.DoubleValue
1.905

@<SCITEGIC>MOL_PROPERTY
Valence
SciTegic.value.DoubleValue
2.662

@<SCITEGIC>MOL_PROPERTY
Coulomb
SciTegic.value.DoubleValue
19.485

@<SCITEGIC>MOL_PROPERTY
VdW
SciTegic.value.DoubleValue
0.653

@<SCITEGIC>MOL_PROPERTY
VdW6
SciTegic.value.DoubleValue
-5.460

@<SCITEGIC>MOL_PROPERTY
VdW12
SciTegic.value.DoubleValue
6.113

@<SCITEGIC>MOL_PROPERTY
Bond
SciTegic.value.DoubleValue
0.174

@<SCITEGIC>MOL_PROPERTY
Angle
SciTegic.value.DoubleValue
1.378

@<SCITEGIC>MOL_PROPERTY
Pdih
SciTegic.value.DoubleValue
1.109

@<SCITEGIC>MOL_PROPERTY
Idih
SciTegic.value.DoubleValue
0.000

@<SCITEGIC>MOL_PROPERTY
Tether
SciTegic.value.DoubleValue
0.000

@<TRIPOS>MOLECULE
guest-s10_confgen4.mol2 : confsearch ligand conformer 339
          20          19           1
SMALL
USER_CHARGES
 
@<TRIPOS>ATOM
       1    N1      21.709637   18.242855   22.153173 N.4        1 MOL1        -0.5937
       2    H1      21.887332   19.225201   22.373838 H          1 MOL1         0.3684
       3    H2      22.165243   18.043304   21.258625 H          1 MOL1         0.3684
       4    H3      22.179601   17.678010   22.865735 H          1 MOL1         0.3684
       5    C1      20.234788   17.948694   22.097309 C.3        1 MOL1         0.1270
       6    H4      20.150848   16.886685   21.846206 H          1 MOL1         0.0960
       7    C2      19.559980   18.742516   20.966732 C.3        1 MOL1        -0.2382
       8    H5      19.721464   19.820705   21.081366 H          1 MOL1         0.1009
       9    H6      18.480090   18.550930   20.945052 H          1 MOL1         0.1009
      10    H7      19.969817   18.446108   19.993518 H          1 MOL1         0.1009
      11    C3      19.542347   18.144202   23.469622 C.3        1 MOL1        -0.1392
      12    H8      18.517690   17.752959   23.419562 H          1 MOL1         0.0998
      13    H9      20.060893   17.501341   24.193031 H          1 MOL1         0.0998
      14    C4      19.526080   19.593443   24.030567 C.3        1 MOL1        -0.1302
      15    H10     20.413225   20.150714   23.702236 H          1 MOL1         0.0998
      16    H11     19.594561   19.541079   25.126264 H          1 MOL1         0.0998
      17    C5      18.242027   20.379391   23.675264 C.3        1 MOL1        -0.2317
      18    H12     18.124870   20.513584   22.594411 H          1 MOL1         0.1009
      19    H13     18.265211   21.377582   24.131383 H          1 MOL1         0.1009
      20    H14     17.348913   19.863640   24.051283 H          1 MOL1         0.1009
@<TRIPOS>BOND
    1     1     2    1
    2     1     3    1
    3     1     4    1
    4     1     5    1
    5     5     6    1
    6     5     7    1
    7     7     8    1
    8     7     9    1
    9     7    10    1
   10     5    11    1
   11    11    12    1
   12    11    13    1
   13    11    14    1
   14    14    15    1
   15    14    16    1
   16    14    17    1
   17    17    18    1
   18    17    19    1
   19    17    20    1
@<TRIPOS>SUBSTRUCTURE
       1 MOL1            1 RESIDUE      1      MOL     
@<SCITEGIC>MOL_PROPERTY
VConf Rank
SciTegic.value.IntegerValue
339

@<SCITEGIC>MOL_PROPERTY
Conf_Id
SciTegic.value.IntegerValue
35

@<SCITEGIC>MOL_PROPERTY
Delta U+W
SciTegic.value.DoubleValue
3.004

@<SCITEGIC>MOL_PROPERTY
U+W
SciTegic.value.DoubleValue
-33.272

@<SCITEGIC>MOL_PROPERTY
Grad RMS
SciTegic.value.DoubleValue
0.000000

@<SCITEGIC>MOL_PROPERTY
U
SciTegic.value.DoubleValue
25.367

@<SCITEGIC>MOL_PROPERTY
W
SciTegic.value.DoubleValue
-58.639

@<SCITEGIC>MOL_PROPERTY
W(PB)
SciTegic.value.DoubleValue
-60.512

@<SCITEGIC>MOL_PROPERTY
W(SA)
SciTegic.value.DoubleValue
1.873

@<SCITEGIC>MOL_PROPERTY
Valence
SciTegic.value.DoubleValue
4.943

@<SCITEGIC>MOL_PROPERTY
Coulomb
SciTegic.value.DoubleValue
19.661

@<SCITEGIC>MOL_PROPERTY
VdW
SciTegic.value.DoubleValue
0.764

@<SCITEGIC>MOL_PROPERTY
VdW6
SciTegic.value.DoubleValue
-5.871

@<SCITEGIC>MOL_PROPERTY
VdW12
SciTegic.value.DoubleValue
6.636

@<SCITEGIC>MOL_PROPERTY
Bond
SciTegic.value.DoubleValue
0.230

@<SCITEGIC>MOL_PROPERTY
Angle
SciTegic.value.DoubleValue
1.857

@<SCITEGIC>MOL_PROPERTY
Pdih
SciTegic.value.DoubleValue
2.855

@<SCITEGIC>MOL_PROPERTY
Idih
SciTegic.value.DoubleValue
0.000

@<SCITEGIC>MOL_PROPERTY
Tether
SciTegic.value.DoubleValue
0.000

@<TRIPOS>MOLECULE
guest-s10_confgen4.mol2 : confsearch ligand conformer 340
          20          19           1
SMALL
USER_CHARGES
 
@<TRIPOS>ATOM
       1    N1      20.021362   17.672176   21.495011 N.4        1 MOL1        -0.5937
       2    H1      20.163661   17.580332   20.485597 H          1 MOL1         0.3684
       3    H2      19.708757   16.761675   21.842643 H          1 MOL1         0.3684
       4    H3      20.930147   17.866228   21.919806 H          1 MOL1         0.3684
       5    C1      19.027931   18.754964   21.816145 C.3        1 MOL1         0.1270
       6    H4      18.093374   18.440057   21.341420 H          1 MOL1         0.0960
       7    C2      19.434792   20.096550   21.181228 C.3        1 MOL1        -0.2382
       8    H5      20.414453   20.433819   21.540127 H          1 MOL1         0.1009
       9    H6      18.696998   20.875168   21.411085 H          1 MOL1         0.1009
      10    H7      19.491216   20.003714   20.089822 H          1 MOL1         0.1009
      11    C3      18.738689   18.883041   23.333791 C.3        1 MOL1        -0.1392
      12    H8      17.805263   19.449909   23.447458 H          1 MOL1         0.0998
      13    H9      18.524460   17.885960   23.740179 H          1 MOL1         0.0998
      14    C4      19.822027   19.571791   24.210488 C.3        1 MOL1        -0.1302
      15    H10     19.443273   19.621257   25.240984 H          1 MOL1         0.0998
      16    H11     19.958854   20.615614   23.896890 H          1 MOL1         0.0998
      17    C5      21.189474   18.851652   24.230802 C.3        1 MOL1        -0.2317
      18    H12     21.074015   17.783847   24.457961 H          1 MOL1         0.1009
      19    H13     21.836779   19.287580   25.002898 H          1 MOL1         0.1009
      20    H14     21.715085   18.956211   23.274733 H          1 MOL1         0.1009
@<TRIPOS>BOND
    1     1     2    1
    2     1     3    1
    3     1     4    1
    4     1     5    1
    5     5     6    1
    6     5     7    1
    7     7     8    1
    8     7     9    1
    9     7    10    1
   10     5    11    1
   11    11    12    1
   12    11    13    1
   13    11    14    1
   14    14    15    1
   15    14    16    1
   16    14    17    1
   17    17    18    1
   18    17    19    1
   19    17    20    1
@<TRIPOS>SUBSTRUCTURE
       1 MOL1            1 RESIDUE      1      MOL     
@<SCITEGIC>MOL_PROPERTY
VConf Rank
SciTegic.value.IntegerValue
340

@<SCITEGIC>MOL_PROPERTY
Conf_Id
SciTegic.value.IntegerValue
55

@<SCITEGIC>MOL_PROPERTY
Delta U+W
SciTegic.value.DoubleValue
2.767

@<SCITEGIC>MOL_PROPERTY
U+W
SciTegic.value.DoubleValue
-33.509

@<SCITEGIC>MOL_PROPERTY
Grad RMS
SciTegic.value.DoubleValue
0.000000

@<SCITEGIC>MOL_PROPERTY
U
SciTegic.value.DoubleValue
24.552

@<SCITEGIC>MOL_PROPERTY
W
SciTegic.value.DoubleValue
-58.061

@<SCITEGIC>MOL_PROPERTY
W(PB)
SciTegic.value.DoubleValue
-59.930

@<SCITEGIC>MOL_PROPERTY
W(SA)
SciTegic.value.DoubleValue
1.869

@<SCITEGIC>MOL_PROPERTY
Valence
SciTegic.value.DoubleValue
3.726

@<SCITEGIC>MOL_PROPERTY
Coulomb
SciTegic.value.DoubleValue
20.219

@<SCITEGIC>MOL_PROPERTY
VdW
SciTegic.value.DoubleValue
0.606

@<SCITEGIC>MOL_PROPERTY
VdW6
SciTegic.value.DoubleValue
-6.395

@<SCITEGIC>MOL_PROPERTY
VdW12
SciTegic.value.DoubleValue
7.001

@<SCITEGIC>MOL_PROPERTY
Bond
SciTegic.value.DoubleValue
0.241

@<SCITEGIC>MOL_PROPERTY
Angle
SciTegic.value.DoubleValue
2.098

@<SCITEGIC>MOL_PROPERTY
Pdih
SciTegic.value.DoubleValue
1.387

@<SCITEGIC>MOL_PROPERTY
Idih
SciTegic.value.DoubleValue
0.000

@<SCITEGIC>MOL_PROPERTY
Tether
SciTegic.value.DoubleValue
0.000

@<TRIPOS>MOLECULE
guest-s10_confgen4.mol2 : confsearch ligand conformer 341
          20          19           1
SMALL
USER_CHARGES
 
@<TRIPOS>ATOM
       1    N1      20.160769   18.831251   20.794723 N.4        1 MOL1        -0.5937
       2    H1      20.416536   19.811104   20.649747 H          1 MOL1         0.3684
       3    H2      19.861805   18.456867   19.890227 H          1 MOL1         0.3684
       4    H3      21.009574   18.328631   21.065803 H          1 MOL1         0.3684
       5    C1      19.080394   18.691154   21.833097 C.3        1 MOL1         0.1270
       6    H4      18.871973   17.620917   21.928176 H          1 MOL1         0.0960
       7    C2      17.792776   19.392782   21.370790 C.3        1 MOL1        -0.2382
       8    H5      17.457345   18.992871   20.405999 H          1 MOL1         0.1009
       9    H6      17.947443   20.473106   21.257771 H          1 MOL1         0.1009
      10    H7      16.982666   19.237673   22.094186 H          1 MOL1         0.1009
      11    C3      19.514528   19.223129   23.216817 C.3        1 MOL1        -0.1392
      12    H8      19.752858   20.292602   23.143722 H          1 MOL1         0.0998
      13    H9      18.667446   19.138199   23.910580 H          1 MOL1         0.0998
      14    C4      20.722385   18.457265   23.808468 C.3        1 MOL1        -0.1302
      15    H10     21.600906   18.573902   23.159606 H          1 MOL1         0.0998
      16    H11     20.496070   17.382332   23.847756 H          1 MOL1         0.0998
      17    C5      21.075415   18.957183   25.225774 C.3        1 MOL1        -0.2317
      18    H12     21.336419   20.023491   25.214850 H          1 MOL1         0.1009
      19    H13     21.934054   18.404764   25.629080 H          1 MOL1         0.1009
      20    H14     20.232645   18.818702   25.915552 H          1 MOL1         0.1009
@<TRIPOS>BOND
    1     1     2    1
    2     1     3    1
    3     1     4    1
    4     1     5    1
    5     5     6    1
    6     5     7    1
    7     7     8    1
    8     7     9    1
    9     7    10    1
   10     5    11    1
   11    11    12    1
   12    11    13    1
   13    11    14    1
   14    14    15    1
   15    14    16    1
   16    14    17    1
   17    17    18    1
   18    17    19    1
   19    17    20    1
@<TRIPOS>SUBSTRUCTURE
       1 MOL1            1 RESIDUE      1      MOL     
@<SCITEGIC>MOL_PROPERTY
VConf Rank
SciTegic.value.IntegerValue
341

@<SCITEGIC>MOL_PROPERTY
Conf_Id
SciTegic.value.IntegerValue
74

@<SCITEGIC>MOL_PROPERTY
Delta U+W
SciTegic.value.DoubleValue
0.000

@<SCITEGIC>MOL_PROPERTY
U+W
SciTegic.value.DoubleValue
-36.276

@<SCITEGIC>MOL_PROPERTY
Grad RMS
SciTegic.value.DoubleValue
0.000000

@<SCITEGIC>MOL_PROPERTY
U
SciTegic.value.DoubleValue
22.080

@<SCITEGIC>MOL_PROPERTY
W
SciTegic.value.DoubleValue
-58.356

@<SCITEGIC>MOL_PROPERTY
W(PB)
SciTegic.value.DoubleValue
-60.289

@<SCITEGIC>MOL_PROPERTY
W(SA)
SciTegic.value.DoubleValue
1.932

@<SCITEGIC>MOL_PROPERTY
Valence
SciTegic.value.DoubleValue
1.885

@<SCITEGIC>MOL_PROPERTY
Coulomb
SciTegic.value.DoubleValue
19.559

@<SCITEGIC>MOL_PROPERTY
VdW
SciTegic.value.DoubleValue
0.637

@<SCITEGIC>MOL_PROPERTY
VdW6
SciTegic.value.DoubleValue
-4.482

@<SCITEGIC>MOL_PROPERTY
VdW12
SciTegic.value.DoubleValue
5.119

@<SCITEGIC>MOL_PROPERTY
Bond
SciTegic.value.DoubleValue
0.136

@<SCITEGIC>MOL_PROPERTY
Angle
SciTegic.value.DoubleValue
0.867

@<SCITEGIC>MOL_PROPERTY
Pdih
SciTegic.value.DoubleValue
0.882

@<SCITEGIC>MOL_PROPERTY
Idih
SciTegic.value.DoubleValue
0.000

@<SCITEGIC>MOL_PROPERTY
Tether
SciTegic.value.DoubleValue
0.000

@<TRIPOS>MOLECULE
guest-s10_confgen4.mol2 : confsearch ligand conformer 342
          20          19           1
SMALL
USER_CHARGES
 
@<TRIPOS>ATOM
       1    N1      21.605025   17.885998   21.651603 N.4        1 MOL1        -0.5937
       2    H1      22.167898   17.592397   22.454615 H          1 MOL1         0.3684
       3    H2      22.039545   18.727295   21.264125 H          1 MOL1         0.3684
       4    H3      21.681788   17.150551   20.943858 H          1 MOL1         0.3684
       5    C1      20.172113   18.131638   22.037467 C.3        1 MOL1         0.1270
       6    H4      19.793448   17.184826   22.434990 H          1 MOL1         0.0960
       7    C2      19.341281   18.504526   20.795906 C.3        1 MOL1        -0.2382
       8    H5      19.473646   17.757340   20.003811 H          1 MOL1         0.1009
       9    H6      19.641497   19.480854   20.395616 H          1 MOL1         0.1009
      10    H7      18.270893   18.542537   21.028386 H          1 MOL1         0.1009
      11    C3      20.067920   19.199665   23.150998 C.3        1 MOL1        -0.1392
      12    H8      20.763105   18.930066   23.957036 H          1 MOL1         0.0998
      13    H9      20.402953   20.171199   22.764058 H          1 MOL1         0.0998
      14    C4      18.648270   19.339278   23.752881 C.3        1 MOL1        -0.1302
      15    H10     18.287184   18.355067   24.083054 H          1 MOL1         0.0998
      16    H11     17.944301   19.697530   22.990001 H          1 MOL1         0.0998
      17    C5      18.629415   20.317919   24.946862 C.3        1 MOL1        -0.2317
      18    H12     19.289907   19.972087   25.752709 H          1 MOL1         0.1009
      19    H13     17.615751   20.407708   25.358580 H          1 MOL1         0.1009
      20    H14     18.958517   21.319759   24.641464 H          1 MOL1         0.1009
@<TRIPOS>BOND
    1     1     2    1
    2     1     3    1
    3     1     4    1
    4     1     5    1
    5     5     6    1
    6     5     7    1
    7     7     8    1
    8     7     9    1
    9     7    10    1
   10     5    11    1
   11    11    12    1
   12    11    13    1
   13    11    14    1
   14    14    15    1
   15    14    16    1
   16    14    17    1
   17    17    18    1
   18    17    19    1
   19    17    20    1
@<TRIPOS>SUBSTRUCTURE
       1 MOL1            1 RESIDUE      1      MOL     
@<SCITEGIC>MOL_PROPERTY
VConf Rank
SciTegic.value.IntegerValue
342

@<SCITEGIC>MOL_PROPERTY
Conf_Id
SciTegic.value.IntegerValue
80

@<SCITEGIC>MOL_PROPERTY
Delta U+W
SciTegic.value.DoubleValue
0.460

@<SCITEGIC>MOL_PROPERTY
U+W
SciTegic.value.DoubleValue
-35.817

@<SCITEGIC>MOL_PROPERTY
Grad RMS
SciTegic.value.DoubleValue
0.000000

@<SCITEGIC>MOL_PROPERTY
U
SciTegic.value.DoubleValue
22.495

@<SCITEGIC>MOL_PROPERTY
W
SciTegic.value.DoubleValue
-58.311

@<SCITEGIC>MOL_PROPERTY
W(PB)
SciTegic.value.DoubleValue
-60.259

@<SCITEGIC>MOL_PROPERTY
W(SA)
SciTegic.value.DoubleValue
1.948

@<SCITEGIC>MOL_PROPERTY
Valence
SciTegic.value.DoubleValue
2.419

@<SCITEGIC>MOL_PROPERTY
Coulomb
SciTegic.value.DoubleValue
19.304

@<SCITEGIC>MOL_PROPERTY
VdW
SciTegic.value.DoubleValue
0.772

@<SCITEGIC>MOL_PROPERTY
VdW6
SciTegic.value.DoubleValue
-4.635

@<SCITEGIC>MOL_PROPERTY
VdW12
SciTegic.value.DoubleValue
5.407

@<SCITEGIC>MOL_PROPERTY
Bond
SciTegic.value.DoubleValue
0.149

@<SCITEGIC>MOL_PROPERTY
Angle
SciTegic.value.DoubleValue
1.142

@<SCITEGIC>MOL_PROPERTY
Pdih
SciTegic.value.DoubleValue
1.129

@<SCITEGIC>MOL_PROPERTY
Idih
SciTegic.value.DoubleValue
0.000

@<SCITEGIC>MOL_PROPERTY
Tether
SciTegic.value.DoubleValue
0.000

@<TRIPOS>MOLECULE
guest-s10_confgen4.mol2 : confsearch ligand conformer 343
          20          19           1
SMALL
USER_CHARGES
 
@<TRIPOS>ATOM
       1    N1      21.865563   19.832142   22.085256 N.4        1 MOL1        -0.5937
       2    H1      22.400877   19.182279   21.503079 H          1 MOL1         0.3684
       3    H2      22.265728   19.801480   23.026328 H          1 MOL1         0.3684
       4    H3      22.028224   20.772832   21.716124 H          1 MOL1         0.3684
       5    C1      20.400606   19.490794   22.096844 C.3        1 MOL1         0.1270
       6    H4      20.062970   19.555242   21.057783 H          1 MOL1         0.0960
       7    C2      19.618479   20.529488   22.918821 C.3        1 MOL1        -0.2382
       8    H5      19.873298   21.547584   22.599931 H          1 MOL1         0.1009
       9    H6      19.842791   20.441266   23.989034 H          1 MOL1         0.1009
      10    H7      18.538395   20.409626   22.777191 H          1 MOL1         0.1009
      11    C3      20.171961   18.039941   22.586828 C.3        1 MOL1        -0.1392
      12    H8      20.795230   17.381242   21.967680 H          1 MOL1         0.0998
      13    H9      20.543250   17.923275   23.613601 H          1 MOL1         0.0998
      14    C4      18.707689   17.536746   22.485120 C.3        1 MOL1        -0.1302
      15    H10     18.721064   16.475538   22.199157 H          1 MOL1         0.0998
      16    H11     18.179212   18.059624   21.675628 H          1 MOL1         0.0998
      17    C5      17.920967   17.661733   23.811197 C.3        1 MOL1        -0.2317
      18    H12     18.401486   17.079645   24.608312 H          1 MOL1         0.1009
      19    H13     16.899756   17.277948   23.689452 H          1 MOL1         0.1009
      20    H14     17.846291   18.700632   24.151279 H          1 MOL1         0.1009
@<TRIPOS>BOND
    1     1     2    1
    2     1     3    1
    3     1     4    1
    4     1     5    1
    5     5     6    1
    6     5     7    1
    7     7     8    1
    8     7     9    1
    9     7    10    1
   10     5    11    1
   11    11    12    1
   12    11    13    1
   13    11    14    1
   14    14    15    1
   15    14    16    1
   16    14    17    1
   17    17    18    1
   18    17    19    1
   19    17    20    1
@<TRIPOS>SUBSTRUCTURE
       1 MOL1            1 RESIDUE      1      MOL     
@<SCITEGIC>MOL_PROPERTY
VConf Rank
SciTegic.value.IntegerValue
343

@<SCITEGIC>MOL_PROPERTY
Conf_Id
SciTegic.value.IntegerValue
52

@<SCITEGIC>MOL_PROPERTY
Delta U+W
SciTegic.value.DoubleValue
2.995

@<SCITEGIC>MOL_PROPERTY
U+W
SciTegic.value.DoubleValue
-33.282

@<SCITEGIC>MOL_PROPERTY
Grad RMS
SciTegic.value.DoubleValue
0.000000

@<SCITEGIC>MOL_PROPERTY
U
SciTegic.value.DoubleValue
25.224

@<SCITEGIC>MOL_PROPERTY
W
SciTegic.value.DoubleValue
-58.506

@<SCITEGIC>MOL_PROPERTY
W(PB)
SciTegic.value.DoubleValue
-60.411

@<SCITEGIC>MOL_PROPERTY
W(SA)
SciTegic.value.DoubleValue
1.905

@<SCITEGIC>MOL_PROPERTY
Valence
SciTegic.value.DoubleValue
4.945

@<SCITEGIC>MOL_PROPERTY
Coulomb
SciTegic.value.DoubleValue
19.467

@<SCITEGIC>MOL_PROPERTY
VdW
SciTegic.value.DoubleValue
0.813

@<SCITEGIC>MOL_PROPERTY
VdW6
SciTegic.value.DoubleValue
-5.458

@<SCITEGIC>MOL_PROPERTY
VdW12
SciTegic.value.DoubleValue
6.270

@<SCITEGIC>MOL_PROPERTY
Bond
SciTegic.value.DoubleValue
0.200

@<SCITEGIC>MOL_PROPERTY
Angle
SciTegic.value.DoubleValue
1.675

@<SCITEGIC>MOL_PROPERTY
Pdih
SciTegic.value.DoubleValue
3.070

@<SCITEGIC>MOL_PROPERTY
Idih
SciTegic.value.DoubleValue
0.000

@<SCITEGIC>MOL_PROPERTY
Tether
SciTegic.value.DoubleValue
0.000

@<TRIPOS>MOLECULE
guest-s10_confgen4.mol2 : confsearch ligand conformer 344
          20          19           1
SMALL
USER_CHARGES
 
@<TRIPOS>ATOM
       1    N1      21.141846   19.627514   23.314306 N.4        1 MOL1        -0.5937
       2    H1      21.015191   20.641702   23.272389 H          1 MOL1         0.3684
       3    H2      22.148700   19.445785   23.343791 H          1 MOL1         0.3684
       4    H3      20.743745   19.305864   24.199203 H          1 MOL1         0.3684
       5    C1      20.491104   18.944596   22.142381 C.3        1 MOL1         0.1270
       6    H4      20.709334   17.875780   22.230378 H          1 MOL1         0.0960
       7    C2      21.111247   19.455545   20.830850 C.3        1 MOL1        -0.2382
       8    H5      20.907417   20.523725   20.684900 H          1 MOL1         0.1009
       9    H6      20.708089   18.909676   19.968796 H          1 MOL1         0.1009
      10    H7      22.198804   19.312193   20.833296 H          1 MOL1         0.1009
      11    C3      18.954693   19.126669   22.119452 C.3        1 MOL1        -0.1392
      12    H8      18.700042   20.181299   22.288225 H          1 MOL1         0.0998
      13    H9      18.588976   18.887700   21.111867 H          1 MOL1         0.0998
      14    C4      18.177943   18.223789   23.113471 C.3        1 MOL1        -0.1302
      15    H10     18.401936   17.167730   22.907072 H          1 MOL1         0.0998
      16    H11     17.103101   18.348033   22.920329 H          1 MOL1         0.0998
      17    C5      18.441736   18.524734   24.606472 C.3        1 MOL1        -0.2317
      18    H12     17.715345   17.992278   25.234275 H          1 MOL1         0.1009
      19    H13     18.343266   19.596824   24.821512 H          1 MOL1         0.1009
      20    H14     19.437879   18.188833   24.916809 H          1 MOL1         0.1009
@<TRIPOS>BOND
    1     1     2    1
    2     1     3    1
    3     1     4    1
    4     1     5    1
    5     5     6    1
    6     5     7    1
    7     7     8    1
    8     7     9    1
    9     7    10    1
   10     5    11    1
   11    11    12    1
   12    11    13    1
   13    11    14    1
   14    14    15    1
   15    14    16    1
   16    14    17    1
   17    17    18    1
   18    17    19    1
   19    17    20    1
@<TRIPOS>SUBSTRUCTURE
       1 MOL1            1 RESIDUE      1      MOL     
@<SCITEGIC>MOL_PROPERTY
VConf Rank
SciTegic.value.IntegerValue
344

@<SCITEGIC>MOL_PROPERTY
Conf_Id
SciTegic.value.IntegerValue
54

@<SCITEGIC>MOL_PROPERTY
Delta U+W
SciTegic.value.DoubleValue
2.752

@<SCITEGIC>MOL_PROPERTY
U+W
SciTegic.value.DoubleValue
-33.525

@<SCITEGIC>MOL_PROPERTY
Grad RMS
SciTegic.value.DoubleValue
0.000000

@<SCITEGIC>MOL_PROPERTY
U
SciTegic.value.DoubleValue
24.337

@<SCITEGIC>MOL_PROPERTY
W
SciTegic.value.DoubleValue
-57.862

@<SCITEGIC>MOL_PROPERTY
W(PB)
SciTegic.value.DoubleValue
-59.764

@<SCITEGIC>MOL_PROPERTY
W(SA)
SciTegic.value.DoubleValue
1.901

@<SCITEGIC>MOL_PROPERTY
Valence
SciTegic.value.DoubleValue
3.593

@<SCITEGIC>MOL_PROPERTY
Coulomb
SciTegic.value.DoubleValue
20.067

@<SCITEGIC>MOL_PROPERTY
VdW
SciTegic.value.DoubleValue
0.677

@<SCITEGIC>MOL_PROPERTY
VdW6
SciTegic.value.DoubleValue
-5.466

@<SCITEGIC>MOL_PROPERTY
VdW12
SciTegic.value.DoubleValue
6.144

@<SCITEGIC>MOL_PROPERTY
Bond
SciTegic.value.DoubleValue
0.191

@<SCITEGIC>MOL_PROPERTY
Angle
SciTegic.value.DoubleValue
1.557

@<SCITEGIC>MOL_PROPERTY
Pdih
SciTegic.value.DoubleValue
1.845

@<SCITEGIC>MOL_PROPERTY
Idih
SciTegic.value.DoubleValue
0.000

@<SCITEGIC>MOL_PROPERTY
Tether
SciTegic.value.DoubleValue
0.000

@<TRIPOS>MOLECULE
guest-s10_confgen4.mol2 : confsearch ligand conformer 345
          20          19           1
SMALL
USER_CHARGES
 
@<TRIPOS>ATOM
       1    N1      18.819055   18.175934   24.364708 N.4        1 MOL1        -0.5937
       2    H1      18.655394   18.313506   25.365679 H          1 MOL1         0.3684
       3    H2      18.797217   17.167754   24.189186 H          1 MOL1         0.3684
       4    H3      18.029155   18.591889   23.866222 H          1 MOL1         0.3684
       5    C1      20.125040   18.784713   23.931490 C.3        1 MOL1         0.1270
       6    H4      20.900585   18.292511   24.526711 H          1 MOL1         0.0960
       7    C2      20.171173   20.287313   24.261502 C.3        1 MOL1        -0.2382
       8    H5      21.123961   20.727714   23.942575 H          1 MOL1         0.1009
       9    H6      20.078017   20.445430   25.342893 H          1 MOL1         0.1009
      10    H7      19.357773   20.835872   23.772107 H          1 MOL1         0.1009
      11    C3      20.444355   18.505822   22.443098 C.3        1 MOL1        -0.1392
      12    H8      21.445473   18.896608   22.217741 H          1 MOL1         0.0998
      13    H9      20.506114   17.419137   22.299191 H          1 MOL1         0.0998
      14    C4      19.425780   19.095341   21.433486 C.3        1 MOL1        -0.1302
      15    H10     19.387753   20.188912   21.526596 H          1 MOL1         0.0998
      16    H11     18.416316   18.721391   21.650985 H          1 MOL1         0.0998
      17    C5      19.794318   18.731128   19.979232 C.3        1 MOL1        -0.2317
      18    H12     19.066238   19.156719   19.276495 H          1 MOL1         0.1009
      19    H13     19.804677   17.642925   19.834572 H          1 MOL1         0.1009
      20    H14     20.785684   19.120682   19.713401 H          1 MOL1         0.1009
@<TRIPOS>BOND
    1     1     2    1
    2     1     3    1
    3     1     4    1
    4     1     5    1
    5     5     6    1
    6     5     7    1
    7     7     8    1
    8     7     9    1
    9     7    10    1
   10     5    11    1
   11    11    12    1
   12    11    13    1
   13    11    14    1
   14    14    15    1
   15    14    16    1
   16    14    17    1
   17    17    18    1
   18    17    19    1
   19    17    20    1
@<TRIPOS>SUBSTRUCTURE
       1 MOL1            1 RESIDUE      1      MOL     
@<SCITEGIC>MOL_PROPERTY
VConf Rank
SciTegic.value.IntegerValue
345

@<SCITEGIC>MOL_PROPERTY
Conf_Id
SciTegic.value.IntegerValue
63

@<SCITEGIC>MOL_PROPERTY
Delta U+W
SciTegic.value.DoubleValue
0.420

@<SCITEGIC>MOL_PROPERTY
U+W
SciTegic.value.DoubleValue
-35.856

@<SCITEGIC>MOL_PROPERTY
Grad RMS
SciTegic.value.DoubleValue
0.000000

@<SCITEGIC>MOL_PROPERTY
U
SciTegic.value.DoubleValue
22.625

@<SCITEGIC>MOL_PROPERTY
W
SciTegic.value.DoubleValue
-58.481

@<SCITEGIC>MOL_PROPERTY
W(PB)
SciTegic.value.DoubleValue
-60.400

@<SCITEGIC>MOL_PROPERTY
W(SA)
SciTegic.value.DoubleValue
1.919

@<SCITEGIC>MOL_PROPERTY
Valence
SciTegic.value.DoubleValue
2.404

@<SCITEGIC>MOL_PROPERTY
Coulomb
SciTegic.value.DoubleValue
19.464

@<SCITEGIC>MOL_PROPERTY
VdW
SciTegic.value.DoubleValue
0.757

@<SCITEGIC>MOL_PROPERTY
VdW6
SciTegic.value.DoubleValue
-5.074

@<SCITEGIC>MOL_PROPERTY
VdW12
SciTegic.value.DoubleValue
5.830

@<SCITEGIC>MOL_PROPERTY
Bond
SciTegic.value.DoubleValue
0.172

@<SCITEGIC>MOL_PROPERTY
Angle
SciTegic.value.DoubleValue
1.207

@<SCITEGIC>MOL_PROPERTY
Pdih
SciTegic.value.DoubleValue
1.025

@<SCITEGIC>MOL_PROPERTY
Idih
SciTegic.value.DoubleValue
0.000

@<SCITEGIC>MOL_PROPERTY
Tether
SciTegic.value.DoubleValue
0.000

@<TRIPOS>MOLECULE
guest-s10_confgen4.mol2 : confsearch ligand conformer 346
          20          19           1
SMALL
USER_CHARGES
 
@<TRIPOS>ATOM
       1    N1      18.393300   19.546422   21.687985 N.4        1 MOL1        -0.5937
       2    H1      18.026764   18.595385   21.777735 H          1 MOL1         0.3684
       3    H2      18.744218   19.652461   20.732981 H          1 MOL1         0.3684
       4    H3      17.604689   20.189600   21.797338 H          1 MOL1         0.3684
       5    C1      19.470126   19.815535   22.703959 C.3        1 MOL1         0.1270
       6    H4      19.013022   19.684207   23.689321 H          1 MOL1         0.0960
       7    C2      19.967293   21.266365   22.597049 C.3        1 MOL1        -0.2382
       8    H5      19.136582   21.971776   22.721755 H          1 MOL1         0.1009
       9    H6      20.433305   21.456199   21.622087 H          1 MOL1         0.1009
      10    H7      20.707367   21.483222   23.377360 H          1 MOL1         0.1009
      11    C3      20.655146   18.830450   22.584310 C.3        1 MOL1        -0.1392
      12    H8      21.138123   18.958645   21.606490 H          1 MOL1         0.0998
      13    H9      21.412287   19.089464   23.336358 H          1 MOL1         0.0998
      14    C4      20.264252   17.341701   22.765215 C.3        1 MOL1        -0.1302
      15    H10     21.167528   16.724669   22.659065 H          1 MOL1         0.0998
      16    H11     19.587175   17.025964   21.959956 H          1 MOL1         0.0998
      17    C5      19.615689   17.047952   24.137238 C.3        1 MOL1        -0.2317
      18    H12     20.275151   17.355533   24.959238 H          1 MOL1         0.1009
      19    H13     19.421617   15.973239   24.248575 H          1 MOL1         0.1009
      20    H14     18.657723   17.570343   24.252586 H          1 MOL1         0.1009
@<TRIPOS>BOND
    1     1     2    1
    2     1     3    1
    3     1     4    1
    4     1     5    1
    5     5     6    1
    6     5     7    1
    7     7     8    1
    8     7     9    1
    9     7    10    1
   10     5    11    1
   11    11    12    1
   12    11    13    1
   13    11    14    1
   14    14    15    1
   15    14    16    1
   16    14    17    1
   17    17    18    1
   18    17    19    1
   19    17    20    1
@<TRIPOS>SUBSTRUCTURE
       1 MOL1            1 RESIDUE      1      MOL     
@<SCITEGIC>MOL_PROPERTY
VConf Rank
SciTegic.value.IntegerValue
346

@<SCITEGIC>MOL_PROPERTY
Conf_Id
SciTegic.value.IntegerValue
50

@<SCITEGIC>MOL_PROPERTY
Delta U+W
SciTegic.value.DoubleValue
0.466

@<SCITEGIC>MOL_PROPERTY
U+W
SciTegic.value.DoubleValue
-35.811

@<SCITEGIC>MOL_PROPERTY
Grad RMS
SciTegic.value.DoubleValue
0.000000

@<SCITEGIC>MOL_PROPERTY
U
SciTegic.value.DoubleValue
22.369

@<SCITEGIC>MOL_PROPERTY
W
SciTegic.value.DoubleValue
-58.180

@<SCITEGIC>MOL_PROPERTY
W(PB)
SciTegic.value.DoubleValue
-60.103

@<SCITEGIC>MOL_PROPERTY
W(SA)
SciTegic.value.DoubleValue
1.923

@<SCITEGIC>MOL_PROPERTY
Valence
SciTegic.value.DoubleValue
2.168

@<SCITEGIC>MOL_PROPERTY
Coulomb
SciTegic.value.DoubleValue
19.636

@<SCITEGIC>MOL_PROPERTY
VdW
SciTegic.value.DoubleValue
0.566

@<SCITEGIC>MOL_PROPERTY
VdW6
SciTegic.value.DoubleValue
-5.263

@<SCITEGIC>MOL_PROPERTY
VdW12
SciTegic.value.DoubleValue
5.829

@<SCITEGIC>MOL_PROPERTY
Bond
SciTegic.value.DoubleValue
0.162

@<SCITEGIC>MOL_PROPERTY
Angle
SciTegic.value.DoubleValue
1.066

@<SCITEGIC>MOL_PROPERTY
Pdih
SciTegic.value.DoubleValue
0.939

@<SCITEGIC>MOL_PROPERTY
Idih
SciTegic.value.DoubleValue
0.000

@<SCITEGIC>MOL_PROPERTY
Tether
SciTegic.value.DoubleValue
0.000

@<TRIPOS>MOLECULE
guest-s10_confgen4.mol2 : confsearch ligand conformer 347
          20          19           1
SMALL
USER_CHARGES
 
@<TRIPOS>ATOM
       1    N1      17.980223   18.960040   24.306977 N.4        1 MOL1        -0.5937
       2    H1      17.436867   19.790484   24.055732 H          1 MOL1         0.3684
       3    H2      18.411564   19.138997   25.217357 H          1 MOL1         0.3684
       4    H3      17.316473   18.190730   24.430805 H          1 MOL1         0.3684
       5    C1      19.011816   18.634324   23.260887 C.3        1 MOL1         0.1270
       6    H4      18.459838   18.463872   22.331356 H          1 MOL1         0.0960
       7    C2      19.754501   17.339093   23.638722 C.3        1 MOL1        -0.2382
       8    H5      20.284795   17.451478   24.592568 H          1 MOL1         0.1009
       9    H6      20.489580   17.059110   22.876450 H          1 MOL1         0.1009
      10    H7      19.049390   16.504963   23.739588 H          1 MOL1         0.1009
      11    C3      19.992528   19.810408   23.030099 C.3        1 MOL1        -0.1392
      12    H8      19.555988   20.728922   23.444148 H          1 MOL1         0.0998
      13    H9      20.924102   19.648340   23.588594 H          1 MOL1         0.0998
      14    C4      20.306684   20.081693   21.536950 C.3        1 MOL1        -0.1302
      15    H10     20.942753   20.975416   21.469076 H          1 MOL1         0.0998
      16    H11     19.377013   20.327968   21.004839 H          1 MOL1         0.0998
      17    C5      21.014553   18.912415   20.817267 C.3        1 MOL1        -0.2317
      18    H12     21.926979   18.613571   21.349431 H          1 MOL1         0.1009
      19    H13     21.302122   19.206549   19.799510 H          1 MOL1         0.1009
      20    H14     20.357909   18.037672   20.731973 H          1 MOL1         0.1009
@<TRIPOS>BOND
    1     1     2    1
    2     1     3    1
    3     1     4    1
    4     1     5    1
    5     5     6    1
    6     5     7    1
    7     7     8    1
    8     7     9    1
    9     7    10    1
   10     5    11    1
   11    11    12    1
   12    11    13    1
   13    11    14    1
   14    14    15    1
   15    14    16    1
   16    14    17    1
   17    17    18    1
   18    17    19    1
   19    17    20    1
@<TRIPOS>SUBSTRUCTURE
       1 MOL1            1 RESIDUE      1      MOL     
@<SCITEGIC>MOL_PROPERTY
VConf Rank
SciTegic.value.IntegerValue
347

@<SCITEGIC>MOL_PROPERTY
Conf_Id
SciTegic.value.IntegerValue
3

@<SCITEGIC>MOL_PROPERTY
Delta U+W
SciTegic.value.DoubleValue
3.093

@<SCITEGIC>MOL_PROPERTY
U+W
SciTegic.value.DoubleValue
-33.184

@<SCITEGIC>MOL_PROPERTY
Grad RMS
SciTegic.value.DoubleValue
0.000000

@<SCITEGIC>MOL_PROPERTY
U
SciTegic.value.DoubleValue
25.256

@<SCITEGIC>MOL_PROPERTY
W
SciTegic.value.DoubleValue
-58.439

@<SCITEGIC>MOL_PROPERTY
W(PB)
SciTegic.value.DoubleValue
-60.337

@<SCITEGIC>MOL_PROPERTY
W(SA)
SciTegic.value.DoubleValue
1.898

@<SCITEGIC>MOL_PROPERTY
Valence
SciTegic.value.DoubleValue
4.963

@<SCITEGIC>MOL_PROPERTY
Coulomb
SciTegic.value.DoubleValue
19.511

@<SCITEGIC>MOL_PROPERTY
VdW
SciTegic.value.DoubleValue
0.782

@<SCITEGIC>MOL_PROPERTY
VdW6
SciTegic.value.DoubleValue
-5.429

@<SCITEGIC>MOL_PROPERTY
VdW12
SciTegic.value.DoubleValue
6.211

@<SCITEGIC>MOL_PROPERTY
Bond
SciTegic.value.DoubleValue
0.174

@<SCITEGIC>MOL_PROPERTY
Angle
SciTegic.value.DoubleValue
1.377

@<SCITEGIC>MOL_PROPERTY
Pdih
SciTegic.value.DoubleValue
3.412

@<SCITEGIC>MOL_PROPERTY
Idih
SciTegic.value.DoubleValue
0.000

@<SCITEGIC>MOL_PROPERTY
Tether
SciTegic.value.DoubleValue
0.000

@<TRIPOS>MOLECULE
guest-s10_confgen4.mol2 : confsearch ligand conformer 348
          20          19           1
SMALL
USER_CHARGES
 
@<TRIPOS>ATOM
       1    N1      18.477996   19.205768   20.841473 N.4        1 MOL1        -0.5937
       2    H1      17.499933   18.918593   20.748958 H          1 MOL1         0.3684
       3    H2      19.015717   18.674257   20.151413 H          1 MOL1         0.3684
       4    H3      18.531231   20.192682   20.577181 H          1 MOL1         0.3684
       5    C1      18.988933   18.979319   22.237913 C.3        1 MOL1         0.1270
       6    H4      18.889638   17.906871   22.430505 H          1 MOL1         0.0960
       7    C2      18.119027   19.738684   23.256113 C.3        1 MOL1        -0.2382
       8    H5      18.389448   19.474968   24.285123 H          1 MOL1         0.1009
       9    H6      17.059801   19.486122   23.124251 H          1 MOL1         0.1009
      10    H7      18.227172   20.824126   23.139460 H          1 MOL1         0.1009
      11    C3      20.484766   19.357696   22.355142 C.3        1 MOL1        -0.1392
      12    H8      21.039498   18.849054   21.555716 H          1 MOL1         0.0998
      13    H9      20.602965   20.433649   22.170508 H          1 MOL1         0.0998
      14    C4      21.146589   19.000988   23.710816 C.3        1 MOL1        -0.1302
      15    H10     20.702451   19.595508   24.520483 H          1 MOL1         0.0998
      16    H11     22.205936   19.291050   23.672248 H          1 MOL1         0.0998
      17    C5      21.051595   17.496935   24.054254 C.3        1 MOL1        -0.2317
      18    H12     21.487536   16.881363   23.256642 H          1 MOL1         0.1009
      19    H13     20.010873   17.181836   24.201474 H          1 MOL1         0.1009
      20    H14     21.597198   17.278996   24.981528 H          1 MOL1         0.1009
@<TRIPOS>BOND
    1     1     2    1
    2     1     3    1
    3     1     4    1
    4     1     5    1
    5     5     6    1
    6     5     7    1
    7     7     8    1
    8     7     9    1
    9     7    10    1
   10     5    11    1
   11    11    12    1
   12    11    13    1
   13    11    14    1
   14    14    15    1
   15    14    16    1
   16    14    17    1
   17    17    18    1
   18    17    19    1
   19    17    20    1
@<TRIPOS>SUBSTRUCTURE
       1 MOL1            1 RESIDUE      1      MOL     
@<SCITEGIC>MOL_PROPERTY
VConf Rank
SciTegic.value.IntegerValue
348

@<SCITEGIC>MOL_PROPERTY
Conf_Id
SciTegic.value.IntegerValue
64

@<SCITEGIC>MOL_PROPERTY
Delta U+W
SciTegic.value.DoubleValue
0.544

@<SCITEGIC>MOL_PROPERTY
U+W
SciTegic.value.DoubleValue
-35.732

@<SCITEGIC>MOL_PROPERTY
Grad RMS
SciTegic.value.DoubleValue
0.000000

@<SCITEGIC>MOL_PROPERTY
U
SciTegic.value.DoubleValue
22.800

@<SCITEGIC>MOL_PROPERTY
W
SciTegic.value.DoubleValue
-58.532

@<SCITEGIC>MOL_PROPERTY
W(PB)
SciTegic.value.DoubleValue
-60.437

@<SCITEGIC>MOL_PROPERTY
W(SA)
SciTegic.value.DoubleValue
1.905

@<SCITEGIC>MOL_PROPERTY
Valence
SciTegic.value.DoubleValue
2.662

@<SCITEGIC>MOL_PROPERTY
Coulomb
SciTegic.value.DoubleValue
19.485

@<SCITEGIC>MOL_PROPERTY
VdW
SciTegic.value.DoubleValue
0.653

@<SCITEGIC>MOL_PROPERTY
VdW6
SciTegic.value.DoubleValue
-5.460

@<SCITEGIC>MOL_PROPERTY
VdW12
SciTegic.value.DoubleValue
6.113

@<SCITEGIC>MOL_PROPERTY
Bond
SciTegic.value.DoubleValue
0.174

@<SCITEGIC>MOL_PROPERTY
Angle
SciTegic.value.DoubleValue
1.378

@<SCITEGIC>MOL_PROPERTY
Pdih
SciTegic.value.DoubleValue
1.109

@<SCITEGIC>MOL_PROPERTY
Idih
SciTegic.value.DoubleValue
0.000

@<SCITEGIC>MOL_PROPERTY
Tether
SciTegic.value.DoubleValue
0.000

@<TRIPOS>MOLECULE
guest-s10_confgen4.mol2 : confsearch ligand conformer 349
          20          19           1
SMALL
USER_CHARGES
 
@<TRIPOS>ATOM
       1    N1      19.013138   18.018663   20.951297 N.4        1 MOL1        -0.5937
       2    H1      19.796382   18.560656   20.579752 H          1 MOL1         0.3684
       3    H2      18.202490   18.204699   20.354761 H          1 MOL1         0.3684
       4    H3      19.247191   17.027925   20.844916 H          1 MOL1         0.3684
       5    C1      18.731887   18.370100   22.387340 C.3        1 MOL1         0.1270
       6    H4      17.879395   17.751657   22.685248 H          1 MOL1         0.0960
       7    C2      18.300489   19.840021   22.517540 C.3        1 MOL1        -0.2382
       8    H5      19.058205   20.518576   22.108715 H          1 MOL1         0.1009
       9    H6      18.124316   20.104277   23.567526 H          1 MOL1         0.1009
      10    H7      17.366622   20.014805   21.969531 H          1 MOL1         0.1009
      11    C3      19.907917   18.000073   23.325943 C.3        1 MOL1        -0.1392
      12    H8      19.589069   18.111572   24.370644 H          1 MOL1         0.0998
      13    H9      20.104569   16.927496   23.197928 H          1 MOL1         0.0998
      14    C4      21.238446   18.769584   23.096230 C.3        1 MOL1        -0.1302
      15    H10     21.355215   19.043668   22.039526 H          1 MOL1         0.0998
      16    H11     22.073553   18.092094   23.323357 H          1 MOL1         0.0998
      17    C5      21.390489   20.022152   23.991051 C.3        1 MOL1        -0.2317
      18    H12     20.615388   20.769964   23.791119 H          1 MOL1         0.1009
      19    H13     22.363282   20.500541   23.818475 H          1 MOL1         0.1009
      20    H14     21.336574   19.754421   25.054280 H          1 MOL1         0.1009
@<TRIPOS>BOND
    1     1     2    1
    2     1     3    1
    3     1     4    1
    4     1     5    1
    5     5     6    1
    6     5     7    1
    7     7     8    1
    8     7     9    1
    9     7    10    1
   10     5    11    1
   11    11    12    1
   12    11    13    1
   13    11    14    1
   14    14    15    1
   15    14    16    1
   16    14    17    1
   17    17    18    1
   18    17    19    1
   19    17    20    1
@<TRIPOS>SUBSTRUCTURE
       1 MOL1            1 RESIDUE      1      MOL     
@<SCITEGIC>MOL_PROPERTY
VConf Rank
SciTegic.value.IntegerValue
349

@<SCITEGIC>MOL_PROPERTY
Conf_Id
SciTegic.value.IntegerValue
35

@<SCITEGIC>MOL_PROPERTY
Delta U+W
SciTegic.value.DoubleValue
3.004

@<SCITEGIC>MOL_PROPERTY
U+W
SciTegic.value.DoubleValue
-33.272

@<SCITEGIC>MOL_PROPERTY
Grad RMS
SciTegic.value.DoubleValue
0.000000

@<SCITEGIC>MOL_PROPERTY
U
SciTegic.value.DoubleValue
25.367

@<SCITEGIC>MOL_PROPERTY
W
SciTegic.value.DoubleValue
-58.639

@<SCITEGIC>MOL_PROPERTY
W(PB)
SciTegic.value.DoubleValue
-60.512

@<SCITEGIC>MOL_PROPERTY
W(SA)
SciTegic.value.DoubleValue
1.873

@<SCITEGIC>MOL_PROPERTY
Valence
SciTegic.value.DoubleValue
4.943

@<SCITEGIC>MOL_PROPERTY
Coulomb
SciTegic.value.DoubleValue
19.661

@<SCITEGIC>MOL_PROPERTY
VdW
SciTegic.value.DoubleValue
0.764

@<SCITEGIC>MOL_PROPERTY
VdW6
SciTegic.value.DoubleValue
-5.871

@<SCITEGIC>MOL_PROPERTY
VdW12
SciTegic.value.DoubleValue
6.636

@<SCITEGIC>MOL_PROPERTY
Bond
SciTegic.value.DoubleValue
0.230

@<SCITEGIC>MOL_PROPERTY
Angle
SciTegic.value.DoubleValue
1.857

@<SCITEGIC>MOL_PROPERTY
Pdih
SciTegic.value.DoubleValue
2.855

@<SCITEGIC>MOL_PROPERTY
Idih
SciTegic.value.DoubleValue
0.000

@<SCITEGIC>MOL_PROPERTY
Tether
SciTegic.value.DoubleValue
0.000

@<TRIPOS>MOLECULE
guest-s10_confgen4.mol2 : confsearch ligand conformer 350
          20          19           1
SMALL
USER_CHARGES
 
@<TRIPOS>ATOM
       1    N1      18.190379   19.067559   21.948119 N.4        1 MOL1        -0.5937
       2    H1      17.763478   19.442080   21.096596 H          1 MOL1         0.3684
       3    H2      17.436793   18.909067   22.622337 H          1 MOL1         0.3684
       4    H3      18.592153   18.156563   21.718640 H          1 MOL1         0.3684
       5    C1      19.234492   20.000083   22.498292 C.3        1 MOL1         0.1270
       6    H4      18.700396   20.926181   22.732835 H          1 MOL1         0.0960
       7    C2      20.297754   20.340277   21.438928 C.3        1 MOL1        -0.2382
       8    H5      20.815873   19.442145   21.082269 H          1 MOL1         0.1009
       9    H6      21.046326   21.030589   21.847008 H          1 MOL1         0.1009
      10    H7      19.834469   20.826756   20.571938 H          1 MOL1         0.1009
      11    C3      19.861001   19.496098   23.823734 C.3        1 MOL1        -0.1392
      12    H8      20.355740   20.350844   24.303511 H          1 MOL1         0.0998
      13    H9      19.054915   19.204432   24.509572 H          1 MOL1         0.0998
      14    C4      20.896336   18.340382   23.728876 C.3        1 MOL1        -0.1302
      15    H10     21.272229   18.137850   24.741551 H          1 MOL1         0.0998
      16    H11     21.772309   18.660318   23.148407 H          1 MOL1         0.0998
      17    C5      20.339787   17.021613   23.145762 C.3        1 MOL1        -0.2317
      18    H12     19.412939   16.722022   23.652061 H          1 MOL1         0.1009
      19    H13     21.067872   16.210736   23.278209 H          1 MOL1         0.1009
      20    H14     20.145369   17.105951   22.070422 H          1 MOL1         0.1009
@<TRIPOS>BOND
    1     1     2    1
    2     1     3    1
    3     1     4    1
    4     1     5    1
    5     5     6    1
    6     5     7    1
    7     7     8    1
    8     7     9    1
    9     7    10    1
   10     5    11    1
   11    11    12    1
   12    11    13    1
   13    11    14    1
   14    14    15    1
   15    14    16    1
   16    14    17    1
   17    17    18    1
   18    17    19    1
   19    17    20    1
@<TRIPOS>SUBSTRUCTURE
       1 MOL1            1 RESIDUE      1      MOL     
@<SCITEGIC>MOL_PROPERTY
VConf Rank
SciTegic.value.IntegerValue
350

@<SCITEGIC>MOL_PROPERTY
Conf_Id
SciTegic.value.IntegerValue
55

@<SCITEGIC>MOL_PROPERTY
Delta U+W
SciTegic.value.DoubleValue
2.767

@<SCITEGIC>MOL_PROPERTY
U+W
SciTegic.value.DoubleValue
-33.509

@<SCITEGIC>MOL_PROPERTY
Grad RMS
SciTegic.value.DoubleValue
0.000000

@<SCITEGIC>MOL_PROPERTY
U
SciTegic.value.DoubleValue
24.552

@<SCITEGIC>MOL_PROPERTY
W
SciTegic.value.DoubleValue
-58.061

@<SCITEGIC>MOL_PROPERTY
W(PB)
SciTegic.value.DoubleValue
-59.930

@<SCITEGIC>MOL_PROPERTY
W(SA)
SciTegic.value.DoubleValue
1.869

@<SCITEGIC>MOL_PROPERTY
Valence
SciTegic.value.DoubleValue
3.726

@<SCITEGIC>MOL_PROPERTY
Coulomb
SciTegic.value.DoubleValue
20.219

@<SCITEGIC>MOL_PROPERTY
VdW
SciTegic.value.DoubleValue
0.606

@<SCITEGIC>MOL_PROPERTY
VdW6
SciTegic.value.DoubleValue
-6.395

@<SCITEGIC>MOL_PROPERTY
VdW12
SciTegic.value.DoubleValue
7.001

@<SCITEGIC>MOL_PROPERTY
Bond
SciTegic.value.DoubleValue
0.241

@<SCITEGIC>MOL_PROPERTY
Angle
SciTegic.value.DoubleValue
2.098

@<SCITEGIC>MOL_PROPERTY
Pdih
SciTegic.value.DoubleValue
1.387

@<SCITEGIC>MOL_PROPERTY
Idih
SciTegic.value.DoubleValue
0.000

@<SCITEGIC>MOL_PROPERTY
Tether
SciTegic.value.DoubleValue
0.000

@<TRIPOS>MOLECULE
guest-s10_confgen4.mol2 : confsearch ligand conformer 351
          20          19           1
SMALL
USER_CHARGES
 
@<TRIPOS>ATOM
       1    N1      21.049369   19.585772   24.056152 N.4        1 MOL1        -0.5937
       2    H1      21.620382   20.156422   23.427783 H          1 MOL1         0.3684
       3    H2      21.640570   19.319076   24.847993 H          1 MOL1         0.3684
       4    H3      20.303568   20.183063   24.421672 H          1 MOL1         0.3684
       5    C1      20.494032   18.377253   23.351777 C.3        1 MOL1         0.1270
       6    H4      19.897951   17.829693   24.088495 H          1 MOL1         0.0960
       7    C2      21.631900   17.459395   22.875584 C.3        1 MOL1        -0.2382
       8    H5      22.267256   17.159238   23.717899 H          1 MOL1         0.1009
       9    H6      22.263913   17.962368   22.133041 H          1 MOL1         0.1009
      10    H7      21.231111   16.545427   22.419877 H          1 MOL1         0.1009
      11    C3      19.574390   18.750589   22.168126 C.3        1 MOL1        -0.1392
      12    H8      20.143780   19.322739   21.423576 H          1 MOL1         0.0998
      13    H9      19.246399   17.828468   21.669946 H          1 MOL1         0.0998
      14    C4      18.324982   19.554507   22.601961 C.3        1 MOL1        -0.1302
      15    H10     18.625731   20.509575   23.053427 H          1 MOL1         0.0998
      16    H11     17.775269   18.996824   23.373354 H          1 MOL1         0.0998
      17    C5      17.386427   19.836779   21.409174 C.3        1 MOL1        -0.2317
      18    H12     17.898715   20.420119   20.632945 H          1 MOL1         0.1009
      19    H13     16.507348   20.408265   21.734303 H          1 MOL1         0.1009
      20    H14     17.030914   18.902355   20.955640 H          1 MOL1         0.1009
@<TRIPOS>BOND
    1     1     2    1
    2     1     3    1
    3     1     4    1
    4     1     5    1
    5     5     6    1
    6     5     7    1
    7     7     8    1
    8     7     9    1
    9     7    10    1
   10     5    11    1
   11    11    12    1
   12    11    13    1
   13    11    14    1
   14    14    15    1
   15    14    16    1
   16    14    17    1
   17    17    18    1
   18    17    19    1
   19    17    20    1
@<TRIPOS>SUBSTRUCTURE
       1 MOL1            1 RESIDUE      1      MOL     
@<SCITEGIC>MOL_PROPERTY
VConf Rank
SciTegic.value.IntegerValue
351

@<SCITEGIC>MOL_PROPERTY
Conf_Id
SciTegic.value.IntegerValue
74

@<SCITEGIC>MOL_PROPERTY
Delta U+W
SciTegic.value.DoubleValue
0.000

@<SCITEGIC>MOL_PROPERTY
U+W
SciTegic.value.DoubleValue
-36.276

@<SCITEGIC>MOL_PROPERTY
Grad RMS
SciTegic.value.DoubleValue
0.000000

@<SCITEGIC>MOL_PROPERTY
U
SciTegic.value.DoubleValue
22.080

@<SCITEGIC>MOL_PROPERTY
W
SciTegic.value.DoubleValue
-58.356

@<SCITEGIC>MOL_PROPERTY
W(PB)
SciTegic.value.DoubleValue
-60.289

@<SCITEGIC>MOL_PROPERTY
W(SA)
SciTegic.value.DoubleValue
1.932

@<SCITEGIC>MOL_PROPERTY
Valence
SciTegic.value.DoubleValue
1.885

@<SCITEGIC>MOL_PROPERTY
Coulomb
SciTegic.value.DoubleValue
19.559

@<SCITEGIC>MOL_PROPERTY
VdW
SciTegic.value.DoubleValue
0.637

@<SCITEGIC>MOL_PROPERTY
VdW6
SciTegic.value.DoubleValue
-4.482

@<SCITEGIC>MOL_PROPERTY
VdW12
SciTegic.value.DoubleValue
5.119

@<SCITEGIC>MOL_PROPERTY
Bond
SciTegic.value.DoubleValue
0.136

@<SCITEGIC>MOL_PROPERTY
Angle
SciTegic.value.DoubleValue
0.867

@<SCITEGIC>MOL_PROPERTY
Pdih
SciTegic.value.DoubleValue
0.882

@<SCITEGIC>MOL_PROPERTY
Idih
SciTegic.value.DoubleValue
0.000

@<SCITEGIC>MOL_PROPERTY
Tether
SciTegic.value.DoubleValue
0.000

@<TRIPOS>MOLECULE
guest-s10_confgen4.mol2 : confsearch ligand conformer 352
          20          19           1
SMALL
USER_CHARGES
 
@<TRIPOS>ATOM
       1    N1      18.245280   19.968893   24.273841 N.4        1 MOL1        -0.5937
       2    H1      17.414917   20.121116   23.694893 H          1 MOL1         0.3684
       3    H2      18.727456   20.867112   24.360074 H          1 MOL1         0.3684
       4    H3      17.918439   19.708253   25.208144 H          1 MOL1         0.3684
       5    C1      19.143674   18.913090   23.690202 C.3        1 MOL1         0.1270
       6    H4      18.548565   17.995968   23.639227 H          1 MOL1         0.0960
       7    C2      20.345552   18.661642   24.619214 C.3        1 MOL1        -0.2382
       8    H5      20.006645   18.451366   25.641049 H          1 MOL1         0.1009
       9    H6      21.009816   19.534052   24.654325 H          1 MOL1         0.1009
      10    H7      20.931476   17.796335   24.288820 H          1 MOL1         0.1009
      11    C3      19.583828   19.284181   22.254917 C.3        1 MOL1        -0.1392
      12    H8      18.690546   19.555284   21.676805 H          1 MOL1         0.0998
      13    H9      20.219121   20.179433   22.282786 H          1 MOL1         0.0998
      14    C4      20.322008   18.143550   21.512479 C.3        1 MOL1        -0.1302
      15    H10     19.713119   17.228888   21.539271 H          1 MOL1         0.0998
      16    H11     21.269223   17.910734   22.016939 H          1 MOL1         0.0998
      17    C5      20.618465   18.517801   20.044238 C.3        1 MOL1        -0.2317
      18    H12     19.691099   18.716675   19.491356 H          1 MOL1         0.1009
      19    H13     21.144754   17.700345   19.534459 H          1 MOL1         0.1009
      20    H14     21.250473   19.413521   19.984976 H          1 MOL1         0.1009
@<TRIPOS>BOND
    1     1     2    1
    2     1     3    1
    3     1     4    1
    4     1     5    1
    5     5     6    1
    6     5     7    1
    7     7     8    1
    8     7     9    1
    9     7    10    1
   10     5    11    1
   11    11    12    1
   12    11    13    1
   13    11    14    1
   14    14    15    1
   15    14    16    1
   16    14    17    1
   17    17    18    1
   18    17    19    1
   19    17    20    1
@<TRIPOS>SUBSTRUCTURE
       1 MOL1            1 RESIDUE      1      MOL     
@<SCITEGIC>MOL_PROPERTY
VConf Rank
SciTegic.value.IntegerValue
352

@<SCITEGIC>MOL_PROPERTY
Conf_Id
SciTegic.value.IntegerValue
80

@<SCITEGIC>MOL_PROPERTY
Delta U+W
SciTegic.value.DoubleValue
0.460

@<SCITEGIC>MOL_PROPERTY
U+W
SciTegic.value.DoubleValue
-35.817

@<SCITEGIC>MOL_PROPERTY
Grad RMS
SciTegic.value.DoubleValue
0.000000

@<SCITEGIC>MOL_PROPERTY
U
SciTegic.value.DoubleValue
22.495

@<SCITEGIC>MOL_PROPERTY
W
SciTegic.value.DoubleValue
-58.311

@<SCITEGIC>MOL_PROPERTY
W(PB)
SciTegic.value.DoubleValue
-60.259

@<SCITEGIC>MOL_PROPERTY
W(SA)
SciTegic.value.DoubleValue
1.948

@<SCITEGIC>MOL_PROPERTY
Valence
SciTegic.value.DoubleValue
2.419

@<SCITEGIC>MOL_PROPERTY
Coulomb
SciTegic.value.DoubleValue
19.304

@<SCITEGIC>MOL_PROPERTY
VdW
SciTegic.value.DoubleValue
0.772

@<SCITEGIC>MOL_PROPERTY
VdW6
SciTegic.value.DoubleValue
-4.635

@<SCITEGIC>MOL_PROPERTY
VdW12
SciTegic.value.DoubleValue
5.407

@<SCITEGIC>MOL_PROPERTY
Bond
SciTegic.value.DoubleValue
0.149

@<SCITEGIC>MOL_PROPERTY
Angle
SciTegic.value.DoubleValue
1.142

@<SCITEGIC>MOL_PROPERTY
Pdih
SciTegic.value.DoubleValue
1.129

@<SCITEGIC>MOL_PROPERTY
Idih
SciTegic.value.DoubleValue
0.000

@<SCITEGIC>MOL_PROPERTY
Tether
SciTegic.value.DoubleValue
0.000

@<TRIPOS>MOLECULE
guest-s10_confgen4.mol2 : confsearch ligand conformer 353
          20          19           1
SMALL
USER_CHARGES
 
@<TRIPOS>ATOM
       1    N1      21.974063   18.289487   23.424838 N.4        1 MOL1        -0.5937
       2    H1      21.957855   17.503237   24.080092 H          1 MOL1         0.3684
       3    H2      22.125928   19.140888   23.971412 H          1 MOL1         0.3684
       4    H3      22.792436   18.164464   22.822965 H          1 MOL1         0.3684
       5    C1      20.705622   18.368878   22.620162 C.3        1 MOL1         0.1270
       6    H4      20.632517   17.425624   22.069955 H          1 MOL1         0.0960
       7    C2      20.795372   19.513568   21.596499 C.3        1 MOL1        -0.2382
       8    H5      21.727129   19.447089   21.021562 H          1 MOL1         0.1009
       9    H6      20.768767   20.492668   22.090573 H          1 MOL1         0.1009
      10    H7      19.970064   19.462617   20.877279 H          1 MOL1         0.1009
      11    C3      19.468027   18.483223   23.543536 C.3        1 MOL1        -0.1392
      12    H8      19.511446   17.649731   24.257047 H          1 MOL1         0.0998
      13    H9      19.529346   19.397386   24.148743 H          1 MOL1         0.0998
      14    C4      18.098983   18.411475   22.816752 C.3        1 MOL1        -0.1302
      15    H10     17.393621   17.857708   23.452303 H          1 MOL1         0.0998
      16    H11     18.188820   17.829059   21.889020 H          1 MOL1         0.0998
      17    C5      17.484798   19.800680   22.523629 C.3        1 MOL1        -0.2317
      18    H12     17.321062   20.360873   23.453409 H          1 MOL1         0.1009
      19    H13     16.512650   19.693303   22.025250 H          1 MOL1         0.1009
      20    H14     18.125331   20.407102   21.873620 H          1 MOL1         0.1009
@<TRIPOS>BOND
    1     1     2    1
    2     1     3    1
    3     1     4    1
    4     1     5    1
    5     5     6    1
    6     5     7    1
    7     7     8    1
    8     7     9    1
    9     7    10    1
   10     5    11    1
   11    11    12    1
   12    11    13    1
   13    11    14    1
   14    14    15    1
   15    14    16    1
   16    14    17    1
   17    17    18    1
   18    17    19    1
   19    17    20    1
@<TRIPOS>SUBSTRUCTURE
       1 MOL1            1 RESIDUE      1      MOL     
@<SCITEGIC>MOL_PROPERTY
VConf Rank
SciTegic.value.IntegerValue
353

@<SCITEGIC>MOL_PROPERTY
Conf_Id
SciTegic.value.IntegerValue
52

@<SCITEGIC>MOL_PROPERTY
Delta U+W
SciTegic.value.DoubleValue
2.995

@<SCITEGIC>MOL_PROPERTY
U+W
SciTegic.value.DoubleValue
-33.282

@<SCITEGIC>MOL_PROPERTY
Grad RMS
SciTegic.value.DoubleValue
0.000000

@<SCITEGIC>MOL_PROPERTY
U
SciTegic.value.DoubleValue
25.224

@<SCITEGIC>MOL_PROPERTY
W
SciTegic.value.DoubleValue
-58.506

@<SCITEGIC>MOL_PROPERTY
W(PB)
SciTegic.value.DoubleValue
-60.411

@<SCITEGIC>MOL_PROPERTY
W(SA)
SciTegic.value.DoubleValue
1.905

@<SCITEGIC>MOL_PROPERTY
Valence
SciTegic.value.DoubleValue
4.945

@<SCITEGIC>MOL_PROPERTY
Coulomb
SciTegic.value.DoubleValue
19.467

@<SCITEGIC>MOL_PROPERTY
VdW
SciTegic.value.DoubleValue
0.813

@<SCITEGIC>MOL_PROPERTY
VdW6
SciTegic.value.DoubleValue
-5.458

@<SCITEGIC>MOL_PROPERTY
VdW12
SciTegic.value.DoubleValue
6.270

@<SCITEGIC>MOL_PROPERTY
Bond
SciTegic.value.DoubleValue
0.200

@<SCITEGIC>MOL_PROPERTY
Angle
SciTegic.value.DoubleValue
1.675

@<SCITEGIC>MOL_PROPERTY
Pdih
SciTegic.value.DoubleValue
3.070

@<SCITEGIC>MOL_PROPERTY
Idih
SciTegic.value.DoubleValue
0.000

@<SCITEGIC>MOL_PROPERTY
Tether
SciTegic.value.DoubleValue
0.000

@<TRIPOS>MOLECULE
guest-s10_confgen4.mol2 : confsearch ligand conformer 354
          20          19           1
SMALL
USER_CHARGES
 
@<TRIPOS>ATOM
       1    N1      20.582105   19.342933   24.098413 N.4        1 MOL1        -0.5937
       2    H1      19.982279   19.985740   24.621276 H          1 MOL1         0.3684
       3    H2      21.536887   19.463240   24.447075 H          1 MOL1         0.3684
       4    H3      20.286249   18.392123   24.329528 H          1 MOL1         0.3684
       5    C1      20.498403   19.596292   22.617855 C.3        1 MOL1         0.1270
       6    H4      21.198329   18.908596   22.133176 H          1 MOL1         0.0960
       7    C2      20.946177   21.034961   22.308844 C.3        1 MOL1        -0.2382
       8    H5      20.266150   21.768151   22.760346 H          1 MOL1         0.1009
       9    H6      20.971102   21.212963   21.226559 H          1 MOL1         0.1009
      10    H7      21.955246   21.219981   22.697281 H          1 MOL1         0.1009
      11    C3      19.085266   19.336102   22.043763 C.3        1 MOL1        -0.1392
      12    H8      18.329130   19.818422   22.677166 H          1 MOL1         0.0998
      13    H9      19.010514   19.824760   21.063095 H          1 MOL1         0.0998
      14    C4      18.732939   17.839596   21.836542 C.3        1 MOL1        -0.1302
      15    H10     19.467938   17.375944   21.163610 H          1 MOL1         0.0998
      16    H11     17.767721   17.784599   21.313706 H          1 MOL1         0.0998
      17    C5      18.629472   17.010668   23.137072 C.3        1 MOL1        -0.2317
      18    H12     18.184815   16.029262   22.926336 H          1 MOL1         0.1009
      19    H13     17.993986   17.510293   23.879938 H          1 MOL1         0.1009
      20    H14     19.615686   16.825647   23.578194 H          1 MOL1         0.1009
@<TRIPOS>BOND
    1     1     2    1
    2     1     3    1
    3     1     4    1
    4     1     5    1
    5     5     6    1
    6     5     7    1
    7     7     8    1
    8     7     9    1
    9     7    10    1
   10     5    11    1
   11    11    12    1
   12    11    13    1
   13    11    14    1
   14    14    15    1
   15    14    16    1
   16    14    17    1
   17    17    18    1
   18    17    19    1
   19    17    20    1
@<TRIPOS>SUBSTRUCTURE
       1 MOL1            1 RESIDUE      1      MOL     
@<SCITEGIC>MOL_PROPERTY
VConf Rank
SciTegic.value.IntegerValue
354

@<SCITEGIC>MOL_PROPERTY
Conf_Id
SciTegic.value.IntegerValue
54

@<SCITEGIC>MOL_PROPERTY
Delta U+W
SciTegic.value.DoubleValue
2.752

@<SCITEGIC>MOL_PROPERTY
U+W
SciTegic.value.DoubleValue
-33.525

@<SCITEGIC>MOL_PROPERTY
Grad RMS
SciTegic.value.DoubleValue
0.000000

@<SCITEGIC>MOL_PROPERTY
U
SciTegic.value.DoubleValue
24.337

@<SCITEGIC>MOL_PROPERTY
W
SciTegic.value.DoubleValue
-57.862

@<SCITEGIC>MOL_PROPERTY
W(PB)
SciTegic.value.DoubleValue
-59.764

@<SCITEGIC>MOL_PROPERTY
W(SA)
SciTegic.value.DoubleValue
1.901

@<SCITEGIC>MOL_PROPERTY
Valence
SciTegic.value.DoubleValue
3.593

@<SCITEGIC>MOL_PROPERTY
Coulomb
SciTegic.value.DoubleValue
20.067

@<SCITEGIC>MOL_PROPERTY
VdW
SciTegic.value.DoubleValue
0.677

@<SCITEGIC>MOL_PROPERTY
VdW6
SciTegic.value.DoubleValue
-5.466

@<SCITEGIC>MOL_PROPERTY
VdW12
SciTegic.value.DoubleValue
6.144

@<SCITEGIC>MOL_PROPERTY
Bond
SciTegic.value.DoubleValue
0.191

@<SCITEGIC>MOL_PROPERTY
Angle
SciTegic.value.DoubleValue
1.557

@<SCITEGIC>MOL_PROPERTY
Pdih
SciTegic.value.DoubleValue
1.845

@<SCITEGIC>MOL_PROPERTY
Idih
SciTegic.value.DoubleValue
0.000

@<SCITEGIC>MOL_PROPERTY
Tether
SciTegic.value.DoubleValue
0.000

@<TRIPOS>MOLECULE
guest-s10_confgen4.mol2 : confsearch ligand conformer 355
          20          19           1
SMALL
USER_CHARGES
 
@<TRIPOS>ATOM
       1    N1      21.705233   18.269203   22.671195 N.4        1 MOL1        -0.5937
       2    H1      22.573506   18.214227   23.210393 H          1 MOL1         0.3684
       3    H2      21.963604   18.292017   21.681025 H          1 MOL1         0.3684
       4    H3      21.189155   17.401727   22.834280 H          1 MOL1         0.3684
       5    C1      20.891835   19.474277   23.058576 C.3        1 MOL1         0.1270
       6    H4      21.528388   20.343646   22.866168 H          1 MOL1         0.0960
       7    C2      20.566685   19.461675   24.562891 C.3        1 MOL1        -0.2382
       8    H5      19.972211   20.340750   24.840916 H          1 MOL1         0.1009
       9    H6      21.489762   19.484586   25.154913 H          1 MOL1         0.1009
      10    H7      20.007483   18.563436   24.850124 H          1 MOL1         0.1009
      11    C3      19.621230   19.636093   22.189997 C.3        1 MOL1        -0.1392
      12    H8      19.125154   20.577112   22.462261 H          1 MOL1         0.0998
      13    H9      19.929300   19.750479   21.142421 H          1 MOL1         0.0998
      14    C4      18.602979   18.471527   22.296276 C.3        1 MOL1        -0.1302
      15    H10     18.243114   18.374329   23.329263 H          1 MOL1         0.0998
      16    H11     19.086157   17.520241   22.035976 H          1 MOL1         0.0998
      17    C5      17.391689   18.691574   21.364779 C.3        1 MOL1        -0.2317
      18    H12     16.679202   17.861066   21.452433 H          1 MOL1         0.1009
      19    H13     17.706498   18.755024   20.314974 H          1 MOL1         0.1009
      20    H14     16.860892   19.618313   21.619009 H          1 MOL1         0.1009
@<TRIPOS>BOND
    1     1     2    1
    2     1     3    1
    3     1     4    1
    4     1     5    1
    5     5     6    1
    6     5     7    1
    7     7     8    1
    8     7     9    1
    9     7    10    1
   10     5    11    1
   11    11    12    1
   12    11    13    1
   13    11    14    1
   14    14    15    1
   15    14    16    1
   16    14    17    1
   17    17    18    1
   18    17    19    1
   19    17    20    1
@<TRIPOS>SUBSTRUCTURE
       1 MOL1            1 RESIDUE      1      MOL     
@<SCITEGIC>MOL_PROPERTY
VConf Rank
SciTegic.value.IntegerValue
355

@<SCITEGIC>MOL_PROPERTY
Conf_Id
SciTegic.value.IntegerValue
63

@<SCITEGIC>MOL_PROPERTY
Delta U+W
SciTegic.value.DoubleValue
0.420

@<SCITEGIC>MOL_PROPERTY
U+W
SciTegic.value.DoubleValue
-35.856

@<SCITEGIC>MOL_PROPERTY
Grad RMS
SciTegic.value.DoubleValue
0.000000

@<SCITEGIC>MOL_PROPERTY
U
SciTegic.value.DoubleValue
22.625

@<SCITEGIC>MOL_PROPERTY
W
SciTegic.value.DoubleValue
-58.481

@<SCITEGIC>MOL_PROPERTY
W(PB)
SciTegic.value.DoubleValue
-60.400

@<SCITEGIC>MOL_PROPERTY
W(SA)
SciTegic.value.DoubleValue
1.919

@<SCITEGIC>MOL_PROPERTY
Valence
SciTegic.value.DoubleValue
2.404

@<SCITEGIC>MOL_PROPERTY
Coulomb
SciTegic.value.DoubleValue
19.464

@<SCITEGIC>MOL_PROPERTY
VdW
SciTegic.value.DoubleValue
0.757

@<SCITEGIC>MOL_PROPERTY
VdW6
SciTegic.value.DoubleValue
-5.074

@<SCITEGIC>MOL_PROPERTY
VdW12
SciTegic.value.DoubleValue
5.830

@<SCITEGIC>MOL_PROPERTY
Bond
SciTegic.value.DoubleValue
0.172

@<SCITEGIC>MOL_PROPERTY
Angle
SciTegic.value.DoubleValue
1.207

@<SCITEGIC>MOL_PROPERTY
Pdih
SciTegic.value.DoubleValue
1.025

@<SCITEGIC>MOL_PROPERTY
Idih
SciTegic.value.DoubleValue
0.000

@<SCITEGIC>MOL_PROPERTY
Tether
SciTegic.value.DoubleValue
0.000

@<TRIPOS>MOLECULE
guest-s10_confgen4.mol2 : confsearch ligand conformer 356
          20          19           1
SMALL
USER_CHARGES
 
@<TRIPOS>ATOM
       1    N1      21.148332   19.510261   21.914960 N.4        1 MOL1        -0.5937
       2    H1      21.194907   18.544222   21.581086 H          1 MOL1         0.3684
       3    H2      21.914956   19.644019   22.578901 H          1 MOL1         0.3684
       4    H3      21.328381   20.119974   21.112853 H          1 MOL1         0.3684
       5    C1      19.814816   19.807103   22.545673 C.3        1 MOL1         0.1270
       6    H4      19.057766   19.643423   21.772877 H          1 MOL1         0.0960
       7    C2      19.737892   21.277923   22.986447 C.3        1 MOL1        -0.2382
       8    H5      19.918683   21.947919   22.136943 H          1 MOL1         0.1009
       9    H6      20.482080   21.500259   23.761370 H          1 MOL1         0.1009
      10    H7      18.744779   21.512616   23.389273 H          1 MOL1         0.1009
      11    C3      19.502528   18.871672   23.735810 C.3        1 MOL1        -0.1392
      12    H8      20.243287   19.033139   24.530189 H          1 MOL1         0.0998
      13    H9      18.529739   19.149572   24.162872 H          1 MOL1         0.0998
      14    C4      19.472345   17.366109   23.369388 C.3        1 MOL1        -0.1302
      15    H10     19.248348   16.787024   24.276244 H          1 MOL1         0.0998
      16    H11     20.466189   17.035488   23.038433 H          1 MOL1         0.0998
      17    C5      18.422478   17.026933   22.286748 C.3        1 MOL1        -0.2317
      18    H12     17.419289   17.348462   22.595634 H          1 MOL1         0.1009
      19    H13     18.387191   15.943858   22.111325 H          1 MOL1         0.1009
      20    H14     18.657371   17.509157   21.329575 H          1 MOL1         0.1009
@<TRIPOS>BOND
    1     1     2    1
    2     1     3    1
    3     1     4    1
    4     1     5    1
    5     5     6    1
    6     5     7    1
    7     7     8    1
    8     7     9    1
    9     7    10    1
   10     5    11    1
   11    11    12    1
   12    11    13    1
   13    11    14    1
   14    14    15    1
   15    14    16    1
   16    14    17    1
   17    17    18    1
   18    17    19    1
   19    17    20    1
@<TRIPOS>SUBSTRUCTURE
       1 MOL1            1 RESIDUE      1      MOL     
@<SCITEGIC>MOL_PROPERTY
VConf Rank
SciTegic.value.IntegerValue
356

@<SCITEGIC>MOL_PROPERTY
Conf_Id
SciTegic.value.IntegerValue
50

@<SCITEGIC>MOL_PROPERTY
Delta U+W
SciTegic.value.DoubleValue
0.466

@<SCITEGIC>MOL_PROPERTY
U+W
SciTegic.value.DoubleValue
-35.811

@<SCITEGIC>MOL_PROPERTY
Grad RMS
SciTegic.value.DoubleValue
0.000000

@<SCITEGIC>MOL_PROPERTY
U
SciTegic.value.DoubleValue
22.369

@<SCITEGIC>MOL_PROPERTY
W
SciTegic.value.DoubleValue
-58.180

@<SCITEGIC>MOL_PROPERTY
W(PB)
SciTegic.value.DoubleValue
-60.103

@<SCITEGIC>MOL_PROPERTY
W(SA)
SciTegic.value.DoubleValue
1.923

@<SCITEGIC>MOL_PROPERTY
Valence
SciTegic.value.DoubleValue
2.168

@<SCITEGIC>MOL_PROPERTY
Coulomb
SciTegic.value.DoubleValue
19.636

@<SCITEGIC>MOL_PROPERTY
VdW
SciTegic.value.DoubleValue
0.566

@<SCITEGIC>MOL_PROPERTY
VdW6
SciTegic.value.DoubleValue
-5.263

@<SCITEGIC>MOL_PROPERTY
VdW12
SciTegic.value.DoubleValue
5.829

@<SCITEGIC>MOL_PROPERTY
Bond
SciTegic.value.DoubleValue
0.162

@<SCITEGIC>MOL_PROPERTY
Angle
SciTegic.value.DoubleValue
1.066

@<SCITEGIC>MOL_PROPERTY
Pdih
SciTegic.value.DoubleValue
0.939

@<SCITEGIC>MOL_PROPERTY
Idih
SciTegic.value.DoubleValue
0.000

@<SCITEGIC>MOL_PROPERTY
Tether
SciTegic.value.DoubleValue
0.000

@<TRIPOS>MOLECULE
guest-s10_confgen4.mol2 : confsearch ligand conformer 357
          20          19           1
SMALL
USER_CHARGES
 
@<TRIPOS>ATOM
       1    N1      19.042431   20.456626   21.190826 N.4        1 MOL1        -0.5937
       2    H1      19.626346   21.275420   21.382179 H          1 MOL1         0.3684
       3    H2      18.076074   20.710064   21.411724 H          1 MOL1         0.3684
       4    H3      19.088308   20.281570   20.183361 H          1 MOL1         0.3684
       5    C1      19.493369   19.256839   21.979336 C.3        1 MOL1         0.1270
       6    H4      20.528782   19.067068   21.679889 H          1 MOL1         0.0960
       7    C2      18.639126   18.030525   21.607333 C.3        1 MOL1        -0.2382
       8    H5      17.581878   18.197614   21.848112 H          1 MOL1         0.1009
       9    H6      18.967942   17.133115   22.142426 H          1 MOL1         0.1009
      10    H7      18.712612   17.820075   20.533350 H          1 MOL1         0.1009
      11    C3      19.474576   19.526721   23.504145 C.3        1 MOL1        -0.1392
      12    H8      19.432925   20.610284   23.676859 H          1 MOL1         0.0998
      13    H9      18.559009   19.120483   23.954390 H          1 MOL1         0.0998
      14    C4      20.720518   18.988232   24.252104 C.3        1 MOL1        -0.1302
      15    H10     20.655926   19.293155   25.306040 H          1 MOL1         0.0998
      16    H11     21.625032   19.466894   23.851084 H          1 MOL1         0.0998
      17    C5      20.881897   17.453273   24.188115 C.3        1 MOL1        -0.2317
      18    H12     19.976245   16.944353   24.542832 H          1 MOL1         0.1009
      19    H13     21.717647   17.128986   24.821678 H          1 MOL1         0.1009
      20    H14     21.095039   17.114749   23.166547 H          1 MOL1         0.1009
@<TRIPOS>BOND
    1     1     2    1
    2     1     3    1
    3     1     4    1
    4     1     5    1
    5     5     6    1
    6     5     7    1
    7     7     8    1
    8     7     9    1
    9     7    10    1
   10     5    11    1
   11    11    12    1
   12    11    13    1
   13    11    14    1
   14    14    15    1
   15    14    16    1
   16    14    17    1
   17    17    18    1
   18    17    19    1
   19    17    20    1
@<TRIPOS>SUBSTRUCTURE
       1 MOL1            1 RESIDUE      1      MOL     
@<SCITEGIC>MOL_PROPERTY
VConf Rank
SciTegic.value.IntegerValue
357

@<SCITEGIC>MOL_PROPERTY
Conf_Id
SciTegic.value.IntegerValue
3

@<SCITEGIC>MOL_PROPERTY
Delta U+W
SciTegic.value.DoubleValue
3.093

@<SCITEGIC>MOL_PROPERTY
U+W
SciTegic.value.DoubleValue
-33.184

@<SCITEGIC>MOL_PROPERTY
Grad RMS
SciTegic.value.DoubleValue
0.000000

@<SCITEGIC>MOL_PROPERTY
U
SciTegic.value.DoubleValue
25.256

@<SCITEGIC>MOL_PROPERTY
W
SciTegic.value.DoubleValue
-58.439

@<SCITEGIC>MOL_PROPERTY
W(PB)
SciTegic.value.DoubleValue
-60.337

@<SCITEGIC>MOL_PROPERTY
W(SA)
SciTegic.value.DoubleValue
1.898

@<SCITEGIC>MOL_PROPERTY
Valence
SciTegic.value.DoubleValue
4.963

@<SCITEGIC>MOL_PROPERTY
Coulomb
SciTegic.value.DoubleValue
19.511

@<SCITEGIC>MOL_PROPERTY
VdW
SciTegic.value.DoubleValue
0.782

@<SCITEGIC>MOL_PROPERTY
VdW6
SciTegic.value.DoubleValue
-5.429

@<SCITEGIC>MOL_PROPERTY
VdW12
SciTegic.value.DoubleValue
6.211

@<SCITEGIC>MOL_PROPERTY
Bond
SciTegic.value.DoubleValue
0.174

@<SCITEGIC>MOL_PROPERTY
Angle
SciTegic.value.DoubleValue
1.377

@<SCITEGIC>MOL_PROPERTY
Pdih
SciTegic.value.DoubleValue
3.412

@<SCITEGIC>MOL_PROPERTY
Idih
SciTegic.value.DoubleValue
0.000

@<SCITEGIC>MOL_PROPERTY
Tether
SciTegic.value.DoubleValue
0.000

@<TRIPOS>MOLECULE
guest-s10_confgen4.mol2 : confsearch ligand conformer 358
          20          19           1
SMALL
USER_CHARGES
 
@<TRIPOS>ATOM
       1    N1      18.003347   20.483812   22.884879 N.4        1 MOL1        -0.5937
       2    H1      17.343176   20.531664   23.665596 H          1 MOL1         0.3684
       3    H2      17.456969   20.308158   22.037267 H          1 MOL1         0.3684
       4    H3      18.428269   21.409525   22.789056 H          1 MOL1         0.3684
       5    C1      19.042398   19.419084   23.106484 C.3        1 MOL1         0.1270
       6    H4      18.498232   18.474531   23.200289 H          1 MOL1         0.0960
       7    C2      19.800448   19.676096   24.421553 C.3        1 MOL1        -0.2382
       8    H5      20.462630   18.838385   24.669125 H          1 MOL1         0.1009
       9    H6      19.098395   19.792230   25.256279 H          1 MOL1         0.1009
      10    H7      20.407732   20.587519   24.358283 H          1 MOL1         0.1009
      11    C3      19.999752   19.310250   21.895675 C.3        1 MOL1        -0.1392
      12    H8      19.399987   19.208805   20.981609 H          1 MOL1         0.0998
      13    H9      20.559664   20.248860   21.789634 H          1 MOL1         0.0998
      14    C4      21.000461   18.127850   21.955790 C.3        1 MOL1        -0.1302
      15    H10     21.706174   18.266952   22.785785 H          1 MOL1         0.0998
      16    H11     21.608865   18.135014   21.040567 H          1 MOL1         0.0998
      17    C5      20.306499   16.752743   22.084814 C.3        1 MOL1        -0.2317
      18    H12     19.592990   16.592034   21.266135 H          1 MOL1         0.1009
      19    H13     19.765321   16.661702   23.035026 H          1 MOL1         0.1009
      20    H14     21.046998   15.943252   22.047359 H          1 MOL1         0.1009
@<TRIPOS>BOND
    1     1     2    1
    2     1     3    1
    3     1     4    1
    4     1     5    1
    5     5     6    1
    6     5     7    1
    7     7     8    1
    8     7     9    1
    9     7    10    1
   10     5    11    1
   11    11    12    1
   12    11    13    1
   13    11    14    1
   14    14    15    1
   15    14    16    1
   16    14    17    1
   17    17    18    1
   18    17    19    1
   19    17    20    1
@<TRIPOS>SUBSTRUCTURE
       1 MOL1            1 RESIDUE      1      MOL     
@<SCITEGIC>MOL_PROPERTY
VConf Rank
SciTegic.value.IntegerValue
358

@<SCITEGIC>MOL_PROPERTY
Conf_Id
SciTegic.value.IntegerValue
64

@<SCITEGIC>MOL_PROPERTY
Delta U+W
SciTegic.value.DoubleValue
0.544

@<SCITEGIC>MOL_PROPERTY
U+W
SciTegic.value.DoubleValue
-35.732

@<SCITEGIC>MOL_PROPERTY
Grad RMS
SciTegic.value.DoubleValue
0.000000

@<SCITEGIC>MOL_PROPERTY
U
SciTegic.value.DoubleValue
22.800

@<SCITEGIC>MOL_PROPERTY
W
SciTegic.value.DoubleValue
-58.532

@<SCITEGIC>MOL_PROPERTY
W(PB)
SciTegic.value.DoubleValue
-60.437

@<SCITEGIC>MOL_PROPERTY
W(SA)
SciTegic.value.DoubleValue
1.905

@<SCITEGIC>MOL_PROPERTY
Valence
SciTegic.value.DoubleValue
2.662

@<SCITEGIC>MOL_PROPERTY
Coulomb
SciTegic.value.DoubleValue
19.485

@<SCITEGIC>MOL_PROPERTY
VdW
SciTegic.value.DoubleValue
0.653

@<SCITEGIC>MOL_PROPERTY
VdW6
SciTegic.value.DoubleValue
-5.460

@<SCITEGIC>MOL_PROPERTY
VdW12
SciTegic.value.DoubleValue
6.113

@<SCITEGIC>MOL_PROPERTY
Bond
SciTegic.value.DoubleValue
0.174

@<SCITEGIC>MOL_PROPERTY
Angle
SciTegic.value.DoubleValue
1.378

@<SCITEGIC>MOL_PROPERTY
Pdih
SciTegic.value.DoubleValue
1.109

@<SCITEGIC>MOL_PROPERTY
Idih
SciTegic.value.DoubleValue
0.000

@<SCITEGIC>MOL_PROPERTY
Tether
SciTegic.value.DoubleValue
0.000

@<TRIPOS>MOLECULE
guest-s10_confgen4.mol2 : confsearch ligand conformer 359
          20          19           1
SMALL
USER_CHARGES
 
@<TRIPOS>ATOM
       1    N1      19.044893   20.727488   23.503628 N.4        1 MOL1        -0.5937
       2    H1      19.851573   20.544609   24.104539 H          1 MOL1         0.3684
       3    H2      18.257183   20.963733   24.112984 H          1 MOL1         0.3684
       4    H3      19.258505   21.559740   22.947403 H          1 MOL1         0.3684
       5    C1      18.728993   19.543595   22.629879 C.3        1 MOL1         0.1270
       6    H4      17.853519   19.832357   22.039858 H          1 MOL1         0.0960
       7    C2      18.328815   18.326449   23.479664 C.3        1 MOL1        -0.2382
       8    H5      19.114342   18.061865   24.197057 H          1 MOL1         0.1009
       9    H6      18.127459   17.455169   22.844317 H          1 MOL1         0.1009
      10    H7      17.416251   18.540635   24.049156 H          1 MOL1         0.1009
      11    C3      19.867174   19.231649   21.625800 C.3        1 MOL1        -0.1392
      12    H8      19.519788   18.481770   20.902956 H          1 MOL1         0.0998
      13    H9      20.042124   20.140861   21.035710 H          1 MOL1         0.0998
      14    C4      21.221863   18.782521   22.240882 C.3        1 MOL1        -0.1302
      15    H10     21.376812   19.242536   23.225645 H          1 MOL1         0.0998
      16    H11     22.033480   19.160462   21.603370 H          1 MOL1         0.0998
      17    C5      21.376559   17.246650   22.340454 C.3        1 MOL1        -0.2317
      18    H12     20.625752   16.797086   22.999361 H          1 MOL1         0.1009
      19    H13     22.365160   16.986239   22.740227 H          1 MOL1         0.1009
      20    H14     21.284372   16.777531   21.352288 H          1 MOL1         0.1009
@<TRIPOS>BOND
    1     1     2    1
    2     1     3    1
    3     1     4    1
    4     1     5    1
    5     5     6    1
    6     5     7    1
    7     7     8    1
    8     7     9    1
    9     7    10    1
   10     5    11    1
   11    11    12    1
   12    11    13    1
   13    11    14    1
   14    14    15    1
   15    14    16    1
   16    14    17    1
   17    17    18    1
   18    17    19    1
   19    17    20    1
@<TRIPOS>SUBSTRUCTURE
       1 MOL1            1 RESIDUE      1      MOL     
@<SCITEGIC>MOL_PROPERTY
VConf Rank
SciTegic.value.IntegerValue
359

@<SCITEGIC>MOL_PROPERTY
Conf_Id
SciTegic.value.IntegerValue
35

@<SCITEGIC>MOL_PROPERTY
Delta U+W
SciTegic.value.DoubleValue
3.004

@<SCITEGIC>MOL_PROPERTY
U+W
SciTegic.value.DoubleValue
-33.272

@<SCITEGIC>MOL_PROPERTY
Grad RMS
SciTegic.value.DoubleValue
0.000000

@<SCITEGIC>MOL_PROPERTY
U
SciTegic.value.DoubleValue
25.367

@<SCITEGIC>MOL_PROPERTY
W
SciTegic.value.DoubleValue
-58.639

@<SCITEGIC>MOL_PROPERTY
W(PB)
SciTegic.value.DoubleValue
-60.512

@<SCITEGIC>MOL_PROPERTY
W(SA)
SciTegic.value.DoubleValue
1.873

@<SCITEGIC>MOL_PROPERTY
Valence
SciTegic.value.DoubleValue
4.943

@<SCITEGIC>MOL_PROPERTY
Coulomb
SciTegic.value.DoubleValue
19.661

@<SCITEGIC>MOL_PROPERTY
VdW
SciTegic.value.DoubleValue
0.764

@<SCITEGIC>MOL_PROPERTY
VdW6
SciTegic.value.DoubleValue
-5.871

@<SCITEGIC>MOL_PROPERTY
VdW12
SciTegic.value.DoubleValue
6.636

@<SCITEGIC>MOL_PROPERTY
Bond
SciTegic.value.DoubleValue
0.230

@<SCITEGIC>MOL_PROPERTY
Angle
SciTegic.value.DoubleValue
1.857

@<SCITEGIC>MOL_PROPERTY
Pdih
SciTegic.value.DoubleValue
2.855

@<SCITEGIC>MOL_PROPERTY
Idih
SciTegic.value.DoubleValue
0.000

@<SCITEGIC>MOL_PROPERTY
Tether
SciTegic.value.DoubleValue
0.000

@<TRIPOS>MOLECULE
guest-s10_confgen4.mol2 : confsearch ligand conformer 360
          20          19           1
SMALL
USER_CHARGES
 
@<TRIPOS>ATOM
       1    N1      21.339931   18.608198   21.867719 N.4        1 MOL1        -0.5937
       2    H1      22.035750   17.858172   21.837757 H          1 MOL1         0.3684
       3    H2      21.778176   19.446090   21.475980 H          1 MOL1         0.3684
       4    H3      20.573210   18.344784   21.245827 H          1 MOL1         0.3684
       5    C1      20.846942   18.848150   23.268379 C.3        1 MOL1         0.1270
       6    H4      21.731873   19.146158   23.839356 H          1 MOL1         0.0960
       7    C2      20.306778   17.554273   23.902899 C.3        1 MOL1        -0.2382
       8    H5      19.470357   17.139736   23.327700 H          1 MOL1         0.1009
       9    H6      19.962181   17.738303   24.927987 H          1 MOL1         0.1009
      10    H7      21.093302   16.791203   23.948437 H          1 MOL1         0.1009
      11    C3      19.836358   20.019848   23.364072 C.3        1 MOL1        -0.1392
      12    H8      19.777549   20.322681   24.417816 H          1 MOL1         0.0998
      13    H9      20.248435   20.888777   22.834570 H          1 MOL1         0.0998
      14    C4      18.388192   19.754988   22.864814 C.3        1 MOL1        -0.1302
      15    H10     17.796238   20.663458   23.043971 H          1 MOL1         0.0998
      16    H11     17.913961   18.970654   23.470254 H          1 MOL1         0.0998
      17    C5      18.278327   19.392644   21.366295 C.3        1 MOL1        -0.2317
      18    H12     18.818381   20.115511   20.741039 H          1 MOL1         0.1009
      19    H13     17.227102   19.399719   21.049994 H          1 MOL1         0.1009
      20    H14     18.667568   18.388195   21.164206 H          1 MOL1         0.1009
@<TRIPOS>BOND
    1     1     2    1
    2     1     3    1
    3     1     4    1
    4     1     5    1
    5     5     6    1
    6     5     7    1
    7     7     8    1
    8     7     9    1
    9     7    10    1
   10     5    11    1
   11    11    12    1
   12    11    13    1
   13    11    14    1
   14    14    15    1
   15    14    16    1
   16    14    17    1
   17    17    18    1
   18    17    19    1
   19    17    20    1
@<TRIPOS>SUBSTRUCTURE
       1 MOL1            1 RESIDUE      1      MOL     
@<SCITEGIC>MOL_PROPERTY
VConf Rank
SciTegic.value.IntegerValue
360

@<SCITEGIC>MOL_PROPERTY
Conf_Id
SciTegic.value.IntegerValue
55

@<SCITEGIC>MOL_PROPERTY
Delta U+W
SciTegic.value.DoubleValue
2.767

@<SCITEGIC>MOL_PROPERTY
U+W
SciTegic.value.DoubleValue
-33.509

@<SCITEGIC>MOL_PROPERTY
Grad RMS
SciTegic.value.DoubleValue
0.000000

@<SCITEGIC>MOL_PROPERTY
U
SciTegic.value.DoubleValue
24.552

@<SCITEGIC>MOL_PROPERTY
W
SciTegic.value.DoubleValue
-58.061

@<SCITEGIC>MOL_PROPERTY
W(PB)
SciTegic.value.DoubleValue
-59.930

@<SCITEGIC>MOL_PROPERTY
W(SA)
SciTegic.value.DoubleValue
1.869

@<SCITEGIC>MOL_PROPERTY
Valence
SciTegic.value.DoubleValue
3.726

@<SCITEGIC>MOL_PROPERTY
Coulomb
SciTegic.value.DoubleValue
20.219

@<SCITEGIC>MOL_PROPERTY
VdW
SciTegic.value.DoubleValue
0.606

@<SCITEGIC>MOL_PROPERTY
VdW6
SciTegic.value.DoubleValue
-6.395

@<SCITEGIC>MOL_PROPERTY
VdW12
SciTegic.value.DoubleValue
7.001

@<SCITEGIC>MOL_PROPERTY
Bond
SciTegic.value.DoubleValue
0.241

@<SCITEGIC>MOL_PROPERTY
Angle
SciTegic.value.DoubleValue
2.098

@<SCITEGIC>MOL_PROPERTY
Pdih
SciTegic.value.DoubleValue
1.387

@<SCITEGIC>MOL_PROPERTY
Idih
SciTegic.value.DoubleValue
0.000

@<SCITEGIC>MOL_PROPERTY
Tether
SciTegic.value.DoubleValue
0.000

@<TRIPOS>MOLECULE
guest-s10_confgen4.mol2 : confsearch ligand conformer 361
          20          19           1
SMALL
USER_CHARGES
 
@<TRIPOS>ATOM
       1    N1      20.396685   17.098578   22.593009 N.4        1 MOL1        -0.5937
       2    H1      19.541066   16.682071   22.217532 H          1 MOL1         0.3684
       3    H2      20.916900   16.354025   23.064892 H          1 MOL1         0.3684
       4    H3      20.962448   17.407909   21.798775 H          1 MOL1         0.3684
       5    C1      20.091142   18.236074   23.529922 C.3        1 MOL1         0.1270
       6    H4      21.053360   18.623406   23.879204 H          1 MOL1         0.0960
       7    C2      19.303166   17.733402   24.750735 C.3        1 MOL1        -0.2382
       8    H5      19.855671   16.940940   25.270356 H          1 MOL1         0.1009
       9    H6      18.326065   17.331347   24.455069 H          1 MOL1         0.1009
      10    H7      19.135027   18.546164   25.468220 H          1 MOL1         0.1009
      11    C3      19.330109   19.387839   22.836802 C.3        1 MOL1        -0.1392
      12    H8      18.368681   19.018989   22.455328 H          1 MOL1         0.0998
      13    H9      19.095476   20.157535   23.584185 H          1 MOL1         0.0998
      14    C4      20.134418   20.039042   21.685915 C.3        1 MOL1        -0.1302
      15    H10     20.333642   19.301340   20.896908 H          1 MOL1         0.0998
      16    H11     21.111255   20.375652   22.061050 H          1 MOL1         0.0998
      17    C5      19.381597   21.239100   21.072380 C.3        1 MOL1        -0.2317
      18    H12     18.412381   20.928679   20.660660 H          1 MOL1         0.1009
      19    H13     19.965109   21.687466   20.257784 H          1 MOL1         0.1009
      20    H14     19.199809   22.018367   21.823998 H          1 MOL1         0.1009
@<TRIPOS>BOND
    1     1     2    1
    2     1     3    1
    3     1     4    1
    4     1     5    1
    5     5     6    1
    6     5     7    1
    7     7     8    1
    8     7     9    1
    9     7    10    1
   10     5    11    1
   11    11    12    1
   12    11    13    1
   13    11    14    1
   14    14    15    1
   15    14    16    1
   16    14    17    1
   17    17    18    1
   18    17    19    1
   19    17    20    1
@<TRIPOS>SUBSTRUCTURE
       1 MOL1            1 RESIDUE      1      MOL     
@<SCITEGIC>MOL_PROPERTY
VConf Rank
SciTegic.value.IntegerValue
361

@<SCITEGIC>MOL_PROPERTY
Conf_Id
SciTegic.value.IntegerValue
74

@<SCITEGIC>MOL_PROPERTY
Delta U+W
SciTegic.value.DoubleValue
0.000

@<SCITEGIC>MOL_PROPERTY
U+W
SciTegic.value.DoubleValue
-36.276

@<SCITEGIC>MOL_PROPERTY
Grad RMS
SciTegic.value.DoubleValue
0.000000

@<SCITEGIC>MOL_PROPERTY
U
SciTegic.value.DoubleValue
22.080

@<SCITEGIC>MOL_PROPERTY
W
SciTegic.value.DoubleValue
-58.356

@<SCITEGIC>MOL_PROPERTY
W(PB)
SciTegic.value.DoubleValue
-60.289

@<SCITEGIC>MOL_PROPERTY
W(SA)
SciTegic.value.DoubleValue
1.932

@<SCITEGIC>MOL_PROPERTY
Valence
SciTegic.value.DoubleValue
1.885

@<SCITEGIC>MOL_PROPERTY
Coulomb
SciTegic.value.DoubleValue
19.559

@<SCITEGIC>MOL_PROPERTY
VdW
SciTegic.value.DoubleValue
0.637

@<SCITEGIC>MOL_PROPERTY
VdW6
SciTegic.value.DoubleValue
-4.482

@<SCITEGIC>MOL_PROPERTY
VdW12
SciTegic.value.DoubleValue
5.119

@<SCITEGIC>MOL_PROPERTY
Bond
SciTegic.value.DoubleValue
0.136

@<SCITEGIC>MOL_PROPERTY
Angle
SciTegic.value.DoubleValue
0.867

@<SCITEGIC>MOL_PROPERTY
Pdih
SciTegic.value.DoubleValue
0.882

@<SCITEGIC>MOL_PROPERTY
Idih
SciTegic.value.DoubleValue
0.000

@<SCITEGIC>MOL_PROPERTY
Tether
SciTegic.value.DoubleValue
0.000

@<TRIPOS>MOLECULE
guest-s10_confgen4.mol2 : confsearch ligand conformer 362
          20          19           1
SMALL
USER_CHARGES
 
@<TRIPOS>ATOM
       1    N1      20.399937   17.365826   21.039464 N.4        1 MOL1        -0.5937
       2    H1      20.819230   17.979115   20.335242 H          1 MOL1         0.3684
       3    H2      19.466758   17.110474   20.706749 H          1 MOL1         0.3684
       4    H3      20.958845   16.508706   21.064848 H          1 MOL1         0.3684
       5    C1      20.343725   18.026868   22.389401 C.3        1 MOL1         0.1270
       6    H4      21.377946   18.259083   22.662036 H          1 MOL1         0.0960
       7    C2      19.771648   17.054026   23.436830 C.3        1 MOL1        -0.2382
       8    H5      20.319974   16.104111   23.421948 H          1 MOL1         0.1009
       9    H6      18.713563   16.838644   23.242810 H          1 MOL1         0.1009
      10    H7      19.859389   17.461699   24.450401 H          1 MOL1         0.1009
      11    C3      19.549992   19.352759   22.330313 C.3        1 MOL1        -0.1392
      12    H8      19.937309   19.952592   21.496137 H          1 MOL1         0.0998
      13    H9      18.497014   19.143410   22.099537 H          1 MOL1         0.0998
      14    C4      19.642573   20.195423   23.625885 C.3        1 MOL1        -0.1302
      15    H10     20.697518   20.351679   23.891863 H          1 MOL1         0.0998
      16    H11     19.178789   19.658335   24.463943 H          1 MOL1         0.0998
      17    C5      18.947244   21.564580   23.465855 C.3        1 MOL1        -0.2317
      18    H12     19.411203   22.152868   22.663423 H          1 MOL1         0.1009
      19    H13     19.019113   22.146716   24.393777 H          1 MOL1         0.1009
      20    H14     17.882687   21.441325   23.227556 H          1 MOL1         0.1009
@<TRIPOS>BOND
    1     1     2    1
    2     1     3    1
    3     1     4    1
    4     1     5    1
    5     5     6    1
    6     5     7    1
    7     7     8    1
    8     7     9    1
    9     7    10    1
   10     5    11    1
   11    11    12    1
   12    11    13    1
   13    11    14    1
   14    14    15    1
   15    14    16    1
   16    14    17    1
   17    17    18    1
   18    17    19    1
   19    17    20    1
@<TRIPOS>SUBSTRUCTURE
       1 MOL1            1 RESIDUE      1      MOL     
@<SCITEGIC>MOL_PROPERTY
VConf Rank
SciTegic.value.IntegerValue
362

@<SCITEGIC>MOL_PROPERTY
Conf_Id
SciTegic.value.IntegerValue
80

@<SCITEGIC>MOL_PROPERTY
Delta U+W
SciTegic.value.DoubleValue
0.460

@<SCITEGIC>MOL_PROPERTY
U+W
SciTegic.value.DoubleValue
-35.817

@<SCITEGIC>MOL_PROPERTY
Grad RMS
SciTegic.value.DoubleValue
0.000000

@<SCITEGIC>MOL_PROPERTY
U
SciTegic.value.DoubleValue
22.495

@<SCITEGIC>MOL_PROPERTY
W
SciTegic.value.DoubleValue
-58.311

@<SCITEGIC>MOL_PROPERTY
W(PB)
SciTegic.value.DoubleValue
-60.259

@<SCITEGIC>MOL_PROPERTY
W(SA)
SciTegic.value.DoubleValue
1.948

@<SCITEGIC>MOL_PROPERTY
Valence
SciTegic.value.DoubleValue
2.419

@<SCITEGIC>MOL_PROPERTY
Coulomb
SciTegic.value.DoubleValue
19.304

@<SCITEGIC>MOL_PROPERTY
VdW
SciTegic.value.DoubleValue
0.772

@<SCITEGIC>MOL_PROPERTY
VdW6
SciTegic.value.DoubleValue
-4.635

@<SCITEGIC>MOL_PROPERTY
VdW12
SciTegic.value.DoubleValue
5.407

@<SCITEGIC>MOL_PROPERTY
Bond
SciTegic.value.DoubleValue
0.149

@<SCITEGIC>MOL_PROPERTY
Angle
SciTegic.value.DoubleValue
1.142

@<SCITEGIC>MOL_PROPERTY
Pdih
SciTegic.value.DoubleValue
1.129

@<SCITEGIC>MOL_PROPERTY
Idih
SciTegic.value.DoubleValue
0.000

@<SCITEGIC>MOL_PROPERTY
Tether
SciTegic.value.DoubleValue
0.000

@<TRIPOS>MOLECULE
guest-s10_confgen4.mol2 : confsearch ligand conformer 363
          20          19           1
SMALL
USER_CHARGES
 
@<TRIPOS>ATOM
       1    N1      21.000754   20.393082   21.335195 N.4        1 MOL1        -0.5937
       2    H1      22.008509   20.251699   21.445878 H          1 MOL1         0.3684
       3    H2      20.748754   21.230967   21.865414 H          1 MOL1         0.3684
       4    H3      20.830886   20.596299   20.346528 H          1 MOL1         0.3684
       5    C1      20.217381   19.193422   21.793337 C.3        1 MOL1         0.1270
       6    H4      20.547636   18.356084   21.170764 H          1 MOL1         0.0960
       7    C2      18.715273   19.411403   21.543512 C.3        1 MOL1        -0.2382
       8    H5      18.537407   19.737324   20.511387 H          1 MOL1         0.1009
       9    H6      18.306102   20.174363   22.217251 H          1 MOL1         0.1009
      10    H7      18.154310   18.481033   21.687526 H          1 MOL1         0.1009
      11    C3      20.538314   18.850531   23.268723 C.3        1 MOL1        -0.1392
      12    H8      21.628494   18.750852   23.353949 H          1 MOL1         0.0998
      13    H9      20.263608   19.689545   23.921655 H          1 MOL1         0.0998
      14    C4      19.901955   17.534587   23.789283 C.3        1 MOL1        -0.1302
      15    H10     20.615437   17.044533   24.466710 H          1 MOL1         0.0998
      16    H11     19.744265   16.831779   22.959126 H          1 MOL1         0.0998
      17    C5      18.582897   17.754918   24.566827 C.3        1 MOL1        -0.2317
      18    H12     18.746740   18.395926   25.442830 H          1 MOL1         0.1009
      19    H13     18.184437   16.797272   24.926169 H          1 MOL1         0.1009
      20    H14     17.810674   18.223441   23.946586 H          1 MOL1         0.1009
@<TRIPOS>BOND
    1     1     2    1
    2     1     3    1
    3     1     4    1
    4     1     5    1
    5     5     6    1
    6     5     7    1
    7     7     8    1
    8     7     9    1
    9     7    10    1
   10     5    11    1
   11    11    12    1
   12    11    13    1
   13    11    14    1
   14    14    15    1
   15    14    16    1
   16    14    17    1
   17    17    18    1
   18    17    19    1
   19    17    20    1
@<TRIPOS>SUBSTRUCTURE
       1 MOL1            1 RESIDUE      1      MOL     
@<SCITEGIC>MOL_PROPERTY
VConf Rank
SciTegic.value.IntegerValue
363

@<SCITEGIC>MOL_PROPERTY
Conf_Id
SciTegic.value.IntegerValue
52

@<SCITEGIC>MOL_PROPERTY
Delta U+W
SciTegic.value.DoubleValue
2.995

@<SCITEGIC>MOL_PROPERTY
U+W
SciTegic.value.DoubleValue
-33.282

@<SCITEGIC>MOL_PROPERTY
Grad RMS
SciTegic.value.DoubleValue
0.000000

@<SCITEGIC>MOL_PROPERTY
U
SciTegic.value.DoubleValue
25.224

@<SCITEGIC>MOL_PROPERTY
W
SciTegic.value.DoubleValue
-58.506

@<SCITEGIC>MOL_PROPERTY
W(PB)
SciTegic.value.DoubleValue
-60.411

@<SCITEGIC>MOL_PROPERTY
W(SA)
SciTegic.value.DoubleValue
1.905

@<SCITEGIC>MOL_PROPERTY
Valence
SciTegic.value.DoubleValue
4.945

@<SCITEGIC>MOL_PROPERTY
Coulomb
SciTegic.value.DoubleValue
19.467

@<SCITEGIC>MOL_PROPERTY
VdW
SciTegic.value.DoubleValue
0.813

@<SCITEGIC>MOL_PROPERTY
VdW6
SciTegic.value.DoubleValue
-5.458

@<SCITEGIC>MOL_PROPERTY
VdW12
SciTegic.value.DoubleValue
6.270

@<SCITEGIC>MOL_PROPERTY
Bond
SciTegic.value.DoubleValue
0.200

@<SCITEGIC>MOL_PROPERTY
Angle
SciTegic.value.DoubleValue
1.675

@<SCITEGIC>MOL_PROPERTY
Pdih
SciTegic.value.DoubleValue
3.070

@<SCITEGIC>MOL_PROPERTY
Idih
SciTegic.value.DoubleValue
0.000

@<SCITEGIC>MOL_PROPERTY
Tether
SciTegic.value.DoubleValue
0.000

@<TRIPOS>MOLECULE
guest-s10_confgen4.mol2 : confsearch ligand conformer 364
          20          19           1
SMALL
USER_CHARGES
 
@<TRIPOS>ATOM
       1    N1      20.321392   19.629140   21.353083 N.4        1 MOL1        -0.5937
       2    H1      20.148038   20.634817   21.423367 H          1 MOL1         0.3684
       3    H2      20.429964   19.405954   20.360083 H          1 MOL1         0.3684
       4    H3      21.215135   19.440021   21.811824 H          1 MOL1         0.3684
       5    C1      19.207327   18.835442   21.979303 C.3        1 MOL1         0.1270
       6    H4      19.438237   17.777160   21.822919 H          1 MOL1         0.0960
       7    C2      17.880184   19.148255   21.267545 C.3        1 MOL1        -0.2382
       8    H5      17.592747   20.197959   21.406682 H          1 MOL1         0.1009
       9    H6      17.070317   18.517779   21.655183 H          1 MOL1         0.1009
      10    H7      17.961820   18.955953   20.190656 H          1 MOL1         0.1009
      11    C3      19.075217   19.084406   23.500749 C.3        1 MOL1        -0.1392
      12    H8      19.098394   20.162568   23.707156 H          1 MOL1         0.0998
      13    H9      18.085558   18.738048   23.827393 H          1 MOL1         0.0998
      14    C4      20.127069   18.350595   24.373523 C.3        1 MOL1        -0.1302
      15    H10     20.065050   17.267715   24.195872 H          1 MOL1         0.0998
      16    H11     19.859559   18.499422   25.429135 H          1 MOL1         0.0998
      17    C5      21.584288   18.824069   24.169706 C.3        1 MOL1        -0.2317
      18    H12     22.230618   18.409014   24.954101 H          1 MOL1         0.1009
      19    H13     21.660007   19.918086   24.221755 H          1 MOL1         0.1009
      20    H14     21.989471   18.483867   23.209743 H          1 MOL1         0.1009
@<TRIPOS>BOND
    1     1     2    1
    2     1     3    1
    3     1     4    1
    4     1     5    1
    5     5     6    1
    6     5     7    1
    7     7     8    1
    8     7     9    1
    9     7    10    1
   10     5    11    1
   11    11    12    1
   12    11    13    1
   13    11    14    1
   14    14    15    1
   15    14    16    1
   16    14    17    1
   17    17    18    1
   18    17    19    1
   19    17    20    1
@<TRIPOS>SUBSTRUCTURE
       1 MOL1            1 RESIDUE      1      MOL     
@<SCITEGIC>MOL_PROPERTY
VConf Rank
SciTegic.value.IntegerValue
364

@<SCITEGIC>MOL_PROPERTY
Conf_Id
SciTegic.value.IntegerValue
54

@<SCITEGIC>MOL_PROPERTY
Delta U+W
SciTegic.value.DoubleValue
2.752

@<SCITEGIC>MOL_PROPERTY
U+W
SciTegic.value.DoubleValue
-33.525

@<SCITEGIC>MOL_PROPERTY
Grad RMS
SciTegic.value.DoubleValue
0.000000

@<SCITEGIC>MOL_PROPERTY
U
SciTegic.value.DoubleValue
24.337

@<SCITEGIC>MOL_PROPERTY
W
SciTegic.value.DoubleValue
-57.862

@<SCITEGIC>MOL_PROPERTY
W(PB)
SciTegic.value.DoubleValue
-59.764

@<SCITEGIC>MOL_PROPERTY
W(SA)
SciTegic.value.DoubleValue
1.901

@<SCITEGIC>MOL_PROPERTY
Valence
SciTegic.value.DoubleValue
3.593

@<SCITEGIC>MOL_PROPERTY
Coulomb
SciTegic.value.DoubleValue
20.067

@<SCITEGIC>MOL_PROPERTY
VdW
SciTegic.value.DoubleValue
0.677

@<SCITEGIC>MOL_PROPERTY
VdW6
SciTegic.value.DoubleValue
-5.466

@<SCITEGIC>MOL_PROPERTY
VdW12
SciTegic.value.DoubleValue
6.144

@<SCITEGIC>MOL_PROPERTY
Bond
SciTegic.value.DoubleValue
0.191

@<SCITEGIC>MOL_PROPERTY
Angle
SciTegic.value.DoubleValue
1.557

@<SCITEGIC>MOL_PROPERTY
Pdih
SciTegic.value.DoubleValue
1.845

@<SCITEGIC>MOL_PROPERTY
Idih
SciTegic.value.DoubleValue
0.000

@<SCITEGIC>MOL_PROPERTY
Tether
SciTegic.value.DoubleValue
0.000

@<TRIPOS>MOLECULE
guest-s10_confgen4.mol2 : confsearch ligand conformer 365
          20          19           1
SMALL
USER_CHARGES
 
@<TRIPOS>ATOM
       1    N1      19.876689   17.130980   21.734526 N.4        1 MOL1        -0.5937
       2    H1      19.329861   16.343138   21.376841 H          1 MOL1         0.3684
       3    H2      20.792692   16.765385   22.008373 H          1 MOL1         0.3684
       4    H3      20.024069   17.778336   20.956929 H          1 MOL1         0.3684
       5    C1      19.182825   17.804682   22.887159 C.3        1 MOL1         0.1270
       6    H4      19.055338   17.035303   23.655159 H          1 MOL1         0.0960
       7    C2      17.780214   18.290711   22.480586 C.3        1 MOL1        -0.2382
       8    H5      17.278447   18.782765   23.322956 H          1 MOL1         0.1009
       9    H6      17.155671   17.443781   22.171164 H          1 MOL1         0.1009
      10    H7      17.822102   18.998378   21.644228 H          1 MOL1         0.1009
      11    C3      20.033058   18.937488   23.510783 C.3        1 MOL1        -0.1392
      12    H8      19.511450   19.323391   24.396638 H          1 MOL1         0.0998
      13    H9      20.971899   18.503871   23.879510 H          1 MOL1         0.0998
      14    C4      20.357498   20.114489   22.554879 C.3        1 MOL1        -0.1302
      15    H10     19.430272   20.595072   22.215312 H          1 MOL1         0.0998
      16    H11     20.871749   19.744025   21.657961 H          1 MOL1         0.0998
      17    C5      21.245613   21.173884   23.242093 C.3        1 MOL1        -0.2317
      18    H12     21.464910   22.001097   22.554566 H          1 MOL1         0.1009
      19    H13     22.202051   20.740537   23.562496 H          1 MOL1         0.1009
      20    H14     20.747669   21.593989   24.125713 H          1 MOL1         0.1009
@<TRIPOS>BOND
    1     1     2    1
    2     1     3    1
    3     1     4    1
    4     1     5    1
    5     5     6    1
    6     5     7    1
    7     7     8    1
    8     7     9    1
    9     7    10    1
   10     5    11    1
   11    11    12    1
   12    11    13    1
   13    11    14    1
   14    14    15    1
   15    14    16    1
   16    14    17    1
   17    17    18    1
   18    17    19    1
   19    17    20    1
@<TRIPOS>SUBSTRUCTURE
       1 MOL1            1 RESIDUE      1      MOL     
@<SCITEGIC>MOL_PROPERTY
VConf Rank
SciTegic.value.IntegerValue
365

@<SCITEGIC>MOL_PROPERTY
Conf_Id
SciTegic.value.IntegerValue
63

@<SCITEGIC>MOL_PROPERTY
Delta U+W
SciTegic.value.DoubleValue
0.420

@<SCITEGIC>MOL_PROPERTY
U+W
SciTegic.value.DoubleValue
-35.856

@<SCITEGIC>MOL_PROPERTY
Grad RMS
SciTegic.value.DoubleValue
0.000000

@<SCITEGIC>MOL_PROPERTY
U
SciTegic.value.DoubleValue
22.625

@<SCITEGIC>MOL_PROPERTY
W
SciTegic.value.DoubleValue
-58.481

@<SCITEGIC>MOL_PROPERTY
W(PB)
SciTegic.value.DoubleValue
-60.400

@<SCITEGIC>MOL_PROPERTY
W(SA)
SciTegic.value.DoubleValue
1.919

@<SCITEGIC>MOL_PROPERTY
Valence
SciTegic.value.DoubleValue
2.404

@<SCITEGIC>MOL_PROPERTY
Coulomb
SciTegic.value.DoubleValue
19.464

@<SCITEGIC>MOL_PROPERTY
VdW
SciTegic.value.DoubleValue
0.757

@<SCITEGIC>MOL_PROPERTY
VdW6
SciTegic.value.DoubleValue
-5.074

@<SCITEGIC>MOL_PROPERTY
VdW12
SciTegic.value.DoubleValue
5.830

@<SCITEGIC>MOL_PROPERTY
Bond
SciTegic.value.DoubleValue
0.172

@<SCITEGIC>MOL_PROPERTY
Angle
SciTegic.value.DoubleValue
1.207

@<SCITEGIC>MOL_PROPERTY
Pdih
SciTegic.value.DoubleValue
1.025

@<SCITEGIC>MOL_PROPERTY
Idih
SciTegic.value.DoubleValue
0.000

@<SCITEGIC>MOL_PROPERTY
Tether
SciTegic.value.DoubleValue
0.000

@<TRIPOS>MOLECULE
guest-s10_confgen4.mol2 : confsearch ligand conformer 366
          20          19           1
SMALL
USER_CHARGES
 
@<TRIPOS>ATOM
       1    N1      20.449357   19.620138   24.225197 N.4        1 MOL1        -0.5937
       2    H1      19.607975   20.197406   24.300775 H          1 MOL1         0.3684
       3    H2      21.226308   20.238687   23.979910 H          1 MOL1         0.3684
       4    H3      20.643362   19.239259   25.155162 H          1 MOL1         0.3684
       5    C1      20.272593   18.526716   23.206688 C.3        1 MOL1         0.1270
       6    H4      19.430618   17.915085   23.544498 H          1 MOL1         0.0960
       7    C2      21.521046   17.631437   23.148813 C.3        1 MOL1        -0.2382
       8    H5      21.739568   17.205425   24.135727 H          1 MOL1         0.1009
       9    H6      22.401108   18.197185   22.818398 H          1 MOL1         0.1009
      10    H7      21.370302   16.797006   22.452663 H          1 MOL1         0.1009
      11    C3      19.939047   19.076460   21.801159 C.3        1 MOL1        -0.1392
      12    H8      20.780584   19.680779   21.437225 H          1 MOL1         0.0998
      13    H9      19.841317   18.234956   21.102411 H          1 MOL1         0.0998
      14    C4      18.643154   19.924428   21.741908 C.3        1 MOL1        -0.1302
      15    H10     18.495543   20.270967   20.709424 H          1 MOL1         0.0998
      16    H11     18.754298   20.831517   22.351336 H          1 MOL1         0.0998
      17    C5      17.387243   19.143985   22.192425 C.3        1 MOL1        -0.2317
      18    H12     17.254966   18.231552   21.596482 H          1 MOL1         0.1009
      19    H13     16.486696   19.758998   22.066558 H          1 MOL1         0.1009
      20    H14     17.446273   18.857147   23.249844 H          1 MOL1         0.1009
@<TRIPOS>BOND
    1     1     2    1
    2     1     3    1
    3     1     4    1
    4     1     5    1
    5     5     6    1
    6     5     7    1
    7     7     8    1
    8     7     9    1
    9     7    10    1
   10     5    11    1
   11    11    12    1
   12    11    13    1
   13    11    14    1
   14    14    15    1
   15    14    16    1
   16    14    17    1
   17    17    18    1
   18    17    19    1
   19    17    20    1
@<TRIPOS>SUBSTRUCTURE
       1 MOL1            1 RESIDUE      1      MOL     
@<SCITEGIC>MOL_PROPERTY
VConf Rank
SciTegic.value.IntegerValue
366

@<SCITEGIC>MOL_PROPERTY
Conf_Id
SciTegic.value.IntegerValue
50

@<SCITEGIC>MOL_PROPERTY
Delta U+W
SciTegic.value.DoubleValue
0.466

@<SCITEGIC>MOL_PROPERTY
U+W
SciTegic.value.DoubleValue
-35.811

@<SCITEGIC>MOL_PROPERTY
Grad RMS
SciTegic.value.DoubleValue
0.000000

@<SCITEGIC>MOL_PROPERTY
U
SciTegic.value.DoubleValue
22.369

@<SCITEGIC>MOL_PROPERTY
W
SciTegic.value.DoubleValue
-58.180

@<SCITEGIC>MOL_PROPERTY
W(PB)
SciTegic.value.DoubleValue
-60.103

@<SCITEGIC>MOL_PROPERTY
W(SA)
SciTegic.value.DoubleValue
1.923

@<SCITEGIC>MOL_PROPERTY
Valence
SciTegic.value.DoubleValue
2.168

@<SCITEGIC>MOL_PROPERTY
Coulomb
SciTegic.value.DoubleValue
19.636

@<SCITEGIC>MOL_PROPERTY
VdW
SciTegic.value.DoubleValue
0.566

@<SCITEGIC>MOL_PROPERTY
VdW6
SciTegic.value.DoubleValue
-5.263

@<SCITEGIC>MOL_PROPERTY
VdW12
SciTegic.value.DoubleValue
5.829

@<SCITEGIC>MOL_PROPERTY
Bond
SciTegic.value.DoubleValue
0.162

@<SCITEGIC>MOL_PROPERTY
Angle
SciTegic.value.DoubleValue
1.066

@<SCITEGIC>MOL_PROPERTY
Pdih
SciTegic.value.DoubleValue
0.939

@<SCITEGIC>MOL_PROPERTY
Idih
SciTegic.value.DoubleValue
0.000

@<SCITEGIC>MOL_PROPERTY
Tether
SciTegic.value.DoubleValue
0.000

@<TRIPOS>MOLECULE
guest-s10_confgen4.mol2 : confsearch ligand conformer 367
          20          19           1
SMALL
USER_CHARGES
 
@<TRIPOS>ATOM
       1    N1      17.995221   17.502603   22.047081 N.4        1 MOL1        -0.5937
       2    H1      17.345738   17.460472   22.837266 H          1 MOL1         0.3684
       3    H2      18.404354   16.571431   21.935723 H          1 MOL1         0.3684
       4    H3      17.439372   17.692869   21.208889 H          1 MOL1         0.3684
       5    C1      19.054813   18.550785   22.254835 C.3        1 MOL1         0.1270
       6    H4      18.524868   19.501878   22.365936 H          1 MOL1         0.0960
       7    C2      19.963861   18.634036   21.014406 C.3        1 MOL1        -0.2382
       8    H5      20.480102   17.682145   20.838153 H          1 MOL1         0.1009
       9    H6      20.725107   19.413912   21.124346 H          1 MOL1         0.1009
      10    H7      19.375426   18.870827   20.119530 H          1 MOL1         0.1009
      11    C3      19.870634   18.300022   23.547037 C.3        1 MOL1        -0.1392
      12    H8      19.319186   17.601681   24.190386 H          1 MOL1         0.0998
      13    H9      20.818585   17.798354   23.310966 H          1 MOL1         0.0998
      14    C4      20.137842   19.580107   24.378761 C.3        1 MOL1        -0.1302
      15    H10     20.650171   19.294033   25.308069 H          1 MOL1         0.0998
      16    H11     19.180828   20.026752   24.683249 H          1 MOL1         0.0998
      17    C5      20.989570   20.642073   23.648677 C.3        1 MOL1        -0.2317
      18    H12     21.936420   20.215067   23.293476 H          1 MOL1         0.1009
      19    H13     21.230102   21.472096   24.325618 H          1 MOL1         0.1009
      20    H14     20.453479   21.064900   22.789926 H          1 MOL1         0.1009
@<TRIPOS>BOND
    1     1     2    1
    2     1     3    1
    3     1     4    1
    4     1     5    1
    5     5     6    1
    6     5     7    1
    7     7     8    1
    8     7     9    1
    9     7    10    1
   10     5    11    1
   11    11    12    1
   12    11    13    1
   13    11    14    1
   14    14    15    1
   15    14    16    1
   16    14    17    1
   17    17    18    1
   18    17    19    1
   19    17    20    1
@<TRIPOS>SUBSTRUCTURE
       1 MOL1            1 RESIDUE      1      MOL     
@<SCITEGIC>MOL_PROPERTY
VConf Rank
SciTegic.value.IntegerValue
367

@<SCITEGIC>MOL_PROPERTY
Conf_Id
SciTegic.value.IntegerValue
3

@<SCITEGIC>MOL_PROPERTY
Delta U+W
SciTegic.value.DoubleValue
3.093

@<SCITEGIC>MOL_PROPERTY
U+W
SciTegic.value.DoubleValue
-33.184

@<SCITEGIC>MOL_PROPERTY
Grad RMS
SciTegic.value.DoubleValue
0.000000

@<SCITEGIC>MOL_PROPERTY
U
SciTegic.value.DoubleValue
25.256

@<SCITEGIC>MOL_PROPERTY
W
SciTegic.value.DoubleValue
-58.439

@<SCITEGIC>MOL_PROPERTY
W(PB)
SciTegic.value.DoubleValue
-60.337

@<SCITEGIC>MOL_PROPERTY
W(SA)
SciTegic.value.DoubleValue
1.898

@<SCITEGIC>MOL_PROPERTY
Valence
SciTegic.value.DoubleValue
4.963

@<SCITEGIC>MOL_PROPERTY
Coulomb
SciTegic.value.DoubleValue
19.511

@<SCITEGIC>MOL_PROPERTY
VdW
SciTegic.value.DoubleValue
0.782

@<SCITEGIC>MOL_PROPERTY
VdW6
SciTegic.value.DoubleValue
-5.429

@<SCITEGIC>MOL_PROPERTY
VdW12
SciTegic.value.DoubleValue
6.211

@<SCITEGIC>MOL_PROPERTY
Bond
SciTegic.value.DoubleValue
0.174

@<SCITEGIC>MOL_PROPERTY
Angle
SciTegic.value.DoubleValue
1.377

@<SCITEGIC>MOL_PROPERTY
Pdih
SciTegic.value.DoubleValue
3.412

@<SCITEGIC>MOL_PROPERTY
Idih
SciTegic.value.DoubleValue
0.000

@<SCITEGIC>MOL_PROPERTY
Tether
SciTegic.value.DoubleValue
0.000

@<TRIPOS>MOLECULE
guest-s10_confgen4.mol2 : confsearch ligand conformer 368
          20          19           1
SMALL
USER_CHARGES
 
@<TRIPOS>ATOM
       1    N1      19.413876   16.712514   23.186056 N.4        1 MOL1        -0.5937
       2    H1      18.867948   16.354556   23.974386 H          1 MOL1         0.3684
       3    H2      20.374269   16.379764   23.307512 H          1 MOL1         0.3684
       4    H3      19.043815   16.277006   22.337485 H          1 MOL1         0.3684
       5    C1      19.351636   18.213378   23.109158 C.3        1 MOL1         0.1270
       6    H4      19.760894   18.585907   24.052994 H          1 MOL1         0.0960
       7    C2      17.890212   18.683505   22.993734 C.3        1 MOL1        -0.2382
       8    H5      17.815489   19.773932   23.076921 H          1 MOL1         0.1009
       9    H6      17.281173   18.254322   23.798722 H          1 MOL1         0.1009
      10    H7      17.450115   18.380671   22.035561 H          1 MOL1         0.1009
      11    C3      20.228217   18.751711   21.953203 C.3        1 MOL1        -0.1392
      12    H8      21.233574   18.319849   22.044190 H          1 MOL1         0.0998
      13    H9      19.828090   18.392183   20.995929 H          1 MOL1         0.0998
      14    C4      20.363831   20.294961   21.897601 C.3        1 MOL1        -0.1302
      15    H10     19.392330   20.755624   21.673439 H          1 MOL1         0.0998
      16    H11     21.022169   20.560253   21.058523 H          1 MOL1         0.0998
      17    C5      20.941372   20.899650   23.197580 C.3        1 MOL1        -0.2317
      18    H12     21.912877   20.451727   23.443954 H          1 MOL1         0.1009
      19    H13     20.266226   20.745490   24.048742 H          1 MOL1         0.1009
      20    H14     21.090194   21.981459   23.085513 H          1 MOL1         0.1009
@<TRIPOS>BOND
    1     1     2    1
    2     1     3    1
    3     1     4    1
    4     1     5    1
    5     5     6    1
    6     5     7    1
    7     7     8    1
    8     7     9    1
    9     7    10    1
   10     5    11    1
   11    11    12    1
   12    11    13    1
   13    11    14    1
   14    14    15    1
   15    14    16    1
   16    14    17    1
   17    17    18    1
   18    17    19    1
   19    17    20    1
@<TRIPOS>SUBSTRUCTURE
       1 MOL1            1 RESIDUE      1      MOL     
@<SCITEGIC>MOL_PROPERTY
VConf Rank
SciTegic.value.IntegerValue
368

@<SCITEGIC>MOL_PROPERTY
Conf_Id
SciTegic.value.IntegerValue
64

@<SCITEGIC>MOL_PROPERTY
Delta U+W
SciTegic.value.DoubleValue
0.544

@<SCITEGIC>MOL_PROPERTY
U+W
SciTegic.value.DoubleValue
-35.732

@<SCITEGIC>MOL_PROPERTY
Grad RMS
SciTegic.value.DoubleValue
0.000000

@<SCITEGIC>MOL_PROPERTY
U
SciTegic.value.DoubleValue
22.800

@<SCITEGIC>MOL_PROPERTY
W
SciTegic.value.DoubleValue
-58.532

@<SCITEGIC>MOL_PROPERTY
W(PB)
SciTegic.value.DoubleValue
-60.437

@<SCITEGIC>MOL_PROPERTY
W(SA)
SciTegic.value.DoubleValue
1.905

@<SCITEGIC>MOL_PROPERTY
Valence
SciTegic.value.DoubleValue
2.662

@<SCITEGIC>MOL_PROPERTY
Coulomb
SciTegic.value.DoubleValue
19.485

@<SCITEGIC>MOL_PROPERTY
VdW
SciTegic.value.DoubleValue
0.653

@<SCITEGIC>MOL_PROPERTY
VdW6
SciTegic.value.DoubleValue
-5.460

@<SCITEGIC>MOL_PROPERTY
VdW12
SciTegic.value.DoubleValue
6.113

@<SCITEGIC>MOL_PROPERTY
Bond
SciTegic.value.DoubleValue
0.174

@<SCITEGIC>MOL_PROPERTY
Angle
SciTegic.value.DoubleValue
1.378

@<SCITEGIC>MOL_PROPERTY
Pdih
SciTegic.value.DoubleValue
1.109

@<SCITEGIC>MOL_PROPERTY
Idih
SciTegic.value.DoubleValue
0.000

@<SCITEGIC>MOL_PROPERTY
Tether
SciTegic.value.DoubleValue
0.000

@<TRIPOS>MOLECULE
guest-s10_confgen4.mol2 : confsearch ligand conformer 369
          20          19           1
SMALL
USER_CHARGES
 
@<TRIPOS>ATOM
       1    N1      17.904577   18.521082   21.822732 N.4        1 MOL1        -0.5937
       2    H1      18.519863   17.901538   21.290886 H          1 MOL1         0.3684
       3    H2      17.314920   19.017756   21.149506 H          1 MOL1         0.3684
       4    H3      17.288523   17.930855   22.388215 H          1 MOL1         0.3684
       5    C1      18.691221   19.478507   22.676759 C.3        1 MOL1         0.1270
       6    H4      17.950377   20.098432   23.191353 H          1 MOL1         0.0960
       7    C2      19.547112   20.413209   21.806410 C.3        1 MOL1        -0.2382
       8    H5      20.225875   19.847761   21.157366 H          1 MOL1         0.1009
       9    H6      20.143051   21.091130   22.429802 H          1 MOL1         0.1009
      10    H7      18.907384   21.029353   21.162916 H          1 MOL1         0.1009
      11    C3      19.512229   18.753070   23.772490 C.3        1 MOL1        -0.1392
      12    H8      19.923337   19.494402   24.470283 H          1 MOL1         0.0998
      13    H9      18.808884   18.156280   24.367996 H          1 MOL1         0.0998
      14    C4      20.645637   17.814315   23.273142 C.3        1 MOL1        -0.1302
      15    H10     20.389453   17.373464   22.300825 H          1 MOL1         0.0998
      16    H11     20.728345   16.969867   23.971748 H          1 MOL1         0.0998
      17    C5      22.029372   18.501621   23.198072 C.3        1 MOL1        -0.2317
      18    H12     22.040660   19.331938   22.483633 H          1 MOL1         0.1009
      19    H13     22.797203   17.783600   22.882085 H          1 MOL1         0.1009
      20    H14     22.326595   18.894764   24.178959 H          1 MOL1         0.1009
@<TRIPOS>BOND
    1     1     2    1
    2     1     3    1
    3     1     4    1
    4     1     5    1
    5     5     6    1
    6     5     7    1
    7     7     8    1
    8     7     9    1
    9     7    10    1
   10     5    11    1
   11    11    12    1
   12    11    13    1
   13    11    14    1
   14    14    15    1
   15    14    16    1
   16    14    17    1
   17    17    18    1
   18    17    19    1
   19    17    20    1
@<TRIPOS>SUBSTRUCTURE
       1 MOL1            1 RESIDUE      1      MOL     
@<SCITEGIC>MOL_PROPERTY
VConf Rank
SciTegic.value.IntegerValue
369

@<SCITEGIC>MOL_PROPERTY
Conf_Id
SciTegic.value.IntegerValue
35

@<SCITEGIC>MOL_PROPERTY
Delta U+W
SciTegic.value.DoubleValue
3.004

@<SCITEGIC>MOL_PROPERTY
U+W
SciTegic.value.DoubleValue
-33.272

@<SCITEGIC>MOL_PROPERTY
Grad RMS
SciTegic.value.DoubleValue
0.000000

@<SCITEGIC>MOL_PROPERTY
U
SciTegic.value.DoubleValue
25.367

@<SCITEGIC>MOL_PROPERTY
W
SciTegic.value.DoubleValue
-58.639

@<SCITEGIC>MOL_PROPERTY
W(PB)
SciTegic.value.DoubleValue
-60.512

@<SCITEGIC>MOL_PROPERTY
W(SA)
SciTegic.value.DoubleValue
1.873

@<SCITEGIC>MOL_PROPERTY
Valence
SciTegic.value.DoubleValue
4.943

@<SCITEGIC>MOL_PROPERTY
Coulomb
SciTegic.value.DoubleValue
19.661

@<SCITEGIC>MOL_PROPERTY
VdW
SciTegic.value.DoubleValue
0.764

@<SCITEGIC>MOL_PROPERTY
VdW6
SciTegic.value.DoubleValue
-5.871

@<SCITEGIC>MOL_PROPERTY
VdW12
SciTegic.value.DoubleValue
6.636

@<SCITEGIC>MOL_PROPERTY
Bond
SciTegic.value.DoubleValue
0.230

@<SCITEGIC>MOL_PROPERTY
Angle
SciTegic.value.DoubleValue
1.857

@<SCITEGIC>MOL_PROPERTY
Pdih
SciTegic.value.DoubleValue
2.855

@<SCITEGIC>MOL_PROPERTY
Idih
SciTegic.value.DoubleValue
0.000

@<SCITEGIC>MOL_PROPERTY
Tether
SciTegic.value.DoubleValue
0.000

@<TRIPOS>MOLECULE
guest-s10_confgen4.mol2 : confsearch ligand conformer 370
          20          19           1
SMALL
USER_CHARGES
 
@<TRIPOS>ATOM
       1    N1      20.702029   18.236301   21.343649 N.4        1 MOL1        -0.5937
       2    H1      20.524504   17.595297   20.565703 H          1 MOL1         0.3684
       3    H2      21.715584   18.275923   21.480465 H          1 MOL1         0.3684
       4    H3      20.395768   19.167177   21.054390 H          1 MOL1         0.3684
       5    C1      19.994193   17.794746   22.595233 C.3        1 MOL1         0.1270
       6    H4      20.409318   16.809618   22.830011 H          1 MOL1         0.0960
       7    C2      18.485843   17.609990   22.351804 C.3        1 MOL1        -0.2382
       8    H5      18.012352   18.541244   22.018838 H          1 MOL1         0.1009
       9    H6      17.982275   17.275709   23.267279 H          1 MOL1         0.1009
      10    H7      18.311374   16.850452   21.580033 H          1 MOL1         0.1009
      11    C3      20.288761   18.707101   23.813490 C.3        1 MOL1        -0.1392
      12    H8      20.005815   18.154110   24.718855 H          1 MOL1         0.0998
      13    H9      21.373548   18.856682   23.891470 H          1 MOL1         0.0998
      14    C4      19.576500   20.088125   23.858808 C.3        1 MOL1        -0.1302
      15    H10     19.856011   20.583153   24.799364 H          1 MOL1         0.0998
      16    H11     18.487473   19.953634   23.909437 H          1 MOL1         0.0998
      17    C5      19.929483   21.034985   22.689286 C.3        1 MOL1        -0.2317
      18    H12     21.016289   21.120827   22.560351 H          1 MOL1         0.1009
      19    H13     19.537391   22.041694   22.884151 H          1 MOL1         0.1009
      20    H14     19.486097   20.694778   21.746453 H          1 MOL1         0.1009
@<TRIPOS>BOND
    1     1     2    1
    2     1     3    1
    3     1     4    1
    4     1     5    1
    5     5     6    1
    6     5     7    1
    7     7     8    1
    8     7     9    1
    9     7    10    1
   10     5    11    1
   11    11    12    1
   12    11    13    1
   13    11    14    1
   14    14    15    1
   15    14    16    1
   16    14    17    1
   17    17    18    1
   18    17    19    1
   19    17    20    1
@<TRIPOS>SUBSTRUCTURE
       1 MOL1            1 RESIDUE      1      MOL     
@<SCITEGIC>MOL_PROPERTY
VConf Rank
SciTegic.value.IntegerValue
370

@<SCITEGIC>MOL_PROPERTY
Conf_Id
SciTegic.value.IntegerValue
55

@<SCITEGIC>MOL_PROPERTY
Delta U+W
SciTegic.value.DoubleValue
2.767

@<SCITEGIC>MOL_PROPERTY
U+W
SciTegic.value.DoubleValue
-33.509

@<SCITEGIC>MOL_PROPERTY
Grad RMS
SciTegic.value.DoubleValue
0.000000

@<SCITEGIC>MOL_PROPERTY
U
SciTegic.value.DoubleValue
24.552

@<SCITEGIC>MOL_PROPERTY
W
SciTegic.value.DoubleValue
-58.061

@<SCITEGIC>MOL_PROPERTY
W(PB)
SciTegic.value.DoubleValue
-59.930

@<SCITEGIC>MOL_PROPERTY
W(SA)
SciTegic.value.DoubleValue
1.869

@<SCITEGIC>MOL_PROPERTY
Valence
SciTegic.value.DoubleValue
3.726

@<SCITEGIC>MOL_PROPERTY
Coulomb
SciTegic.value.DoubleValue
20.219

@<SCITEGIC>MOL_PROPERTY
VdW
SciTegic.value.DoubleValue
0.606

@<SCITEGIC>MOL_PROPERTY
VdW6
SciTegic.value.DoubleValue
-6.395

@<SCITEGIC>MOL_PROPERTY
VdW12
SciTegic.value.DoubleValue
7.001

@<SCITEGIC>MOL_PROPERTY
Bond
SciTegic.value.DoubleValue
0.241

@<SCITEGIC>MOL_PROPERTY
Angle
SciTegic.value.DoubleValue
2.098

@<SCITEGIC>MOL_PROPERTY
Pdih
SciTegic.value.DoubleValue
1.387

@<SCITEGIC>MOL_PROPERTY
Idih
SciTegic.value.DoubleValue
0.000

@<SCITEGIC>MOL_PROPERTY
Tether
SciTegic.value.DoubleValue
0.000

@<TRIPOS>MOLECULE
guest-s10_confgen4.mol2 : confsearch ligand conformer 371
          20          19           1
SMALL
USER_CHARGES
 
@<TRIPOS>ATOM
       1    N1      19.740803   19.286931   20.774615 N.4        1 MOL1        -0.5937
       2    H1      18.761950   19.045966   20.600467 H          1 MOL1         0.3684
       3    H2      20.248513   19.155248   19.895669 H          1 MOL1         0.3684
       4    H3      19.776766   20.284273   20.999551 H          1 MOL1         0.3684
       5    C1      20.326556   18.449923   21.879772 C.3        1 MOL1         0.1270
       6    H4      21.365161   18.772624   22.002447 H          1 MOL1         0.0960
       7    C2      20.327836   16.963045   21.488415 C.3        1 MOL1        -0.2382
       8    H5      20.877622   16.808267   20.551909 H          1 MOL1         0.1009
       9    H6      19.306187   16.587343   21.351026 H          1 MOL1         0.1009
      10    H7      20.813546   16.356236   22.262694 H          1 MOL1         0.1009
      11    C3      19.596706   18.650008   23.226411 C.3        1 MOL1        -0.1392
      12    H8      18.543889   18.355102   23.123834 H          1 MOL1         0.0998
      13    H9      20.038945   17.976254   23.972432 H          1 MOL1         0.0998
      14    C4      19.684087   20.102908   23.752685 C.3        1 MOL1        -0.1302
      15    H10     19.197300   20.791684   23.049086 H          1 MOL1         0.0998
      16    H11     20.737508   20.409341   23.820856 H          1 MOL1         0.0998
      17    C5      19.019065   20.248121   25.138312 C.3        1 MOL1        -0.2317
      18    H12     17.955877   19.977694   25.096420 H          1 MOL1         0.1009
      19    H13     19.088946   21.283867   25.495290 H          1 MOL1         0.1009
      20    H14     19.506743   19.603092   25.880834 H          1 MOL1         0.1009
@<TRIPOS>BOND
    1     1     2    1
    2     1     3    1
    3     1     4    1
    4     1     5    1
    5     5     6    1
    6     5     7    1
    7     7     8    1
    8     7     9    1
    9     7    10    1
   10     5    11    1
   11    11    12    1
   12    11    13    1
   13    11    14    1
   14    14    15    1
   15    14    16    1
   16    14    17    1
   17    17    18    1
   18    17    19    1
   19    17    20    1
@<TRIPOS>SUBSTRUCTURE
       1 MOL1            1 RESIDUE      1      MOL     
@<SCITEGIC>MOL_PROPERTY
VConf Rank
SciTegic.value.IntegerValue
371

@<SCITEGIC>MOL_PROPERTY
Conf_Id
SciTegic.value.IntegerValue
74

@<SCITEGIC>MOL_PROPERTY
Delta U+W
SciTegic.value.DoubleValue
0.000

@<SCITEGIC>MOL_PROPERTY
U+W
SciTegic.value.DoubleValue
-36.276

@<SCITEGIC>MOL_PROPERTY
Grad RMS
SciTegic.value.DoubleValue
0.000000

@<SCITEGIC>MOL_PROPERTY
U
SciTegic.value.DoubleValue
22.080

@<SCITEGIC>MOL_PROPERTY
W
SciTegic.value.DoubleValue
-58.356

@<SCITEGIC>MOL_PROPERTY
W(PB)
SciTegic.value.DoubleValue
-60.289

@<SCITEGIC>MOL_PROPERTY
W(SA)
SciTegic.value.DoubleValue
1.932

@<SCITEGIC>MOL_PROPERTY
Valence
SciTegic.value.DoubleValue
1.885

@<SCITEGIC>MOL_PROPERTY
Coulomb
SciTegic.value.DoubleValue
19.559

@<SCITEGIC>MOL_PROPERTY
VdW
SciTegic.value.DoubleValue
0.637

@<SCITEGIC>MOL_PROPERTY
VdW6
SciTegic.value.DoubleValue
-4.482

@<SCITEGIC>MOL_PROPERTY
VdW12
SciTegic.value.DoubleValue
5.119

@<SCITEGIC>MOL_PROPERTY
Bond
SciTegic.value.DoubleValue
0.136

@<SCITEGIC>MOL_PROPERTY
Angle
SciTegic.value.DoubleValue
0.867

@<SCITEGIC>MOL_PROPERTY
Pdih
SciTegic.value.DoubleValue
0.882

@<SCITEGIC>MOL_PROPERTY
Idih
SciTegic.value.DoubleValue
0.000

@<SCITEGIC>MOL_PROPERTY
Tether
SciTegic.value.DoubleValue
0.000

@<TRIPOS>MOLECULE
guest-s10_confgen4.mol2 : confsearch ligand conformer 372
          20          19           1
SMALL
USER_CHARGES
 
@<TRIPOS>ATOM
       1    N1      18.337049   19.858105   21.018577 N.4        1 MOL1        -0.5937
       2    H1      18.532264   20.858965   21.108170 H          1 MOL1         0.3684
       3    H2      17.433719   19.681022   21.465079 H          1 MOL1         0.3684
       4    H3      18.226946   19.660006   20.020422 H          1 MOL1         0.3684
       5    C1      19.428556   19.022254   21.628850 C.3        1 MOL1         0.1270
       6    H4      20.347483   19.274924   21.090708 H          1 MOL1         0.0960
       7    C2      19.136791   17.525410   21.416414 C.3        1 MOL1        -0.2382
       8    H5      18.946590   17.315480   20.356709 H          1 MOL1         0.1009
       9    H6      18.256882   17.207039   21.989110 H          1 MOL1         0.1009
      10    H7      19.987913   16.905559   21.720715 H          1 MOL1         0.1009
      11    C3      19.631321   19.370566   23.121852 C.3        1 MOL1        -0.1392
      12    H8      19.725871   20.460583   23.214510 H          1 MOL1         0.0998
      13    H9      18.737046   19.086879   23.692504 H          1 MOL1         0.0998
      14    C4      20.883130   18.713458   23.752996 C.3        1 MOL1        -0.1302
      15    H10     21.769500   18.945473   23.145883 H          1 MOL1         0.0998
      16    H11     20.777975   17.620384   23.758712 H          1 MOL1         0.0998
      17    C5      21.113060   19.199322   25.200322 C.3        1 MOL1        -0.2317
      18    H12     21.266512   20.285870   25.233535 H          1 MOL1         0.1009
      19    H13     22.001355   18.721224   25.633267 H          1 MOL1         0.1009
      20    H14     20.254496   18.955716   25.839684 H          1 MOL1         0.1009
@<TRIPOS>BOND
    1     1     2    1
    2     1     3    1
    3     1     4    1
    4     1     5    1
    5     5     6    1
    6     5     7    1
    7     7     8    1
    8     7     9    1
    9     7    10    1
   10     5    11    1
   11    11    12    1
   12    11    13    1
   13    11    14    1
   14    14    15    1
   15    14    16    1
   16    14    17    1
   17    17    18    1
   18    17    19    1
   19    17    20    1
@<TRIPOS>SUBSTRUCTURE
       1 MOL1            1 RESIDUE      1      MOL     
@<SCITEGIC>MOL_PROPERTY
VConf Rank
SciTegic.value.IntegerValue
372

@<SCITEGIC>MOL_PROPERTY
Conf_Id
SciTegic.value.IntegerValue
80

@<SCITEGIC>MOL_PROPERTY
Delta U+W
SciTegic.value.DoubleValue
0.460

@<SCITEGIC>MOL_PROPERTY
U+W
SciTegic.value.DoubleValue
-35.817

@<SCITEGIC>MOL_PROPERTY
Grad RMS
SciTegic.value.DoubleValue
0.000000

@<SCITEGIC>MOL_PROPERTY
U
SciTegic.value.DoubleValue
22.495

@<SCITEGIC>MOL_PROPERTY
W
SciTegic.value.DoubleValue
-58.311

@<SCITEGIC>MOL_PROPERTY
W(PB)
SciTegic.value.DoubleValue
-60.259

@<SCITEGIC>MOL_PROPERTY
W(SA)
SciTegic.value.DoubleValue
1.948

@<SCITEGIC>MOL_PROPERTY
Valence
SciTegic.value.DoubleValue
2.419

@<SCITEGIC>MOL_PROPERTY
Coulomb
SciTegic.value.DoubleValue
19.304

@<SCITEGIC>MOL_PROPERTY
VdW
SciTegic.value.DoubleValue
0.772

@<SCITEGIC>MOL_PROPERTY
VdW6
SciTegic.value.DoubleValue
-4.635

@<SCITEGIC>MOL_PROPERTY
VdW12
SciTegic.value.DoubleValue
5.407

@<SCITEGIC>MOL_PROPERTY
Bond
SciTegic.value.DoubleValue
0.149

@<SCITEGIC>MOL_PROPERTY
Angle
SciTegic.value.DoubleValue
1.142

@<SCITEGIC>MOL_PROPERTY
Pdih
SciTegic.value.DoubleValue
1.129

@<SCITEGIC>MOL_PROPERTY
Idih
SciTegic.value.DoubleValue
0.000

@<SCITEGIC>MOL_PROPERTY
Tether
SciTegic.value.DoubleValue
0.000

@<TRIPOS>MOLECULE
guest-s10_confgen4.mol2 : confsearch ligand conformer 373
          20          19           1
SMALL
USER_CHARGES
 
@<TRIPOS>ATOM
       1    N1      21.700135   20.186937   22.192931 N.4        1 MOL1        -0.5937
       2    H1      22.152858   19.843187   21.341644 H          1 MOL1         0.3684
       3    H2      22.250262   19.853755   22.988569 H          1 MOL1         0.3684
       4    H3      21.770004   21.208012   22.181161 H          1 MOL1         0.3684
       5    C1      20.268572   19.733896   22.283101 C.3        1 MOL1         0.1270
       6    H4      19.762920   20.139554   21.401309 H          1 MOL1         0.0960
       7    C2      19.599583   20.329261   23.533802 C.3        1 MOL1        -0.2382
       8    H5      19.766110   21.412266   23.583927 H          1 MOL1         0.1009
       9    H6      19.999383   19.880041   24.451307 H          1 MOL1         0.1009
      10    H7      18.515262   20.171914   23.511514 H          1 MOL1         0.1009
      11    C3      20.169693   18.189804   22.225326 C.3        1 MOL1        -0.1392
      12    H8      20.703335   17.859181   21.324434 H          1 MOL1         0.0998
      13    H9      20.708161   17.743189   23.071681 H          1 MOL1         0.0998
      14    C4      18.725323   17.627708   22.151259 C.3        1 MOL1        -0.1302
      15    H10     18.725190   16.747968   21.492339 H          1 MOL1         0.0998
      16    H11     18.054699   18.358303   21.677487 H          1 MOL1         0.0998
      17    C5      18.163624   17.192407   23.525319 C.3        1 MOL1        -0.2317
      18    H12     18.786812   16.407038   23.972475 H          1 MOL1         0.1009
      19    H13     17.148987   16.788320   23.414827 H          1 MOL1         0.1009
      20    H14     18.112921   18.026318   24.234237 H          1 MOL1         0.1009
@<TRIPOS>BOND
    1     1     2    1
    2     1     3    1
    3     1     4    1
    4     1     5    1
    5     5     6    1
    6     5     7    1
    7     7     8    1
    8     7     9    1
    9     7    10    1
   10     5    11    1
   11    11    12    1
   12    11    13    1
   13    11    14    1
   14    14    15    1
   15    14    16    1
   16    14    17    1
   17    17    18    1
   18    17    19    1
   19    17    20    1
@<TRIPOS>SUBSTRUCTURE
       1 MOL1            1 RESIDUE      1      MOL     
@<SCITEGIC>MOL_PROPERTY
VConf Rank
SciTegic.value.IntegerValue
373

@<SCITEGIC>MOL_PROPERTY
Conf_Id
SciTegic.value.IntegerValue
52

@<SCITEGIC>MOL_PROPERTY
Delta U+W
SciTegic.value.DoubleValue
2.995

@<SCITEGIC>MOL_PROPERTY
U+W
SciTegic.value.DoubleValue
-33.282

@<SCITEGIC>MOL_PROPERTY
Grad RMS
SciTegic.value.DoubleValue
0.000000

@<SCITEGIC>MOL_PROPERTY
U
SciTegic.value.DoubleValue
25.224

@<SCITEGIC>MOL_PROPERTY
W
SciTegic.value.DoubleValue
-58.506

@<SCITEGIC>MOL_PROPERTY
W(PB)
SciTegic.value.DoubleValue
-60.411

@<SCITEGIC>MOL_PROPERTY
W(SA)
SciTegic.value.DoubleValue
1.905

@<SCITEGIC>MOL_PROPERTY
Valence
SciTegic.value.DoubleValue
4.945

@<SCITEGIC>MOL_PROPERTY
Coulomb
SciTegic.value.DoubleValue
19.467

@<SCITEGIC>MOL_PROPERTY
VdW
SciTegic.value.DoubleValue
0.813

@<SCITEGIC>MOL_PROPERTY
VdW6
SciTegic.value.DoubleValue
-5.458

@<SCITEGIC>MOL_PROPERTY
VdW12
SciTegic.value.DoubleValue
6.270

@<SCITEGIC>MOL_PROPERTY
Bond
SciTegic.value.DoubleValue
0.200

@<SCITEGIC>MOL_PROPERTY
Angle
SciTegic.value.DoubleValue
1.675

@<SCITEGIC>MOL_PROPERTY
Pdih
SciTegic.value.DoubleValue
3.070

@<SCITEGIC>MOL_PROPERTY
Idih
SciTegic.value.DoubleValue
0.000

@<SCITEGIC>MOL_PROPERTY
Tether
SciTegic.value.DoubleValue
0.000

@<TRIPOS>MOLECULE
guest-s10_confgen4.mol2 : confsearch ligand conformer 374
          20          19           1
SMALL
USER_CHARGES
 
@<TRIPOS>ATOM
       1    N1      21.322351   19.224523   22.390641 N.4        1 MOL1        -0.5937
       2    H1      21.369869   20.149686   21.956829 H          1 MOL1         0.3684
       3    H2      22.157771   18.708105   22.102483 H          1 MOL1         0.3684
       4    H3      21.375463   19.358169   23.402720 H          1 MOL1         0.3684
       5    C1      20.062890   18.499950   22.000767 C.3        1 MOL1         0.1270
       6    H4      20.106611   17.507647   22.460287 H          1 MOL1         0.0960
       7    C2      20.015582   18.321038   20.473838 C.3        1 MOL1        -0.2382
       8    H5      19.954742   19.289741   19.962201 H          1 MOL1         0.1009
       9    H6      19.145502   17.722345   20.176897 H          1 MOL1         0.1009
      10    H7      20.912330   17.800757   20.115390 H          1 MOL1         0.1009
      11    C3      18.782684   19.210995   22.500491 C.3        1 MOL1        -0.1392
      12    H8      18.835031   20.282969   22.268747 H          1 MOL1         0.0998
      13    H9      17.924181   18.823913   21.935492 H          1 MOL1         0.0998
      14    C4      18.469566   19.004452   24.005783 C.3        1 MOL1        -0.1302
      15    H10     18.372071   17.930788   24.219734 H          1 MOL1         0.0998
      16    H11     17.484200   19.444695   24.213790 H          1 MOL1         0.0998
      17    C5      19.497089   19.632261   24.974936 C.3        1 MOL1        -0.2317
      18    H12     19.106320   19.620683   26.000828 H          1 MOL1         0.1009
      19    H13     19.707942   20.677098   24.711927 H          1 MOL1         0.1009
      20    H14     20.438198   19.070452   24.985995 H          1 MOL1         0.1009
@<TRIPOS>BOND
    1     1     2    1
    2     1     3    1
    3     1     4    1
    4     1     5    1
    5     5     6    1
    6     5     7    1
    7     7     8    1
    8     7     9    1
    9     7    10    1
   10     5    11    1
   11    11    12    1
   12    11    13    1
   13    11    14    1
   14    14    15    1
   15    14    16    1
   16    14    17    1
   17    17    18    1
   18    17    19    1
   19    17    20    1
@<TRIPOS>SUBSTRUCTURE
       1 MOL1            1 RESIDUE      1      MOL     
@<SCITEGIC>MOL_PROPERTY
VConf Rank
SciTegic.value.IntegerValue
374

@<SCITEGIC>MOL_PROPERTY
Conf_Id
SciTegic.value.IntegerValue
54

@<SCITEGIC>MOL_PROPERTY
Delta U+W
SciTegic.value.DoubleValue
2.752

@<SCITEGIC>MOL_PROPERTY
U+W
SciTegic.value.DoubleValue
-33.525

@<SCITEGIC>MOL_PROPERTY
Grad RMS
SciTegic.value.DoubleValue
0.000000

@<SCITEGIC>MOL_PROPERTY
U
SciTegic.value.DoubleValue
24.337

@<SCITEGIC>MOL_PROPERTY
W
SciTegic.value.DoubleValue
-57.862

@<SCITEGIC>MOL_PROPERTY
W(PB)
SciTegic.value.DoubleValue
-59.764

@<SCITEGIC>MOL_PROPERTY
W(SA)
SciTegic.value.DoubleValue
1.901

@<SCITEGIC>MOL_PROPERTY
Valence
SciTegic.value.DoubleValue
3.593

@<SCITEGIC>MOL_PROPERTY
Coulomb
SciTegic.value.DoubleValue
20.067

@<SCITEGIC>MOL_PROPERTY
VdW
SciTegic.value.DoubleValue
0.677

@<SCITEGIC>MOL_PROPERTY
VdW6
SciTegic.value.DoubleValue
-5.466

@<SCITEGIC>MOL_PROPERTY
VdW12
SciTegic.value.DoubleValue
6.144

@<SCITEGIC>MOL_PROPERTY
Bond
SciTegic.value.DoubleValue
0.191

@<SCITEGIC>MOL_PROPERTY
Angle
SciTegic.value.DoubleValue
1.557

@<SCITEGIC>MOL_PROPERTY
Pdih
SciTegic.value.DoubleValue
1.845

@<SCITEGIC>MOL_PROPERTY
Idih
SciTegic.value.DoubleValue
0.000

@<SCITEGIC>MOL_PROPERTY
Tether
SciTegic.value.DoubleValue
0.000

@<TRIPOS>MOLECULE
guest-s10_confgen4.mol2 : confsearch ligand conformer 375
          20          19           1
SMALL
USER_CHARGES
 
@<TRIPOS>ATOM
       1    N1      17.931453   19.852368   22.334757 N.4        1 MOL1        -0.5937
       2    H1      17.053088   20.151943   22.766479 H          1 MOL1         0.3684
       3    H2      17.724811   19.611290   21.361673 H          1 MOL1         0.3684
       4    H3      18.557911   20.660391   22.324854 H          1 MOL1         0.3684
       5    C1      18.541185   18.692666   23.074490 C.3        1 MOL1         0.1270
       6    H4      17.796944   17.890593   23.046061 H          1 MOL1         0.0960
       7    C2      18.785363   19.046289   24.552384 C.3        1 MOL1        -0.2382
       8    H5      19.231493   18.199010   25.087695 H          1 MOL1         0.1009
       9    H6      17.838843   19.291545   25.049410 H          1 MOL1         0.1009
      10    H7      19.452354   19.909935   24.658591 H          1 MOL1         0.1009
      11    C3      19.819004   18.156032   22.385828 C.3        1 MOL1        -0.1392
      12    H8      20.159273   17.260329   22.922176 H          1 MOL1         0.0998
      13    H9      19.553064   17.818832   21.375394 H          1 MOL1         0.0998
      14    C4      20.987497   19.171007   22.292046 C.3        1 MOL1        -0.1302
      15    H10     21.302907   19.481471   23.297104 H          1 MOL1         0.0998
      16    H11     20.660826   20.077967   21.765861 H          1 MOL1         0.0998
      17    C5      22.201610   18.570031   21.551716 C.3        1 MOL1        -0.2317
      18    H12     23.020783   19.298604   21.495100 H          1 MOL1         0.1009
      19    H13     21.936470   18.281954   20.526079 H          1 MOL1         0.1009
      20    H14     22.579195   17.679046   22.070174 H          1 MOL1         0.1009
@<TRIPOS>BOND
    1     1     2    1
    2     1     3    1
    3     1     4    1
    4     1     5    1
    5     5     6    1
    6     5     7    1
    7     7     8    1
    8     7     9    1
    9     7    10    1
   10     5    11    1
   11    11    12    1
   12    11    13    1
   13    11    14    1
   14    14    15    1
   15    14    16    1
   16    14    17    1
   17    17    18    1
   18    17    19    1
   19    17    20    1
@<TRIPOS>SUBSTRUCTURE
       1 MOL1            1 RESIDUE      1      MOL     
@<SCITEGIC>MOL_PROPERTY
VConf Rank
SciTegic.value.IntegerValue
375

@<SCITEGIC>MOL_PROPERTY
Conf_Id
SciTegic.value.IntegerValue
63

@<SCITEGIC>MOL_PROPERTY
Delta U+W
SciTegic.value.DoubleValue
0.420

@<SCITEGIC>MOL_PROPERTY
U+W
SciTegic.value.DoubleValue
-35.856

@<SCITEGIC>MOL_PROPERTY
Grad RMS
SciTegic.value.DoubleValue
0.000000

@<SCITEGIC>MOL_PROPERTY
U
SciTegic.value.DoubleValue
22.625

@<SCITEGIC>MOL_PROPERTY
W
SciTegic.value.DoubleValue
-58.481

@<SCITEGIC>MOL_PROPERTY
W(PB)
SciTegic.value.DoubleValue
-60.400

@<SCITEGIC>MOL_PROPERTY
W(SA)
SciTegic.value.DoubleValue
1.919

@<SCITEGIC>MOL_PROPERTY
Valence
SciTegic.value.DoubleValue
2.404

@<SCITEGIC>MOL_PROPERTY
Coulomb
SciTegic.value.DoubleValue
19.464

@<SCITEGIC>MOL_PROPERTY
VdW
SciTegic.value.DoubleValue
0.757

@<SCITEGIC>MOL_PROPERTY
VdW6
SciTegic.value.DoubleValue
-5.074

@<SCITEGIC>MOL_PROPERTY
VdW12
SciTegic.value.DoubleValue
5.830

@<SCITEGIC>MOL_PROPERTY
Bond
SciTegic.value.DoubleValue
0.172

@<SCITEGIC>MOL_PROPERTY
Angle
SciTegic.value.DoubleValue
1.207

@<SCITEGIC>MOL_PROPERTY
Pdih
SciTegic.value.DoubleValue
1.025

@<SCITEGIC>MOL_PROPERTY
Idih
SciTegic.value.DoubleValue
0.000

@<SCITEGIC>MOL_PROPERTY
Tether
SciTegic.value.DoubleValue
0.000

@<TRIPOS>MOLECULE
guest-s10_confgen4.mol2 : confsearch ligand conformer 376
          20          19           1
SMALL
USER_CHARGES
 
@<TRIPOS>ATOM
       1    N1      18.052217   19.628765   22.992272 N.4        1 MOL1        -0.5937
       2    H1      18.370625   20.392594   22.390561 H          1 MOL1         0.3684
       3    H2      17.948898   20.004328   23.938158 H          1 MOL1         0.3684
       4    H3      17.121047   19.352903   22.669218 H          1 MOL1         0.3684
       5    C1      19.012894   18.471058   22.960771 C.3        1 MOL1         0.1270
       6    H4      19.061908   18.130964   21.921991 H          1 MOL1         0.0960
       7    C2      18.490596   17.308398   23.820386 C.3        1 MOL1        -0.2382
       8    H5      17.496224   16.991713   23.482492 H          1 MOL1         0.1009
       9    H6      18.416889   17.596517   24.876468 H          1 MOL1         0.1009
      10    H7      19.157860   16.440485   23.748915 H          1 MOL1         0.1009
      11    C3      20.437217   18.872592   23.406927 C.3        1 MOL1        -0.1392
      12    H8      20.411641   19.201949   24.454162 H          1 MOL1         0.0998
      13    H9      21.083319   17.985020   23.380543 H          1 MOL1         0.0998
      14    C4      21.084157   19.983862   22.541798 C.3        1 MOL1        -0.1302
      15    H10     22.086004   20.200834   22.938193 H          1 MOL1         0.0998
      16    H11     20.514246   20.918251   22.634984 H          1 MOL1         0.0998
      17    C5      21.208981   19.595494   21.050839 C.3        1 MOL1        -0.2317
      18    H12     21.775915   18.662915   20.932259 H          1 MOL1         0.1009
      19    H13     21.735337   20.380108   20.491913 H          1 MOL1         0.1009
      20    H14     20.225381   19.460385   20.583748 H          1 MOL1         0.1009
@<TRIPOS>BOND
    1     1     2    1
    2     1     3    1
    3     1     4    1
    4     1     5    1
    5     5     6    1
    6     5     7    1
    7     7     8    1
    8     7     9    1
    9     7    10    1
   10     5    11    1
   11    11    12    1
   12    11    13    1
   13    11    14    1
   14    14    15    1
   15    14    16    1
   16    14    17    1
   17    17    18    1
   18    17    19    1
   19    17    20    1
@<TRIPOS>SUBSTRUCTURE
       1 MOL1            1 RESIDUE      1      MOL     
@<SCITEGIC>MOL_PROPERTY
VConf Rank
SciTegic.value.IntegerValue
376

@<SCITEGIC>MOL_PROPERTY
Conf_Id
SciTegic.value.IntegerValue
50

@<SCITEGIC>MOL_PROPERTY
Delta U+W
SciTegic.value.DoubleValue
0.466

@<SCITEGIC>MOL_PROPERTY
U+W
SciTegic.value.DoubleValue
-35.811

@<SCITEGIC>MOL_PROPERTY
Grad RMS
SciTegic.value.DoubleValue
0.000000

@<SCITEGIC>MOL_PROPERTY
U
SciTegic.value.DoubleValue
22.369

@<SCITEGIC>MOL_PROPERTY
W
SciTegic.value.DoubleValue
-58.180

@<SCITEGIC>MOL_PROPERTY
W(PB)
SciTegic.value.DoubleValue
-60.103

@<SCITEGIC>MOL_PROPERTY
W(SA)
SciTegic.value.DoubleValue
1.923

@<SCITEGIC>MOL_PROPERTY
Valence
SciTegic.value.DoubleValue
2.168

@<SCITEGIC>MOL_PROPERTY
Coulomb
SciTegic.value.DoubleValue
19.636

@<SCITEGIC>MOL_PROPERTY
VdW
SciTegic.value.DoubleValue
0.566

@<SCITEGIC>MOL_PROPERTY
VdW6
SciTegic.value.DoubleValue
-5.263

@<SCITEGIC>MOL_PROPERTY
VdW12
SciTegic.value.DoubleValue
5.829

@<SCITEGIC>MOL_PROPERTY
Bond
SciTegic.value.DoubleValue
0.162

@<SCITEGIC>MOL_PROPERTY
Angle
SciTegic.value.DoubleValue
1.066

@<SCITEGIC>MOL_PROPERTY
Pdih
SciTegic.value.DoubleValue
0.939

@<SCITEGIC>MOL_PROPERTY
Idih
SciTegic.value.DoubleValue
0.000

@<SCITEGIC>MOL_PROPERTY
Tether
SciTegic.value.DoubleValue
0.000

@<TRIPOS>MOLECULE
guest-s10_confgen4.mol2 : confsearch ligand conformer 377
          20          19           1
SMALL
USER_CHARGES
 
@<TRIPOS>ATOM
       1    N1      19.571870   20.401722   21.016163 N.4        1 MOL1        -0.5937
       2    H1      19.237362   19.850804   20.220808 H          1 MOL1         0.3684
       3    H2      20.531302   20.690094   20.808307 H          1 MOL1         0.3684
       4    H3      19.001230   21.250501   21.057154 H          1 MOL1         0.3684
       5    C1      19.494712   19.623647   22.301942 C.3        1 MOL1         0.1270
       6    H4      18.441089   19.359382   22.435372 H          1 MOL1         0.0960
       7    C2      19.934513   20.510655   23.481670 C.3        1 MOL1        -0.2382
       8    H5      20.974834   20.838381   23.363373 H          1 MOL1         0.1009
       9    H6      19.855957   19.979460   24.436368 H          1 MOL1         0.1009
      10    H7      19.303276   21.405185   23.548627 H          1 MOL1         0.1009
      11    C3      20.315514   18.312185   22.234253 C.3        1 MOL1        -0.1392
      12    H8      20.527218   18.074533   21.183361 H          1 MOL1         0.0998
      13    H9      21.296093   18.448354   22.709581 H          1 MOL1         0.0998
      14    C4      19.591729   17.086583   22.847291 C.3        1 MOL1        -0.1302
      15    H10     20.212697   16.194595   22.683926 H          1 MOL1         0.0998
      16    H11     18.651713   16.906870   22.306779 H          1 MOL1         0.0998
      17    C5      19.297147   17.216821   24.358084 C.3        1 MOL1        -0.2317
      18    H12     20.211916   17.439543   24.922548 H          1 MOL1         0.1009
      19    H13     18.882329   16.279055   24.749954 H          1 MOL1         0.1009
      20    H14     18.563181   18.007675   24.556769 H          1 MOL1         0.1009
@<TRIPOS>BOND
    1     1     2    1
    2     1     3    1
    3     1     4    1
    4     1     5    1
    5     5     6    1
    6     5     7    1
    7     7     8    1
    8     7     9    1
    9     7    10    1
   10     5    11    1
   11    11    12    1
   12    11    13    1
   13    11    14    1
   14    14    15    1
   15    14    16    1
   16    14    17    1
   17    17    18    1
   18    17    19    1
   19    17    20    1
@<TRIPOS>SUBSTRUCTURE
       1 MOL1            1 RESIDUE      1      MOL     
@<SCITEGIC>MOL_PROPERTY
VConf Rank
SciTegic.value.IntegerValue
377

@<SCITEGIC>MOL_PROPERTY
Conf_Id
SciTegic.value.IntegerValue
3

@<SCITEGIC>MOL_PROPERTY
Delta U+W
SciTegic.value.DoubleValue
3.093

@<SCITEGIC>MOL_PROPERTY
U+W
SciTegic.value.DoubleValue
-33.184

@<SCITEGIC>MOL_PROPERTY
Grad RMS
SciTegic.value.DoubleValue
0.000000

@<SCITEGIC>MOL_PROPERTY
U
SciTegic.value.DoubleValue
25.256

@<SCITEGIC>MOL_PROPERTY
W
SciTegic.value.DoubleValue
-58.439

@<SCITEGIC>MOL_PROPERTY
W(PB)
SciTegic.value.DoubleValue
-60.337

@<SCITEGIC>MOL_PROPERTY
W(SA)
SciTegic.value.DoubleValue
1.898

@<SCITEGIC>MOL_PROPERTY
Valence
SciTegic.value.DoubleValue
4.963

@<SCITEGIC>MOL_PROPERTY
Coulomb
SciTegic.value.DoubleValue
19.511

@<SCITEGIC>MOL_PROPERTY
VdW
SciTegic.value.DoubleValue
0.782

@<SCITEGIC>MOL_PROPERTY
VdW6
SciTegic.value.DoubleValue
-5.429

@<SCITEGIC>MOL_PROPERTY
VdW12
SciTegic.value.DoubleValue
6.211

@<SCITEGIC>MOL_PROPERTY
Bond
SciTegic.value.DoubleValue
0.174

@<SCITEGIC>MOL_PROPERTY
Angle
SciTegic.value.DoubleValue
1.377

@<SCITEGIC>MOL_PROPERTY
Pdih
SciTegic.value.DoubleValue
3.412

@<SCITEGIC>MOL_PROPERTY
Idih
SciTegic.value.DoubleValue
0.000

@<SCITEGIC>MOL_PROPERTY
Tether
SciTegic.value.DoubleValue
0.000

@<TRIPOS>MOLECULE
guest-s10_confgen4.mol2 : confsearch ligand conformer 378
          20          19           1
SMALL
USER_CHARGES
 
@<TRIPOS>ATOM
       1    N1      19.020722   16.759256   22.916525 N.4        1 MOL1        -0.5937
       2    H1      18.852637   16.168128   22.098020 H          1 MOL1         0.3684
       3    H2      18.140687   16.812830   23.436619 H          1 MOL1         0.3684
       4    H3      19.697652   16.272265   23.509223 H          1 MOL1         0.3684
       5    C1      19.514829   18.123145   22.518976 C.3        1 MOL1         0.1270
       6    H4      18.733783   18.560848   21.890104 H          1 MOL1         0.0960
       7    C2      20.802032   18.003674   21.682952 C.3        1 MOL1        -0.2382
       8    H5      21.098350   18.974086   21.268185 H          1 MOL1         0.1009
       9    H6      20.651911   17.321637   20.837125 H          1 MOL1         0.1009
      10    H7      21.633452   17.619304   22.286682 H          1 MOL1         0.1009
      11    C3      19.708083   19.031483   23.756718 C.3        1 MOL1        -0.1392
      12    H8      18.786562   19.012998   24.353362 H          1 MOL1         0.0998
      13    H9      20.493967   18.610146   24.397496 H          1 MOL1         0.0998
      14    C4      20.052785   20.508855   23.437883 C.3        1 MOL1        -0.1302
      15    H10     21.037832   20.575650   22.956745 H          1 MOL1         0.0998
      16    H11     20.143090   21.061058   24.383798 H          1 MOL1         0.0998
      17    C5      18.991134   21.201407   22.553339 C.3        1 MOL1        -0.2317
      18    H12     17.995956   21.144882   23.013322 H          1 MOL1         0.1009
      19    H13     18.935697   20.744343   21.557306 H          1 MOL1         0.1009
      20    H14     19.237144   22.262472   22.416820 H          1 MOL1         0.1009
@<TRIPOS>BOND
    1     1     2    1
    2     1     3    1
    3     1     4    1
    4     1     5    1
    5     5     6    1
    6     5     7    1
    7     7     8    1
    8     7     9    1
    9     7    10    1
   10     5    11    1
   11    11    12    1
   12    11    13    1
   13    11    14    1
   14    14    15    1
   15    14    16    1
   16    14    17    1
   17    17    18    1
   18    17    19    1
   19    17    20    1
@<TRIPOS>SUBSTRUCTURE
       1 MOL1            1 RESIDUE      1      MOL     
@<SCITEGIC>MOL_PROPERTY
VConf Rank
SciTegic.value.IntegerValue
378

@<SCITEGIC>MOL_PROPERTY
Conf_Id
SciTegic.value.IntegerValue
64

@<SCITEGIC>MOL_PROPERTY
Delta U+W
SciTegic.value.DoubleValue
0.544

@<SCITEGIC>MOL_PROPERTY
U+W
SciTegic.value.DoubleValue
-35.732

@<SCITEGIC>MOL_PROPERTY
Grad RMS
SciTegic.value.DoubleValue
0.000000

@<SCITEGIC>MOL_PROPERTY
U
SciTegic.value.DoubleValue
22.800

@<SCITEGIC>MOL_PROPERTY
W
SciTegic.value.DoubleValue
-58.532

@<SCITEGIC>MOL_PROPERTY
W(PB)
SciTegic.value.DoubleValue
-60.437

@<SCITEGIC>MOL_PROPERTY
W(SA)
SciTegic.value.DoubleValue
1.905

@<SCITEGIC>MOL_PROPERTY
Valence
SciTegic.value.DoubleValue
2.662

@<SCITEGIC>MOL_PROPERTY
Coulomb
SciTegic.value.DoubleValue
19.485

@<SCITEGIC>MOL_PROPERTY
VdW
SciTegic.value.DoubleValue
0.653

@<SCITEGIC>MOL_PROPERTY
VdW6
SciTegic.value.DoubleValue
-5.460

@<SCITEGIC>MOL_PROPERTY
VdW12
SciTegic.value.DoubleValue
6.113

@<SCITEGIC>MOL_PROPERTY
Bond
SciTegic.value.DoubleValue
0.174

@<SCITEGIC>MOL_PROPERTY
Angle
SciTegic.value.DoubleValue
1.378

@<SCITEGIC>MOL_PROPERTY
Pdih
SciTegic.value.DoubleValue
1.109

@<SCITEGIC>MOL_PROPERTY
Idih
SciTegic.value.DoubleValue
0.000

@<SCITEGIC>MOL_PROPERTY
Tether
SciTegic.value.DoubleValue
0.000

@<TRIPOS>MOLECULE
guest-s10_confgen4.mol2 : confsearch ligand conformer 379
          20          19           1
SMALL
USER_CHARGES
 
@<TRIPOS>ATOM
       1    N1      18.890291   19.143208   24.599252 N.4        1 MOL1        -0.5937
       2    H1      19.464968   19.986522   24.537279 H          1 MOL1         0.3684
       3    H2      19.060044   18.724501   25.517664 H          1 MOL1         0.3684
       4    H3      17.910076   19.436991   24.576186 H          1 MOL1         0.3684
       5    C1      19.205570   18.178653   23.487918 C.3        1 MOL1         0.1270
       6    H4      18.553537   17.314260   23.648045 H          1 MOL1         0.0960
       7    C2      20.657569   17.683189   23.587618 C.3        1 MOL1        -0.2382
       8    H5      21.368542   18.517420   23.570722 H          1 MOL1         0.1009
       9    H6      20.896370   17.003291   22.760545 H          1 MOL1         0.1009
      10    H7      20.811058   17.133866   24.524451 H          1 MOL1         0.1009
      11    C3      18.857889   18.753904   22.091801 C.3        1 MOL1        -0.1392
      12    H8      18.939364   17.958350   21.339502 H          1 MOL1         0.0998
      13    H9      17.795042   19.028928   22.105943 H          1 MOL1         0.0998
      14    C4      19.675631   19.994755   21.637035 C.3        1 MOL1        -0.1302
      15    H10     19.972911   20.605711   22.499436 H          1 MOL1         0.0998
      16    H11     19.022414   20.635263   21.027905 H          1 MOL1         0.0998
      17    C5      20.915873   19.638884   20.783863 C.3        1 MOL1        -0.2317
      18    H12     21.640869   19.034500   21.339811 H          1 MOL1         0.1009
      19    H13     21.429672   20.551606   20.455358 H          1 MOL1         0.1009
      20    H14     20.626926   19.079143   19.884840 H          1 MOL1         0.1009
@<TRIPOS>BOND
    1     1     2    1
    2     1     3    1
    3     1     4    1
    4     1     5    1
    5     5     6    1
    6     5     7    1
    7     7     8    1
    8     7     9    1
    9     7    10    1
   10     5    11    1
   11    11    12    1
   12    11    13    1
   13    11    14    1
   14    14    15    1
   15    14    16    1
   16    14    17    1
   17    17    18    1
   18    17    19    1
   19    17    20    1
@<TRIPOS>SUBSTRUCTURE
       1 MOL1            1 RESIDUE      1      MOL     
@<SCITEGIC>MOL_PROPERTY
VConf Rank
SciTegic.value.IntegerValue
379

@<SCITEGIC>MOL_PROPERTY
Conf_Id
SciTegic.value.IntegerValue
35

@<SCITEGIC>MOL_PROPERTY
Delta U+W
SciTegic.value.DoubleValue
3.004

@<SCITEGIC>MOL_PROPERTY
U+W
SciTegic.value.DoubleValue
-33.272

@<SCITEGIC>MOL_PROPERTY
Grad RMS
SciTegic.value.DoubleValue
0.000000

@<SCITEGIC>MOL_PROPERTY
U
SciTegic.value.DoubleValue
25.367

@<SCITEGIC>MOL_PROPERTY
W
SciTegic.value.DoubleValue
-58.639

@<SCITEGIC>MOL_PROPERTY
W(PB)
SciTegic.value.DoubleValue
-60.512

@<SCITEGIC>MOL_PROPERTY
W(SA)
SciTegic.value.DoubleValue
1.873

@<SCITEGIC>MOL_PROPERTY
Valence
SciTegic.value.DoubleValue
4.943

@<SCITEGIC>MOL_PROPERTY
Coulomb
SciTegic.value.DoubleValue
19.661

@<SCITEGIC>MOL_PROPERTY
VdW
SciTegic.value.DoubleValue
0.764

@<SCITEGIC>MOL_PROPERTY
VdW6
SciTegic.value.DoubleValue
-5.871

@<SCITEGIC>MOL_PROPERTY
VdW12
SciTegic.value.DoubleValue
6.636

@<SCITEGIC>MOL_PROPERTY
Bond
SciTegic.value.DoubleValue
0.230

@<SCITEGIC>MOL_PROPERTY
Angle
SciTegic.value.DoubleValue
1.857

@<SCITEGIC>MOL_PROPERTY
Pdih
SciTegic.value.DoubleValue
2.855

@<SCITEGIC>MOL_PROPERTY
Idih
SciTegic.value.DoubleValue
0.000

@<SCITEGIC>MOL_PROPERTY
Tether
SciTegic.value.DoubleValue
0.000

@<TRIPOS>MOLECULE
guest-s10_confgen4.mol2 : confsearch ligand conformer 380
          20          19           1
SMALL
USER_CHARGES
 
@<TRIPOS>ATOM
       1    N1      21.570773   18.816382   22.883038 N.4        1 MOL1        -0.5937
       2    H1      22.415974   19.324480   22.609044 H          1 MOL1         0.3684
       3    H2      21.855370   17.866869   23.138010 H          1 MOL1         0.3684
       4    H3      21.200835   19.261379   23.725131 H          1 MOL1         0.3684
       5    C1      20.549688   18.807422   21.778607 C.3        1 MOL1         0.1270
       6    H4      21.032480   18.291784   20.942571 H          1 MOL1         0.0960
       7    C2      20.219788   20.234854   21.307318 C.3        1 MOL1        -0.2382
       8    H5      19.815582   20.847076   22.122239 H          1 MOL1         0.1009
       9    H6      19.484313   20.215477   20.493610 H          1 MOL1         0.1009
      10    H7      21.121033   20.732575   20.929165 H          1 MOL1         0.1009
      11    C3      19.278727   17.993659   22.133233 C.3        1 MOL1        -0.1392
      12    H8      18.749883   17.777990   21.195495 H          1 MOL1         0.0998
      13    H9      19.581845   17.014984   22.527608 H          1 MOL1         0.0998
      14    C4      18.262961   18.647993   23.111325 C.3        1 MOL1        -0.1302
      15    H10     17.407888   17.965960   23.218583 H          1 MOL1         0.0998
      16    H11     17.852200   19.568375   22.674514 H          1 MOL1         0.0998
      17    C5      18.824269   18.946741   24.520085 C.3        1 MOL1        -0.2317
      18    H12     19.318450   18.064478   24.947330 H          1 MOL1         0.1009
      19    H13     18.011372   19.234030   25.199669 H          1 MOL1         0.1009
      20    H14     19.537178   19.779038   24.502494 H          1 MOL1         0.1009
@<TRIPOS>BOND
    1     1     2    1
    2     1     3    1
    3     1     4    1
    4     1     5    1
    5     5     6    1
    6     5     7    1
    7     7     8    1
    8     7     9    1
    9     7    10    1
   10     5    11    1
   11    11    12    1
   12    11    13    1
   13    11    14    1
   14    14    15    1
   15    14    16    1
   16    14    17    1
   17    17    18    1
   18    17    19    1
   19    17    20    1
@<TRIPOS>SUBSTRUCTURE
       1 MOL1            1 RESIDUE      1      MOL     
@<SCITEGIC>MOL_PROPERTY
VConf Rank
SciTegic.value.IntegerValue
380

@<SCITEGIC>MOL_PROPERTY
Conf_Id
SciTegic.value.IntegerValue
55

@<SCITEGIC>MOL_PROPERTY
Delta U+W
SciTegic.value.DoubleValue
2.767

@<SCITEGIC>MOL_PROPERTY
U+W
SciTegic.value.DoubleValue
-33.509

@<SCITEGIC>MOL_PROPERTY
Grad RMS
SciTegic.value.DoubleValue
0.000000

@<SCITEGIC>MOL_PROPERTY
U
SciTegic.value.DoubleValue
24.552

@<SCITEGIC>MOL_PROPERTY
W
SciTegic.value.DoubleValue
-58.061

@<SCITEGIC>MOL_PROPERTY
W(PB)
SciTegic.value.DoubleValue
-59.930

@<SCITEGIC>MOL_PROPERTY
W(SA)
SciTegic.value.DoubleValue
1.869

@<SCITEGIC>MOL_PROPERTY
Valence
SciTegic.value.DoubleValue
3.726

@<SCITEGIC>MOL_PROPERTY
Coulomb
SciTegic.value.DoubleValue
20.219

@<SCITEGIC>MOL_PROPERTY
VdW
SciTegic.value.DoubleValue
0.606

@<SCITEGIC>MOL_PROPERTY
VdW6
SciTegic.value.DoubleValue
-6.395

@<SCITEGIC>MOL_PROPERTY
VdW12
SciTegic.value.DoubleValue
7.001

@<SCITEGIC>MOL_PROPERTY
Bond
SciTegic.value.DoubleValue
0.241

@<SCITEGIC>MOL_PROPERTY
Angle
SciTegic.value.DoubleValue
2.098

@<SCITEGIC>MOL_PROPERTY
Pdih
SciTegic.value.DoubleValue
1.387

@<SCITEGIC>MOL_PROPERTY
Idih
SciTegic.value.DoubleValue
0.000

@<SCITEGIC>MOL_PROPERTY
Tether
SciTegic.value.DoubleValue
0.000

@<TRIPOS>MOLECULE
guest-s10_confgen4.mol2 : confsearch ligand conformer 381
          20          19           1
SMALL
USER_CHARGES
 
@<TRIPOS>ATOM
       1    N1      18.138374   20.087028   22.566073 N.4        1 MOL1        -0.5937
       2    H1      17.532222   19.398048   22.113932 H          1 MOL1         0.3684
       3    H2      17.780344   21.014608   22.323035 H          1 MOL1         0.3684
       4    H3      18.030382   19.975235   23.577221 H          1 MOL1         0.3684
       5    C1      19.572972   19.921905   22.142135 C.3        1 MOL1         0.1270
       6    H4      20.147758   20.688712   22.670827 H          1 MOL1         0.0960
       7    C2      19.721146   20.165872   20.631343 C.3        1 MOL1        -0.2382
       8    H5      19.348962   21.161483   20.360228 H          1 MOL1         0.1009
       9    H6      19.160455   19.421913   20.051736 H          1 MOL1         0.1009
      10    H7      20.774302   20.111416   20.328795 H          1 MOL1         0.1009
      11    C3      20.148719   18.539680   22.521768 C.3        1 MOL1        -0.1392
      12    H8      19.573165   17.749327   22.021772 H          1 MOL1         0.0998
      13    H9      21.176106   18.467166   22.140607 H          1 MOL1         0.0998
      14    C4      20.164560   18.288828   24.048968 C.3        1 MOL1        -0.1302
      15    H10     19.140681   18.300250   24.446418 H          1 MOL1         0.0998
      16    H11     20.710330   19.099721   24.551790 H          1 MOL1         0.0998
      17    C5      20.823154   16.936798   24.397644 C.3        1 MOL1        -0.2317
      18    H12     20.281385   16.102263   23.933646 H          1 MOL1         0.1009
      19    H13     20.824586   16.774779   25.483384 H          1 MOL1         0.1009
      20    H14     21.864403   16.902893   24.051402 H          1 MOL1         0.1009
@<TRIPOS>BOND
    1     1     2    1
    2     1     3    1
    3     1     4    1
    4     1     5    1
    5     5     6    1
    6     5     7    1
    7     7     8    1
    8     7     9    1
    9     7    10    1
   10     5    11    1
   11    11    12    1
   12    11    13    1
   13    11    14    1
   14    14    15    1
   15    14    16    1
   16    14    17    1
   17    17    18    1
   18    17    19    1
   19    17    20    1
@<TRIPOS>SUBSTRUCTURE
       1 MOL1            1 RESIDUE      1      MOL     
@<SCITEGIC>MOL_PROPERTY
VConf Rank
SciTegic.value.IntegerValue
381

@<SCITEGIC>MOL_PROPERTY
Conf_Id
SciTegic.value.IntegerValue
74

@<SCITEGIC>MOL_PROPERTY
Delta U+W
SciTegic.value.DoubleValue
0.000

@<SCITEGIC>MOL_PROPERTY
U+W
SciTegic.value.DoubleValue
-36.276

@<SCITEGIC>MOL_PROPERTY
Grad RMS
SciTegic.value.DoubleValue
0.000000

@<SCITEGIC>MOL_PROPERTY
U
SciTegic.value.DoubleValue
22.080

@<SCITEGIC>MOL_PROPERTY
W
SciTegic.value.DoubleValue
-58.356

@<SCITEGIC>MOL_PROPERTY
W(PB)
SciTegic.value.DoubleValue
-60.289

@<SCITEGIC>MOL_PROPERTY
W(SA)
SciTegic.value.DoubleValue
1.932

@<SCITEGIC>MOL_PROPERTY
Valence
SciTegic.value.DoubleValue
1.885

@<SCITEGIC>MOL_PROPERTY
Coulomb
SciTegic.value.DoubleValue
19.559

@<SCITEGIC>MOL_PROPERTY
VdW
SciTegic.value.DoubleValue
0.637

@<SCITEGIC>MOL_PROPERTY
VdW6
SciTegic.value.DoubleValue
-4.482

@<SCITEGIC>MOL_PROPERTY
VdW12
SciTegic.value.DoubleValue
5.119

@<SCITEGIC>MOL_PROPERTY
Bond
SciTegic.value.DoubleValue
0.136

@<SCITEGIC>MOL_PROPERTY
Angle
SciTegic.value.DoubleValue
0.867

@<SCITEGIC>MOL_PROPERTY
Pdih
SciTegic.value.DoubleValue
0.882

@<SCITEGIC>MOL_PROPERTY
Idih
SciTegic.value.DoubleValue
0.000

@<SCITEGIC>MOL_PROPERTY
Tether
SciTegic.value.DoubleValue
0.000

@<TRIPOS>MOLECULE
guest-s10_confgen4.mol2 : confsearch ligand conformer 382
          20          19           1
SMALL
USER_CHARGES
 
@<TRIPOS>ATOM
       1    N1      18.420381   20.693904   23.657825 N.4        1 MOL1        -0.5937
       2    H1      19.137503   21.290249   24.079683 H          1 MOL1         0.3684
       3    H2      17.983379   20.159449   24.412883 H          1 MOL1         0.3684
       4    H3      17.703664   21.312496   23.268801 H          1 MOL1         0.3684
       5    C1      18.998858   19.790000   22.603884 C.3        1 MOL1         0.1270
       6    H4      19.437496   20.444153   21.843920 H          1 MOL1         0.0960
       7    C2      17.884177   18.957602   21.944036 C.3        1 MOL1        -0.2382
       8    H5      17.076264   19.607963   21.586923 H          1 MOL1         0.1009
       9    H6      17.453649   18.238339   22.651770 H          1 MOL1         0.1009
      10    H7      18.260043   18.403426   21.076375 H          1 MOL1         0.1009
      11    C3      20.123634   18.901771   23.184760 C.3        1 MOL1        -0.1392
      12    H8      20.825962   19.544297   23.732079 H          1 MOL1         0.0998
      13    H9      19.701574   18.205166   23.921276 H          1 MOL1         0.0998
      14    C4      20.913587   18.112013   22.112651 C.3        1 MOL1        -0.1302
      15    H10     21.282854   18.802155   21.341019 H          1 MOL1         0.0998
      16    H11     20.255825   17.391995   21.607850 H          1 MOL1         0.0998
      17    C5      22.105861   17.349724   22.729967 C.3        1 MOL1        -0.2317
      18    H12     22.812179   18.040387   23.208860 H          1 MOL1         0.1009
      19    H13     22.651964   16.792985   21.957373 H          1 MOL1         0.1009
      20    H14     21.765603   16.630164   23.486087 H          1 MOL1         0.1009
@<TRIPOS>BOND
    1     1     2    1
    2     1     3    1
    3     1     4    1
    4     1     5    1
    5     5     6    1
    6     5     7    1
    7     7     8    1
    8     7     9    1
    9     7    10    1
   10     5    11    1
   11    11    12    1
   12    11    13    1
   13    11    14    1
   14    14    15    1
   15    14    16    1
   16    14    17    1
   17    17    18    1
   18    17    19    1
   19    17    20    1
@<TRIPOS>SUBSTRUCTURE
       1 MOL1            1 RESIDUE      1      MOL     
@<SCITEGIC>MOL_PROPERTY
VConf Rank
SciTegic.value.IntegerValue
382

@<SCITEGIC>MOL_PROPERTY
Conf_Id
SciTegic.value.IntegerValue
80

@<SCITEGIC>MOL_PROPERTY
Delta U+W
SciTegic.value.DoubleValue
0.460

@<SCITEGIC>MOL_PROPERTY
U+W
SciTegic.value.DoubleValue
-35.817

@<SCITEGIC>MOL_PROPERTY
Grad RMS
SciTegic.value.DoubleValue
0.000000

@<SCITEGIC>MOL_PROPERTY
U
SciTegic.value.DoubleValue
22.495

@<SCITEGIC>MOL_PROPERTY
W
SciTegic.value.DoubleValue
-58.311

@<SCITEGIC>MOL_PROPERTY
W(PB)
SciTegic.value.DoubleValue
-60.259

@<SCITEGIC>MOL_PROPERTY
W(SA)
SciTegic.value.DoubleValue
1.948

@<SCITEGIC>MOL_PROPERTY
Valence
SciTegic.value.DoubleValue
2.419

@<SCITEGIC>MOL_PROPERTY
Coulomb
SciTegic.value.DoubleValue
19.304

@<SCITEGIC>MOL_PROPERTY
VdW
SciTegic.value.DoubleValue
0.772

@<SCITEGIC>MOL_PROPERTY
VdW6
SciTegic.value.DoubleValue
-4.635

@<SCITEGIC>MOL_PROPERTY
VdW12
SciTegic.value.DoubleValue
5.407

@<SCITEGIC>MOL_PROPERTY
Bond
SciTegic.value.DoubleValue
0.149

@<SCITEGIC>MOL_PROPERTY
Angle
SciTegic.value.DoubleValue
1.142

@<SCITEGIC>MOL_PROPERTY
Pdih
SciTegic.value.DoubleValue
1.129

@<SCITEGIC>MOL_PROPERTY
Idih
SciTegic.value.DoubleValue
0.000

@<SCITEGIC>MOL_PROPERTY
Tether
SciTegic.value.DoubleValue
0.000

@<TRIPOS>MOLECULE
guest-s10_confgen4.mol2 : confsearch ligand conformer 383
          20          19           1
SMALL
USER_CHARGES
 
@<TRIPOS>ATOM
       1    N1      21.864649   18.477943   23.799566 N.4        1 MOL1        -0.5937
       2    H1      22.222012   17.546263   23.571366 H          1 MOL1         0.3684
       3    H2      21.476134   18.434091   24.744988 H          1 MOL1         0.3684
       4    H3      22.668492   19.110806   23.830162 H          1 MOL1         0.3684
       5    C1      20.838057   18.939463   22.801640 C.3        1 MOL1         0.1270
       6    H4      21.342686   18.960511   21.830710 H          1 MOL1         0.0960
       7    C2      20.379127   20.369827   23.132852 C.3        1 MOL1        -0.2382
       8    H5      21.242898   21.030574   23.275875 H          1 MOL1         0.1009
       9    H6      19.776967   20.392648   24.049550 H          1 MOL1         0.1009
      10    H7      19.784942   20.790968   22.313955 H          1 MOL1         0.1009
      11    C3      19.662108   17.936438   22.709874 C.3        1 MOL1        -0.1392
      12    H8      20.089681   16.945319   22.508482 H          1 MOL1         0.0998
      13    H9      19.158616   17.852087   23.682041 H          1 MOL1         0.0998
      14    C4      18.627405   18.239649   21.594035 C.3        1 MOL1        -0.1302
      15    H10     18.285796   17.287144   21.164903 H          1 MOL1         0.0998
      16    H11     19.104390   18.787213   20.769035 H          1 MOL1         0.0998
      17    C5      17.382929   19.005939   22.101099 C.3        1 MOL1        -0.2317
      18    H12     16.856404   18.430714   22.873759 H          1 MOL1         0.1009
      19    H13     16.677456   19.179864   21.278274 H          1 MOL1         0.1009
      20    H14     17.643087   19.981598   22.526480 H          1 MOL1         0.1009
@<TRIPOS>BOND
    1     1     2    1
    2     1     3    1
    3     1     4    1
    4     1     5    1
    5     5     6    1
    6     5     7    1
    7     7     8    1
    8     7     9    1
    9     7    10    1
   10     5    11    1
   11    11    12    1
   12    11    13    1
   13    11    14    1
   14    14    15    1
   15    14    16    1
   16    14    17    1
   17    17    18    1
   18    17    19    1
   19    17    20    1
@<TRIPOS>SUBSTRUCTURE
       1 MOL1            1 RESIDUE      1      MOL     
@<SCITEGIC>MOL_PROPERTY
VConf Rank
SciTegic.value.IntegerValue
383

@<SCITEGIC>MOL_PROPERTY
Conf_Id
SciTegic.value.IntegerValue
52

@<SCITEGIC>MOL_PROPERTY
Delta U+W
SciTegic.value.DoubleValue
2.995

@<SCITEGIC>MOL_PROPERTY
U+W
SciTegic.value.DoubleValue
-33.282

@<SCITEGIC>MOL_PROPERTY
Grad RMS
SciTegic.value.DoubleValue
0.000000

@<SCITEGIC>MOL_PROPERTY
U
SciTegic.value.DoubleValue
25.224

@<SCITEGIC>MOL_PROPERTY
W
SciTegic.value.DoubleValue
-58.506

@<SCITEGIC>MOL_PROPERTY
W(PB)
SciTegic.value.DoubleValue
-60.411

@<SCITEGIC>MOL_PROPERTY
W(SA)
SciTegic.value.DoubleValue
1.905

@<SCITEGIC>MOL_PROPERTY
Valence
SciTegic.value.DoubleValue
4.945

@<SCITEGIC>MOL_PROPERTY
Coulomb
SciTegic.value.DoubleValue
19.467

@<SCITEGIC>MOL_PROPERTY
VdW
SciTegic.value.DoubleValue
0.813

@<SCITEGIC>MOL_PROPERTY
VdW6
SciTegic.value.DoubleValue
-5.458

@<SCITEGIC>MOL_PROPERTY
VdW12
SciTegic.value.DoubleValue
6.270

@<SCITEGIC>MOL_PROPERTY
Bond
SciTegic.value.DoubleValue
0.200

@<SCITEGIC>MOL_PROPERTY
Angle
SciTegic.value.DoubleValue
1.675

@<SCITEGIC>MOL_PROPERTY
Pdih
SciTegic.value.DoubleValue
3.070

@<SCITEGIC>MOL_PROPERTY
Idih
SciTegic.value.DoubleValue
0.000

@<SCITEGIC>MOL_PROPERTY
Tether
SciTegic.value.DoubleValue
0.000

@<TRIPOS>MOLECULE
guest-s10_confgen4.mol2 : confsearch ligand conformer 384
          20          19           1
SMALL
USER_CHARGES
 
@<TRIPOS>ATOM
       1    N1      18.485203   18.002665   22.825181 N.4        1 MOL1        -0.5937
       2    H1      18.757300   17.300623   23.517624 H          1 MOL1         0.3684
       3    H2      17.744588   17.593488   22.249238 H          1 MOL1         0.3684
       4    H3      18.081043   18.792498   23.332924 H          1 MOL1         0.3684
       5    C1      19.660091   18.433712   21.990265 C.3        1 MOL1         0.1270
       6    H4      19.283981   19.143148   21.246640 H          1 MOL1         0.0960
       7    C2      20.243663   17.220941   21.245691 C.3        1 MOL1        -0.2382
       8    H5      20.650941   16.482403   21.947506 H          1 MOL1         0.1009
       9    H6      21.049340   17.528789   20.567634 H          1 MOL1         0.1009
      10    H7      19.472672   16.728513   20.640362 H          1 MOL1         0.1009
      11    C3      20.759983   19.137352   22.820544 C.3        1 MOL1        -0.1392
      12    H8      20.976590   18.554426   23.725449 H          1 MOL1         0.0998
      13    H9      21.690284   19.141360   22.236927 H          1 MOL1         0.0998
      14    C4      20.449508   20.610330   23.195441 C.3        1 MOL1        -0.1302
      15    H10     20.280473   21.197200   22.281633 H          1 MOL1         0.0998
      16    H11     21.344270   21.038820   23.668541 H          1 MOL1         0.0998
      17    C5      19.253989   20.797522   24.157158 C.3        1 MOL1        -0.2317
      18    H12     19.225720   21.829795   24.529850 H          1 MOL1         0.1009
      19    H13     19.333091   20.132643   25.027213 H          1 MOL1         0.1009
      20    H14     18.297662   20.614042   23.653954 H          1 MOL1         0.1009
@<TRIPOS>BOND
    1     1     2    1
    2     1     3    1
    3     1     4    1
    4     1     5    1
    5     5     6    1
    6     5     7    1
    7     7     8    1
    8     7     9    1
    9     7    10    1
   10     5    11    1
   11    11    12    1
   12    11    13    1
   13    11    14    1
   14    14    15    1
   15    14    16    1
   16    14    17    1
   17    17    18    1
   18    17    19    1
   19    17    20    1
@<TRIPOS>SUBSTRUCTURE
       1 MOL1            1 RESIDUE      1      MOL     
@<SCITEGIC>MOL_PROPERTY
VConf Rank
SciTegic.value.IntegerValue
384

@<SCITEGIC>MOL_PROPERTY
Conf_Id
SciTegic.value.IntegerValue
54

@<SCITEGIC>MOL_PROPERTY
Delta U+W
SciTegic.value.DoubleValue
2.752

@<SCITEGIC>MOL_PROPERTY
U+W
SciTegic.value.DoubleValue
-33.525

@<SCITEGIC>MOL_PROPERTY
Grad RMS
SciTegic.value.DoubleValue
0.000000

@<SCITEGIC>MOL_PROPERTY
U
SciTegic.value.DoubleValue
24.337

@<SCITEGIC>MOL_PROPERTY
W
SciTegic.value.DoubleValue
-57.862

@<SCITEGIC>MOL_PROPERTY
W(PB)
SciTegic.value.DoubleValue
-59.764

@<SCITEGIC>MOL_PROPERTY
W(SA)
SciTegic.value.DoubleValue
1.901

@<SCITEGIC>MOL_PROPERTY
Valence
SciTegic.value.DoubleValue
3.593

@<SCITEGIC>MOL_PROPERTY
Coulomb
SciTegic.value.DoubleValue
20.067

@<SCITEGIC>MOL_PROPERTY
VdW
SciTegic.value.DoubleValue
0.677

@<SCITEGIC>MOL_PROPERTY
VdW6
SciTegic.value.DoubleValue
-5.466

@<SCITEGIC>MOL_PROPERTY
VdW12
SciTegic.value.DoubleValue
6.144

@<SCITEGIC>MOL_PROPERTY
Bond
SciTegic.value.DoubleValue
0.191

@<SCITEGIC>MOL_PROPERTY
Angle
SciTegic.value.DoubleValue
1.557

@<SCITEGIC>MOL_PROPERTY
Pdih
SciTegic.value.DoubleValue
1.845

@<SCITEGIC>MOL_PROPERTY
Idih
SciTegic.value.DoubleValue
0.000

@<SCITEGIC>MOL_PROPERTY
Tether
SciTegic.value.DoubleValue
0.000

@<TRIPOS>MOLECULE
guest-s10_confgen4.mol2 : confsearch ligand conformer 385
          20          19           1
SMALL
USER_CHARGES
 
@<TRIPOS>ATOM
       1    N1      20.097178   20.013588   20.955790 N.4        1 MOL1        -0.5937
       2    H1      19.645896   20.448826   20.146737 H          1 MOL1         0.3684
       3    H2      21.026894   19.707283   20.656595 H          1 MOL1         0.3684
       4    H3      20.225932   20.741769   21.661923 H          1 MOL1         0.3684
       5    C1      19.282378   18.867102   21.490164 C.3        1 MOL1         0.1270
       6    H4      19.185226   18.154432   20.665127 H          1 MOL1         0.0960
       7    C2      17.864911   19.327737   21.874151 C.3        1 MOL1        -0.2382
       8    H5      17.274760   18.489559   22.264857 H          1 MOL1         0.1009
       9    H6      17.339218   19.722987   20.996364 H          1 MOL1         0.1009
      10    H7      17.886385   20.117257   22.634572 H          1 MOL1         0.1009
      11    C3      19.988929   18.128524   22.652206 C.3        1 MOL1        -0.1392
      12    H8      19.386524   17.254409   22.932861 H          1 MOL1         0.0998
      13    H9      20.942505   17.730284   22.281389 H          1 MOL1         0.0998
      14    C4      20.254333   18.992808   23.911935 C.3        1 MOL1        -0.1302
      15    H10     19.306373   19.358547   24.328612 H          1 MOL1         0.0998
      16    H11     20.848594   19.877484   23.646675 H          1 MOL1         0.0998
      17    C5      21.001897   18.192891   25.000333 C.3        1 MOL1        -0.2317
      18    H12     21.180605   18.816493   25.885912 H          1 MOL1         0.1009
      19    H13     21.975565   17.841737   24.634432 H          1 MOL1         0.1009
      20    H14     20.419972   17.317586   25.317236 H          1 MOL1         0.1009
@<TRIPOS>BOND
    1     1     2    1
    2     1     3    1
    3     1     4    1
    4     1     5    1
    5     5     6    1
    6     5     7    1
    7     7     8    1
    8     7     9    1
    9     7    10    1
   10     5    11    1
   11    11    12    1
   12    11    13    1
   13    11    14    1
   14    14    15    1
   15    14    16    1
   16    14    17    1
   17    17    18    1
   18    17    19    1
   19    17    20    1
@<TRIPOS>SUBSTRUCTURE
       1 MOL1            1 RESIDUE      1      MOL     
@<SCITEGIC>MOL_PROPERTY
VConf Rank
SciTegic.value.IntegerValue
385

@<SCITEGIC>MOL_PROPERTY
Conf_Id
SciTegic.value.IntegerValue
63

@<SCITEGIC>MOL_PROPERTY
Delta U+W
SciTegic.value.DoubleValue
0.420

@<SCITEGIC>MOL_PROPERTY
U+W
SciTegic.value.DoubleValue
-35.856

@<SCITEGIC>MOL_PROPERTY
Grad RMS
SciTegic.value.DoubleValue
0.000000

@<SCITEGIC>MOL_PROPERTY
U
SciTegic.value.DoubleValue
22.625

@<SCITEGIC>MOL_PROPERTY
W
SciTegic.value.DoubleValue
-58.481

@<SCITEGIC>MOL_PROPERTY
W(PB)
SciTegic.value.DoubleValue
-60.400

@<SCITEGIC>MOL_PROPERTY
W(SA)
SciTegic.value.DoubleValue
1.919

@<SCITEGIC>MOL_PROPERTY
Valence
SciTegic.value.DoubleValue
2.404

@<SCITEGIC>MOL_PROPERTY
Coulomb
SciTegic.value.DoubleValue
19.464

@<SCITEGIC>MOL_PROPERTY
VdW
SciTegic.value.DoubleValue
0.757

@<SCITEGIC>MOL_PROPERTY
VdW6
SciTegic.value.DoubleValue
-5.074

@<SCITEGIC>MOL_PROPERTY
VdW12
SciTegic.value.DoubleValue
5.830

@<SCITEGIC>MOL_PROPERTY
Bond
SciTegic.value.DoubleValue
0.172

@<SCITEGIC>MOL_PROPERTY
Angle
SciTegic.value.DoubleValue
1.207

@<SCITEGIC>MOL_PROPERTY
Pdih
SciTegic.value.DoubleValue
1.025

@<SCITEGIC>MOL_PROPERTY
Idih
SciTegic.value.DoubleValue
0.000

@<SCITEGIC>MOL_PROPERTY
Tether
SciTegic.value.DoubleValue
0.000

@<TRIPOS>MOLECULE
guest-s10_confgen4.mol2 : confsearch ligand conformer 386
          20          19           1
SMALL
USER_CHARGES
 
@<TRIPOS>ATOM
       1    N1      18.638166   17.654540   22.221062 N.4        1 MOL1        -0.5937
       2    H1      19.457911   17.344998   21.692785 H          1 MOL1         0.3684
       3    H2      17.948768   17.996908   21.547315 H          1 MOL1         0.3684
       4    H3      18.238040   16.829495   22.675751 H          1 MOL1         0.3684
       5    C1      19.002644   18.715358   23.224057 C.3        1 MOL1         0.1270
       6    H4      19.735691   18.268537   23.902380 H          1 MOL1         0.0960
       7    C2      17.773572   19.125741   24.051390 C.3        1 MOL1        -0.2382
       8    H5      17.336048   18.255018   24.555029 H          1 MOL1         0.1009
       9    H6      17.000572   19.578015   23.417614 H          1 MOL1         0.1009
      10    H7      18.049660   19.853071   24.824946 H          1 MOL1         0.1009
      11    C3      19.646083   19.956304   22.564496 C.3        1 MOL1        -0.1392
      12    H8      18.918921   20.429151   21.891084 H          1 MOL1         0.0998
      13    H9      19.870807   20.698132   23.342390 H          1 MOL1         0.0998
      14    C4      20.945551   19.654378   21.775748 C.3        1 MOL1        -0.1302
      15    H10     21.321665   20.592348   21.343714 H          1 MOL1         0.0998
      16    H11     20.728725   18.995734   20.923844 H          1 MOL1         0.0998
      17    C5      22.053911   19.026707   22.651495 C.3        1 MOL1        -0.2317
      18    H12     22.288311   19.668278   23.510926 H          1 MOL1         0.1009
      19    H13     22.975907   18.896671   22.070046 H          1 MOL1         0.1009
      20    H14     21.760403   18.039750   23.030528 H          1 MOL1         0.1009
@<TRIPOS>BOND
    1     1     2    1
    2     1     3    1
    3     1     4    1
    4     1     5    1
    5     5     6    1
    6     5     7    1
    7     7     8    1
    8     7     9    1
    9     7    10    1
   10     5    11    1
   11    11    12    1
   12    11    13    1
   13    11    14    1
   14    14    15    1
   15    14    16    1
   16    14    17    1
   17    17    18    1
   18    17    19    1
   19    17    20    1
@<TRIPOS>SUBSTRUCTURE
       1 MOL1            1 RESIDUE      1      MOL     
@<SCITEGIC>MOL_PROPERTY
VConf Rank
SciTegic.value.IntegerValue
386

@<SCITEGIC>MOL_PROPERTY
Conf_Id
SciTegic.value.IntegerValue
50

@<SCITEGIC>MOL_PROPERTY
Delta U+W
SciTegic.value.DoubleValue
0.466

@<SCITEGIC>MOL_PROPERTY
U+W
SciTegic.value.DoubleValue
-35.811

@<SCITEGIC>MOL_PROPERTY
Grad RMS
SciTegic.value.DoubleValue
0.000000

@<SCITEGIC>MOL_PROPERTY
U
SciTegic.value.DoubleValue
22.369

@<SCITEGIC>MOL_PROPERTY
W
SciTegic.value.DoubleValue
-58.180

@<SCITEGIC>MOL_PROPERTY
W(PB)
SciTegic.value.DoubleValue
-60.103

@<SCITEGIC>MOL_PROPERTY
W(SA)
SciTegic.value.DoubleValue
1.923

@<SCITEGIC>MOL_PROPERTY
Valence
SciTegic.value.DoubleValue
2.168

@<SCITEGIC>MOL_PROPERTY
Coulomb
SciTegic.value.DoubleValue
19.636

@<SCITEGIC>MOL_PROPERTY
VdW
SciTegic.value.DoubleValue
0.566

@<SCITEGIC>MOL_PROPERTY
VdW6
SciTegic.value.DoubleValue
-5.263

@<SCITEGIC>MOL_PROPERTY
VdW12
SciTegic.value.DoubleValue
5.829

@<SCITEGIC>MOL_PROPERTY
Bond
SciTegic.value.DoubleValue
0.162

@<SCITEGIC>MOL_PROPERTY
Angle
SciTegic.value.DoubleValue
1.066

@<SCITEGIC>MOL_PROPERTY
Pdih
SciTegic.value.DoubleValue
0.939

@<SCITEGIC>MOL_PROPERTY
Idih
SciTegic.value.DoubleValue
0.000

@<SCITEGIC>MOL_PROPERTY
Tether
SciTegic.value.DoubleValue
0.000

@<TRIPOS>MOLECULE
guest-s10_confgen4.mol2 : confsearch ligand conformer 387
          20          19           1
SMALL
USER_CHARGES
 
@<TRIPOS>ATOM
       1    N1      21.576585   18.028093   21.739761 N.4        1 MOL1        -0.5937
       2    H1      21.271857   17.794183   20.790855 H          1 MOL1         0.3684
       3    H2      21.793339   17.149948   22.218041 H          1 MOL1         0.3684
       4    H3      22.451534   18.552589   21.655476 H          1 MOL1         0.3684
       5    C1      20.530610   18.817193   22.479922 C.3        1 MOL1         0.1270
       6    H4      20.365583   19.727658   21.895473 H          1 MOL1         0.0960
       7    C2      21.056485   19.212832   23.872362 C.3        1 MOL1        -0.2382
       8    H5      21.280689   18.325249   24.477007 H          1 MOL1         0.1009
       9    H6      20.327185   19.818131   24.421473 H          1 MOL1         0.1009
      10    H7      21.976416   19.803672   23.784243 H          1 MOL1         0.1009
      11    C3      19.186764   18.052991   22.571060 C.3        1 MOL1        -0.1392
      12    H8      19.181738   17.244873   21.827694 H          1 MOL1         0.0998
      13    H9      19.092594   17.557507   23.546580 H          1 MOL1         0.0998
      14    C4      17.942785   18.936590   22.299859 C.3        1 MOL1        -0.1302
      15    H10     17.049303   18.296633   22.308641 H          1 MOL1         0.0998
      16    H11     18.005694   19.358514   21.286892 H          1 MOL1         0.0998
      17    C5      17.744923   20.079871   23.319661 C.3        1 MOL1        -0.2317
      18    H12     17.720751   19.694624   24.347294 H          1 MOL1         0.1009
      19    H13     16.795335   20.598568   23.134522 H          1 MOL1         0.1009
      20    H14     18.545509   20.826325   23.245513 H          1 MOL1         0.1009
@<TRIPOS>BOND
    1     1     2    1
    2     1     3    1
    3     1     4    1
    4     1     5    1
    5     5     6    1
    6     5     7    1
    7     7     8    1
    8     7     9    1
    9     7    10    1
   10     5    11    1
   11    11    12    1
   12    11    13    1
   13    11    14    1
   14    14    15    1
   15    14    16    1
   16    14    17    1
   17    17    18    1
   18    17    19    1
   19    17    20    1
@<TRIPOS>SUBSTRUCTURE
       1 MOL1            1 RESIDUE      1      MOL     
@<SCITEGIC>MOL_PROPERTY
VConf Rank
SciTegic.value.IntegerValue
387

@<SCITEGIC>MOL_PROPERTY
Conf_Id
SciTegic.value.IntegerValue
3

@<SCITEGIC>MOL_PROPERTY
Delta U+W
SciTegic.value.DoubleValue
3.093

@<SCITEGIC>MOL_PROPERTY
U+W
SciTegic.value.DoubleValue
-33.184

@<SCITEGIC>MOL_PROPERTY
Grad RMS
SciTegic.value.DoubleValue
0.000000

@<SCITEGIC>MOL_PROPERTY
U
SciTegic.value.DoubleValue
25.256

@<SCITEGIC>MOL_PROPERTY
W
SciTegic.value.DoubleValue
-58.439

@<SCITEGIC>MOL_PROPERTY
W(PB)
SciTegic.value.DoubleValue
-60.337

@<SCITEGIC>MOL_PROPERTY
W(SA)
SciTegic.value.DoubleValue
1.898

@<SCITEGIC>MOL_PROPERTY
Valence
SciTegic.value.DoubleValue
4.963

@<SCITEGIC>MOL_PROPERTY
Coulomb
SciTegic.value.DoubleValue
19.511

@<SCITEGIC>MOL_PROPERTY
VdW
SciTegic.value.DoubleValue
0.782

@<SCITEGIC>MOL_PROPERTY
VdW6
SciTegic.value.DoubleValue
-5.429

@<SCITEGIC>MOL_PROPERTY
VdW12
SciTegic.value.DoubleValue
6.211

@<SCITEGIC>MOL_PROPERTY
Bond
SciTegic.value.DoubleValue
0.174

@<SCITEGIC>MOL_PROPERTY
Angle
SciTegic.value.DoubleValue
1.377

@<SCITEGIC>MOL_PROPERTY
Pdih
SciTegic.value.DoubleValue
3.412

@<SCITEGIC>MOL_PROPERTY
Idih
SciTegic.value.DoubleValue
0.000

@<SCITEGIC>MOL_PROPERTY
Tether
SciTegic.value.DoubleValue
0.000

@<TRIPOS>MOLECULE
guest-s10_confgen4.mol2 : confsearch ligand conformer 388
          20          19           1
SMALL
USER_CHARGES
 
@<TRIPOS>ATOM
       1    N1      21.328320   17.380342   22.977323 N.4        1 MOL1        -0.5937
       2    H1      21.494634   16.858126   23.841769 H          1 MOL1         0.3684
       3    H2      22.180724   17.909871   22.775245 H          1 MOL1         0.3684
       4    H3      21.208047   16.695441   22.226904 H          1 MOL1         0.3684
       5    C1      20.130476   18.281730   23.100001 C.3        1 MOL1         0.1270
       6    H4      20.347844   18.970206   23.922101 H          1 MOL1         0.0960
       7    C2      18.879931   17.463204   23.469126 C.3        1 MOL1        -0.2382
       8    H5      18.030420   18.116718   23.698876 H          1 MOL1         0.1009
       9    H6      19.067703   16.850353   24.359233 H          1 MOL1         0.1009
      10    H7      18.587505   16.793897   22.650589 H          1 MOL1         0.1009
      11    C3      19.921247   19.113426   21.812005 C.3        1 MOL1        -0.1392
      12    H8      20.867088   19.608896   21.556235 H          1 MOL1         0.0998
      13    H9      19.695700   18.438132   20.976036 H          1 MOL1         0.0998
      14    C4      18.813720   20.194292   21.902647 C.3        1 MOL1        -0.1302
      15    H10     17.829420   19.722778   22.025534 H          1 MOL1         0.0998
      16    H11     18.770154   20.734382   20.946486 H          1 MOL1         0.0998
      17    C5      19.051706   21.211577   23.041789 C.3        1 MOL1        -0.2317
      18    H12     20.032427   21.694575   22.941507 H          1 MOL1         0.1009
      19    H13     19.004263   20.731701   24.027453 H          1 MOL1         0.1009
      20    H14     18.286979   21.998819   23.020343 H          1 MOL1         0.1009
@<TRIPOS>BOND
    1     1     2    1
    2     1     3    1
    3     1     4    1
    4     1     5    1
    5     5     6    1
    6     5     7    1
    7     7     8    1
    8     7     9    1
    9     7    10    1
   10     5    11    1
   11    11    12    1
   12    11    13    1
   13    11    14    1
   14    14    15    1
   15    14    16    1
   16    14    17    1
   17    17    18    1
   18    17    19    1
   19    17    20    1
@<TRIPOS>SUBSTRUCTURE
       1 MOL1            1 RESIDUE      1      MOL     
@<SCITEGIC>MOL_PROPERTY
VConf Rank
SciTegic.value.IntegerValue
388

@<SCITEGIC>MOL_PROPERTY
Conf_Id
SciTegic.value.IntegerValue
64

@<SCITEGIC>MOL_PROPERTY
Delta U+W
SciTegic.value.DoubleValue
0.544

@<SCITEGIC>MOL_PROPERTY
U+W
SciTegic.value.DoubleValue
-35.732

@<SCITEGIC>MOL_PROPERTY
Grad RMS
SciTegic.value.DoubleValue
0.000000

@<SCITEGIC>MOL_PROPERTY
U
SciTegic.value.DoubleValue
22.800

@<SCITEGIC>MOL_PROPERTY
W
SciTegic.value.DoubleValue
-58.532

@<SCITEGIC>MOL_PROPERTY
W(PB)
SciTegic.value.DoubleValue
-60.437

@<SCITEGIC>MOL_PROPERTY
W(SA)
SciTegic.value.DoubleValue
1.905

@<SCITEGIC>MOL_PROPERTY
Valence
SciTegic.value.DoubleValue
2.662

@<SCITEGIC>MOL_PROPERTY
Coulomb
SciTegic.value.DoubleValue
19.485

@<SCITEGIC>MOL_PROPERTY
VdW
SciTegic.value.DoubleValue
0.653

@<SCITEGIC>MOL_PROPERTY
VdW6
SciTegic.value.DoubleValue
-5.460

@<SCITEGIC>MOL_PROPERTY
VdW12
SciTegic.value.DoubleValue
6.113

@<SCITEGIC>MOL_PROPERTY
Bond
SciTegic.value.DoubleValue
0.174

@<SCITEGIC>MOL_PROPERTY
Angle
SciTegic.value.DoubleValue
1.378

@<SCITEGIC>MOL_PROPERTY
Pdih
SciTegic.value.DoubleValue
1.109

@<SCITEGIC>MOL_PROPERTY
Idih
SciTegic.value.DoubleValue
0.000

@<SCITEGIC>MOL_PROPERTY
Tether
SciTegic.value.DoubleValue
0.000

@<TRIPOS>MOLECULE
guest-s10_confgen4.mol2 : confsearch ligand conformer 389
          20          19           1
SMALL
USER_CHARGES
 
@<TRIPOS>ATOM
       1    N1      18.913475   17.467405   23.960547 N.4        1 MOL1        -0.5937
       2    H1      18.927808   18.290644   24.566637 H          1 MOL1         0.3684
       3    H2      19.284975   16.682504   24.502332 H          1 MOL1         0.3684
       4    H3      17.933819   17.255936   23.752664 H          1 MOL1         0.3684
       5    C1      19.709688   17.694441   22.703832 C.3        1 MOL1         0.1270
       6    H4      19.642344   16.762101   22.134472 H          1 MOL1         0.0960
       7    C2      21.194033   17.927076   23.029908 C.3        1 MOL1        -0.2382
       8    H5      21.327017   18.773257   23.714014 H          1 MOL1         0.1009
       9    H6      21.769137   18.122117   22.116370 H          1 MOL1         0.1009
      10    H7      21.623983   17.039781   23.510346 H          1 MOL1         0.1009
      11    C3      19.103965   18.810443   21.815813 C.3        1 MOL1        -0.1392
      12    H8      19.611537   18.816924   20.842250 H          1 MOL1         0.0998
      13    H9      18.065684   18.528170   21.597233 H          1 MOL1         0.0998
      14    C4      19.102241   20.242889   22.418574 C.3        1 MOL1        -0.1302
      15    H10     19.012296   20.207741   23.512217 H          1 MOL1         0.0998
      16    H11     18.204781   20.767364   22.061540 H          1 MOL1         0.0998
      17    C5      20.334025   21.085844   22.012519 C.3        1 MOL1        -0.2317
      18    H12     21.271497   20.648945   22.373413 H          1 MOL1         0.1009
      19    H13     20.259595   22.098561   22.429449 H          1 MOL1         0.1009
      20    H14     20.402716   21.180800   20.921049 H          1 MOL1         0.1009
@<TRIPOS>BOND
    1     1     2    1
    2     1     3    1
    3     1     4    1
    4     1     5    1
    5     5     6    1
    6     5     7    1
    7     7     8    1
    8     7     9    1
    9     7    10    1
   10     5    11    1
   11    11    12    1
   12    11    13    1
   13    11    14    1
   14    14    15    1
   15    14    16    1
   16    14    17    1
   17    17    18    1
   18    17    19    1
   19    17    20    1
@<TRIPOS>SUBSTRUCTURE
       1 MOL1            1 RESIDUE      1      MOL     
@<SCITEGIC>MOL_PROPERTY
VConf Rank
SciTegic.value.IntegerValue
389

@<SCITEGIC>MOL_PROPERTY
Conf_Id
SciTegic.value.IntegerValue
35

@<SCITEGIC>MOL_PROPERTY
Delta U+W
SciTegic.value.DoubleValue
3.004

@<SCITEGIC>MOL_PROPERTY
U+W
SciTegic.value.DoubleValue
-33.272

@<SCITEGIC>MOL_PROPERTY
Grad RMS
SciTegic.value.DoubleValue
0.000000

@<SCITEGIC>MOL_PROPERTY
U
SciTegic.value.DoubleValue
25.367

@<SCITEGIC>MOL_PROPERTY
W
SciTegic.value.DoubleValue
-58.639

@<SCITEGIC>MOL_PROPERTY
W(PB)
SciTegic.value.DoubleValue
-60.512

@<SCITEGIC>MOL_PROPERTY
W(SA)
SciTegic.value.DoubleValue
1.873

@<SCITEGIC>MOL_PROPERTY
Valence
SciTegic.value.DoubleValue
4.943

@<SCITEGIC>MOL_PROPERTY
Coulomb
SciTegic.value.DoubleValue
19.661

@<SCITEGIC>MOL_PROPERTY
VdW
SciTegic.value.DoubleValue
0.764

@<SCITEGIC>MOL_PROPERTY
VdW6
SciTegic.value.DoubleValue
-5.871

@<SCITEGIC>MOL_PROPERTY
VdW12
SciTegic.value.DoubleValue
6.636

@<SCITEGIC>MOL_PROPERTY
Bond
SciTegic.value.DoubleValue
0.230

@<SCITEGIC>MOL_PROPERTY
Angle
SciTegic.value.DoubleValue
1.857

@<SCITEGIC>MOL_PROPERTY
Pdih
SciTegic.value.DoubleValue
2.855

@<SCITEGIC>MOL_PROPERTY
Idih
SciTegic.value.DoubleValue
0.000

@<SCITEGIC>MOL_PROPERTY
Tether
SciTegic.value.DoubleValue
0.000

@<TRIPOS>MOLECULE
guest-s10_confgen4.mol2 : confsearch ligand conformer 390
          20          19           1
SMALL
USER_CHARGES
 
@<TRIPOS>ATOM
       1    N1      19.491256   18.982713   20.943239 N.4        1 MOL1        -0.5937
       2    H1      19.717651   19.561011   20.129655 H          1 MOL1         0.3684
       3    H2      18.698685   18.389226   20.684038 H          1 MOL1         0.3684
       4    H3      20.288802   18.368589   21.118650 H          1 MOL1         0.3684
       5    C1      19.177259   19.825178   22.149109 C.3        1 MOL1         0.1270
       6    H4      18.302466   20.419352   21.866938 H          1 MOL1         0.0960
       7    C2      20.318941   20.809561   22.459050 C.3        1 MOL1        -0.2382
       8    H5      21.261060   20.286296   22.661289 H          1 MOL1         0.1009
       9    H6      20.073689   21.427137   23.331902 H          1 MOL1         0.1009
      10    H7      20.485505   21.484285   21.610538 H          1 MOL1         0.1009
      11    C3      18.768561   18.985672   23.386650 C.3        1 MOL1        -0.1392
      12    H8      18.266339   19.658963   24.093754 H          1 MOL1         0.0998
      13    H9      18.003968   18.257691   23.085554 H          1 MOL1         0.0998
      14    C4      19.902060   18.250046   24.155174 C.3        1 MOL1        -0.1302
      15    H10     19.452151   17.745272   25.021551 H          1 MOL1         0.0998
      16    H11     20.612039   18.976242   24.573743 H          1 MOL1         0.0998
      17    C5      20.666869   17.195598   23.323230 C.3        1 MOL1        -0.2317
      18    H12     19.975520   16.505728   22.821975 H          1 MOL1         0.1009
      19    H13     21.318726   16.598332   23.974018 H          1 MOL1         0.1009
      20    H14     21.309064   17.664654   22.569015 H          1 MOL1         0.1009
@<TRIPOS>BOND
    1     1     2    1
    2     1     3    1
    3     1     4    1
    4     1     5    1
    5     5     6    1
    6     5     7    1
    7     7     8    1
    8     7     9    1
    9     7    10    1
   10     5    11    1
   11    11    12    1
   12    11    13    1
   13    11    14    1
   14    14    15    1
   15    14    16    1
   16    14    17    1
   17    17    18    1
   18    17    19    1
   19    17    20    1
@<TRIPOS>SUBSTRUCTURE
       1 MOL1            1 RESIDUE      1      MOL     
@<SCITEGIC>MOL_PROPERTY
VConf Rank
SciTegic.value.IntegerValue
390

@<SCITEGIC>MOL_PROPERTY
Conf_Id
SciTegic.value.IntegerValue
55

@<SCITEGIC>MOL_PROPERTY
Delta U+W
SciTegic.value.DoubleValue
2.767

@<SCITEGIC>MOL_PROPERTY
U+W
SciTegic.value.DoubleValue
-33.509

@<SCITEGIC>MOL_PROPERTY
Grad RMS
SciTegic.value.DoubleValue
0.000000

@<SCITEGIC>MOL_PROPERTY
U
SciTegic.value.DoubleValue
24.552

@<SCITEGIC>MOL_PROPERTY
W
SciTegic.value.DoubleValue
-58.061

@<SCITEGIC>MOL_PROPERTY
W(PB)
SciTegic.value.DoubleValue
-59.930

@<SCITEGIC>MOL_PROPERTY
W(SA)
SciTegic.value.DoubleValue
1.869

@<SCITEGIC>MOL_PROPERTY
Valence
SciTegic.value.DoubleValue
3.726

@<SCITEGIC>MOL_PROPERTY
Coulomb
SciTegic.value.DoubleValue
20.219

@<SCITEGIC>MOL_PROPERTY
VdW
SciTegic.value.DoubleValue
0.606

@<SCITEGIC>MOL_PROPERTY
VdW6
SciTegic.value.DoubleValue
-6.395

@<SCITEGIC>MOL_PROPERTY
VdW12
SciTegic.value.DoubleValue
7.001

@<SCITEGIC>MOL_PROPERTY
Bond
SciTegic.value.DoubleValue
0.241

@<SCITEGIC>MOL_PROPERTY
Angle
SciTegic.value.DoubleValue
2.098

@<SCITEGIC>MOL_PROPERTY
Pdih
SciTegic.value.DoubleValue
1.387

@<SCITEGIC>MOL_PROPERTY
Idih
SciTegic.value.DoubleValue
0.000

@<SCITEGIC>MOL_PROPERTY
Tether
SciTegic.value.DoubleValue
0.000

@<TRIPOS>MOLECULE
guest-s10_confgen4.mol2 : confsearch ligand conformer 391
          20          19           1
SMALL
USER_CHARGES
 
@<TRIPOS>ATOM
       1    N1      18.446727   19.441266   24.119497 N.4        1 MOL1        -0.5937
       2    H1      17.598350   19.176505   23.612837 H          1 MOL1         0.3684
       3    H2      18.180194   20.143193   24.815137 H          1 MOL1         0.3684
       4    H3      18.770559   18.615811   24.629731 H          1 MOL1         0.3684
       5    C1      19.505470   19.964625   23.186642 C.3        1 MOL1         0.1270
       6    H4      20.372324   20.218229   23.804814 H          1 MOL1         0.0960
       7    C2      19.022874   21.245440   22.486226 C.3        1 MOL1        -0.2382
       8    H5      18.743068   22.008981   23.222418 H          1 MOL1         0.1009
       9    H6      18.150271   21.046670   21.851523 H          1 MOL1         0.1009
      10    H7      19.815082   21.667210   21.855231 H          1 MOL1         0.1009
      11    C3      19.947606   18.915701   22.142408 C.3        1 MOL1        -0.1392
      12    H8      19.088554   18.625827   21.522796 H          1 MOL1         0.0998
      13    H9      20.679895   19.376316   21.465907 H          1 MOL1         0.0998
      14    C4      20.581379   17.655912   22.780203 C.3        1 MOL1        -0.1302
      15    H10     19.848995   17.144292   23.419175 H          1 MOL1         0.0998
      16    H11     21.418734   17.950446   23.428530 H          1 MOL1         0.0998
      17    C5      21.088523   16.667937   21.707815 C.3        1 MOL1        -0.2317
      18    H12     20.267565   16.330868   21.061542 H          1 MOL1         0.1009
      19    H13     21.533132   15.780778   22.177237 H          1 MOL1         0.1009
      20    H14     21.854704   17.131917   21.073053 H          1 MOL1         0.1009
@<TRIPOS>BOND
    1     1     2    1
    2     1     3    1
    3     1     4    1
    4     1     5    1
    5     5     6    1
    6     5     7    1
    7     7     8    1
    8     7     9    1
    9     7    10    1
   10     5    11    1
   11    11    12    1
   12    11    13    1
   13    11    14    1
   14    14    15    1
   15    14    16    1
   16    14    17    1
   17    17    18    1
   18    17    19    1
   19    17    20    1
@<TRIPOS>SUBSTRUCTURE
       1 MOL1            1 RESIDUE      1      MOL     
@<SCITEGIC>MOL_PROPERTY
VConf Rank
SciTegic.value.IntegerValue
391

@<SCITEGIC>MOL_PROPERTY
Conf_Id
SciTegic.value.IntegerValue
74

@<SCITEGIC>MOL_PROPERTY
Delta U+W
SciTegic.value.DoubleValue
0.000

@<SCITEGIC>MOL_PROPERTY
U+W
SciTegic.value.DoubleValue
-36.276

@<SCITEGIC>MOL_PROPERTY
Grad RMS
SciTegic.value.DoubleValue
0.000000

@<SCITEGIC>MOL_PROPERTY
U
SciTegic.value.DoubleValue
22.080

@<SCITEGIC>MOL_PROPERTY
W
SciTegic.value.DoubleValue
-58.356

@<SCITEGIC>MOL_PROPERTY
W(PB)
SciTegic.value.DoubleValue
-60.289

@<SCITEGIC>MOL_PROPERTY
W(SA)
SciTegic.value.DoubleValue
1.932

@<SCITEGIC>MOL_PROPERTY
Valence
SciTegic.value.DoubleValue
1.885

@<SCITEGIC>MOL_PROPERTY
Coulomb
SciTegic.value.DoubleValue
19.559

@<SCITEGIC>MOL_PROPERTY
VdW
SciTegic.value.DoubleValue
0.637

@<SCITEGIC>MOL_PROPERTY
VdW6
SciTegic.value.DoubleValue
-4.482

@<SCITEGIC>MOL_PROPERTY
VdW12
SciTegic.value.DoubleValue
5.119

@<SCITEGIC>MOL_PROPERTY
Bond
SciTegic.value.DoubleValue
0.136

@<SCITEGIC>MOL_PROPERTY
Angle
SciTegic.value.DoubleValue
0.867

@<SCITEGIC>MOL_PROPERTY
Pdih
SciTegic.value.DoubleValue
0.882

@<SCITEGIC>MOL_PROPERTY
Idih
SciTegic.value.DoubleValue
0.000

@<SCITEGIC>MOL_PROPERTY
Tether
SciTegic.value.DoubleValue
0.000

@<TRIPOS>MOLECULE
guest-s10_confgen4.mol2 : confsearch ligand conformer 392
          20          19           1
SMALL
USER_CHARGES
 
@<TRIPOS>ATOM
       1    N1      18.709874   21.090907   22.778546 N.4        1 MOL1        -0.5937
       2    H1      19.185895   21.570233   22.009450 H          1 MOL1         0.3684
       3    H2      19.125492   21.424960   23.651699 H          1 MOL1         0.3684
       4    H3      17.733937   21.399340   22.768748 H          1 MOL1         0.3684
       5    C1      18.816291   19.595853   22.652234 C.3        1 MOL1         0.1270
       6    H4      18.347376   19.333062   21.698858 H          1 MOL1         0.0960
       7    C2      18.033277   18.907275   23.785172 C.3        1 MOL1        -0.2382
       8    H5      17.004145   19.284449   23.828187 H          1 MOL1         0.1009
       9    H6      18.502755   19.088976   24.759930 H          1 MOL1         0.1009
      10    H7      17.973967   17.824140   23.628575 H          1 MOL1         0.1009
      11    C3      20.293973   19.142249   22.605461 C.3        1 MOL1        -0.1392
      12    H8      20.818937   19.745724   21.853201 H          1 MOL1         0.0998
      13    H9      20.777251   19.356685   23.567910 H          1 MOL1         0.0998
      14    C4      20.478136   17.646379   22.251034 C.3        1 MOL1        -0.1302
      15    H10     19.941233   17.417259   21.319740 H          1 MOL1         0.0998
      16    H11     20.042036   17.012468   23.034535 H          1 MOL1         0.0998
      17    C5      21.968664   17.279427   22.085638 C.3        1 MOL1        -0.2317
      18    H12     22.432847   17.862449   21.279502 H          1 MOL1         0.1009
      19    H13     22.080955   16.215755   21.838491 H          1 MOL1         0.1009
      20    H14     22.527416   17.470649   23.011106 H          1 MOL1         0.1009
@<TRIPOS>BOND
    1     1     2    1
    2     1     3    1
    3     1     4    1
    4     1     5    1
    5     5     6    1
    6     5     7    1
    7     7     8    1
    8     7     9    1
    9     7    10    1
   10     5    11    1
   11    11    12    1
   12    11    13    1
   13    11    14    1
   14    14    15    1
   15    14    16    1
   16    14    17    1
   17    17    18    1
   18    17    19    1
   19    17    20    1
@<TRIPOS>SUBSTRUCTURE
       1 MOL1            1 RESIDUE      1      MOL     
@<SCITEGIC>MOL_PROPERTY
VConf Rank
SciTegic.value.IntegerValue
392

@<SCITEGIC>MOL_PROPERTY
Conf_Id
SciTegic.value.IntegerValue
80

@<SCITEGIC>MOL_PROPERTY
Delta U+W
SciTegic.value.DoubleValue
0.460

@<SCITEGIC>MOL_PROPERTY
U+W
SciTegic.value.DoubleValue
-35.817

@<SCITEGIC>MOL_PROPERTY
Grad RMS
SciTegic.value.DoubleValue
0.000000

@<SCITEGIC>MOL_PROPERTY
U
SciTegic.value.DoubleValue
22.495

@<SCITEGIC>MOL_PROPERTY
W
SciTegic.value.DoubleValue
-58.311

@<SCITEGIC>MOL_PROPERTY
W(PB)
SciTegic.value.DoubleValue
-60.259

@<SCITEGIC>MOL_PROPERTY
W(SA)
SciTegic.value.DoubleValue
1.948

@<SCITEGIC>MOL_PROPERTY
Valence
SciTegic.value.DoubleValue
2.419

@<SCITEGIC>MOL_PROPERTY
Coulomb
SciTegic.value.DoubleValue
19.304

@<SCITEGIC>MOL_PROPERTY
VdW
SciTegic.value.DoubleValue
0.772

@<SCITEGIC>MOL_PROPERTY
VdW6
SciTegic.value.DoubleValue
-4.635

@<SCITEGIC>MOL_PROPERTY
VdW12
SciTegic.value.DoubleValue
5.407

@<SCITEGIC>MOL_PROPERTY
Bond
SciTegic.value.DoubleValue
0.149

@<SCITEGIC>MOL_PROPERTY
Angle
SciTegic.value.DoubleValue
1.142

@<SCITEGIC>MOL_PROPERTY
Pdih
SciTegic.value.DoubleValue
1.129

@<SCITEGIC>MOL_PROPERTY
Idih
SciTegic.value.DoubleValue
0.000

@<SCITEGIC>MOL_PROPERTY
Tether
SciTegic.value.DoubleValue
0.000

@<TRIPOS>MOLECULE
guest-s10_confgen4.mol2 : confsearch ligand conformer 393
          20          19           1
SMALL
USER_CHARGES
 
@<TRIPOS>ATOM
       1    N1      18.782730   21.022264   23.234145 N.4        1 MOL1        -0.5937
       2    H1      18.324735   21.013159   24.149551 H          1 MOL1         0.3684
       3    H2      18.049394   20.955917   22.523860 H          1 MOL1         0.3684
       4    H3      19.227229   21.938074   23.127714 H          1 MOL1         0.3684
       5    C1      19.782439   19.906139   23.101495 C.3        1 MOL1         0.1270
       6    H4      20.523456   20.063320   23.891424 H          1 MOL1         0.0960
       7    C2      20.503169   19.995418   21.745458 C.3        1 MOL1        -0.2382
       8    H5      20.887501   21.008835   21.576884 H          1 MOL1         0.1009
       9    H6      19.827646   19.745002   20.918165 H          1 MOL1         0.1009
      10    H7      21.362788   19.316473   21.712341 H          1 MOL1         0.1009
      11    C3      19.113439   18.529927   23.337751 C.3        1 MOL1        -0.1392
      12    H8      18.598095   18.576273   24.306238 H          1 MOL1         0.0998
      13    H9      18.328182   18.356424   22.590090 H          1 MOL1         0.0998
      14    C4      20.090036   17.324890   23.380005 C.3        1 MOL1        -0.1302
      15    H10     19.735168   16.612869   24.138432 H          1 MOL1         0.0998
      16    H11     21.084693   17.650604   23.715465 H          1 MOL1         0.0998
      17    C5      20.195535   16.571312   22.033148 C.3        1 MOL1        -0.2317
      18    H12     19.217938   16.176423   21.727397 H          1 MOL1         0.1009
      19    H13     20.884003   15.720942   22.121840 H          1 MOL1         0.1009
      20    H14     20.565658   17.214794   21.227243 H          1 MOL1         0.1009
@<TRIPOS>BOND
    1     1     2    1
    2     1     3    1
    3     1     4    1
    4     1     5    1
    5     5     6    1
    6     5     7    1
    7     7     8    1
    8     7     9    1
    9     7    10    1
   10     5    11    1
   11    11    12    1
   12    11    13    1
   13    11    14    1
   14    14    15    1
   15    14    16    1
   16    14    17    1
   17    17    18    1
   18    17    19    1
   19    17    20    1
@<TRIPOS>SUBSTRUCTURE
       1 MOL1            1 RESIDUE      1      MOL     
@<SCITEGIC>MOL_PROPERTY
VConf Rank
SciTegic.value.IntegerValue
393

@<SCITEGIC>MOL_PROPERTY
Conf_Id
SciTegic.value.IntegerValue
52

@<SCITEGIC>MOL_PROPERTY
Delta U+W
SciTegic.value.DoubleValue
2.995

@<SCITEGIC>MOL_PROPERTY
U+W
SciTegic.value.DoubleValue
-33.282

@<SCITEGIC>MOL_PROPERTY
Grad RMS
SciTegic.value.DoubleValue
0.000000

@<SCITEGIC>MOL_PROPERTY
U
SciTegic.value.DoubleValue
25.224

@<SCITEGIC>MOL_PROPERTY
W
SciTegic.value.DoubleValue
-58.506

@<SCITEGIC>MOL_PROPERTY
W(PB)
SciTegic.value.DoubleValue
-60.411

@<SCITEGIC>MOL_PROPERTY
W(SA)
SciTegic.value.DoubleValue
1.905

@<SCITEGIC>MOL_PROPERTY
Valence
SciTegic.value.DoubleValue
4.945

@<SCITEGIC>MOL_PROPERTY
Coulomb
SciTegic.value.DoubleValue
19.467

@<SCITEGIC>MOL_PROPERTY
VdW
SciTegic.value.DoubleValue
0.813

@<SCITEGIC>MOL_PROPERTY
VdW6
SciTegic.value.DoubleValue
-5.458

@<SCITEGIC>MOL_PROPERTY
VdW12
SciTegic.value.DoubleValue
6.270

@<SCITEGIC>MOL_PROPERTY
Bond
SciTegic.value.DoubleValue
0.200

@<SCITEGIC>MOL_PROPERTY
Angle
SciTegic.value.DoubleValue
1.675

@<SCITEGIC>MOL_PROPERTY
Pdih
SciTegic.value.DoubleValue
3.070

@<SCITEGIC>MOL_PROPERTY
Idih
SciTegic.value.DoubleValue
0.000

@<SCITEGIC>MOL_PROPERTY
Tether
SciTegic.value.DoubleValue
0.000

@<TRIPOS>MOLECULE
guest-s10_confgen4.mol2 : confsearch ligand conformer 394
          20          19           1
SMALL
USER_CHARGES
 
@<TRIPOS>ATOM
       1    N1      18.359805   19.634167   22.184819 N.4        1 MOL1        -0.5937
       2    H1      18.635265   20.221634   21.394009 H          1 MOL1         0.3684
       3    H2      17.439761   19.954818   22.498426 H          1 MOL1         0.3684
       4    H3      18.251504   18.680126   21.834018 H          1 MOL1         0.3684
       5    C1      19.374345   19.696391   23.293912 C.3        1 MOL1         0.1270
       6    H4      18.989626   19.086460   24.117144 H          1 MOL1         0.0960
       7    C2      19.513442   21.144681   23.792779 C.3        1 MOL1        -0.2382
       8    H5      19.912351   21.798677   23.007273 H          1 MOL1         0.1009
       9    H6      20.187459   21.197779   24.656797 H          1 MOL1         0.1009
      10    H7      18.540868   21.542507   24.107695 H          1 MOL1         0.1009
      11    C3      20.754417   19.134717   22.876589 C.3        1 MOL1        -0.1392
      12    H8      21.049890   19.551326   21.904629 H          1 MOL1         0.0998
      13    H9      21.507141   19.486612   23.594684 H          1 MOL1         0.0998
      14    C4      20.843328   17.586297   22.843487 C.3        1 MOL1        -0.1302
      15    H10     20.591902   17.179779   23.833215 H          1 MOL1         0.0998
      16    H11     21.890468   17.307609   22.659482 H          1 MOL1         0.0998
      17    C5      19.963524   16.908122   21.768669 C.3        1 MOL1        -0.2317
      18    H12     20.231273   15.847640   21.673930 H          1 MOL1         0.1009
      19    H13     20.103490   17.374882   20.784870 H          1 MOL1         0.1009
      20    H14     18.900535   16.946046   22.033348 H          1 MOL1         0.1009
@<TRIPOS>BOND
    1     1     2    1
    2     1     3    1
    3     1     4    1
    4     1     5    1
    5     5     6    1
    6     5     7    1
    7     7     8    1
    8     7     9    1
    9     7    10    1
   10     5    11    1
   11    11    12    1
   12    11    13    1
   13    11    14    1
   14    14    15    1
   15    14    16    1
   16    14    17    1
   17    17    18    1
   18    17    19    1
   19    17    20    1
@<TRIPOS>SUBSTRUCTURE
       1 MOL1            1 RESIDUE      1      MOL     
@<SCITEGIC>MOL_PROPERTY
VConf Rank
SciTegic.value.IntegerValue
394

@<SCITEGIC>MOL_PROPERTY
Conf_Id
SciTegic.value.IntegerValue
54

@<SCITEGIC>MOL_PROPERTY
Delta U+W
SciTegic.value.DoubleValue
2.752

@<SCITEGIC>MOL_PROPERTY
U+W
SciTegic.value.DoubleValue
-33.525

@<SCITEGIC>MOL_PROPERTY
Grad RMS
SciTegic.value.DoubleValue
0.000000

@<SCITEGIC>MOL_PROPERTY
U
SciTegic.value.DoubleValue
24.337

@<SCITEGIC>MOL_PROPERTY
W
SciTegic.value.DoubleValue
-57.862

@<SCITEGIC>MOL_PROPERTY
W(PB)
SciTegic.value.DoubleValue
-59.764

@<SCITEGIC>MOL_PROPERTY
W(SA)
SciTegic.value.DoubleValue
1.901

@<SCITEGIC>MOL_PROPERTY
Valence
SciTegic.value.DoubleValue
3.593

@<SCITEGIC>MOL_PROPERTY
Coulomb
SciTegic.value.DoubleValue
20.067

@<SCITEGIC>MOL_PROPERTY
VdW
SciTegic.value.DoubleValue
0.677

@<SCITEGIC>MOL_PROPERTY
VdW6
SciTegic.value.DoubleValue
-5.466

@<SCITEGIC>MOL_PROPERTY
VdW12
SciTegic.value.DoubleValue
6.144

@<SCITEGIC>MOL_PROPERTY
Bond
SciTegic.value.DoubleValue
0.191

@<SCITEGIC>MOL_PROPERTY
Angle
SciTegic.value.DoubleValue
1.557

@<SCITEGIC>MOL_PROPERTY
Pdih
SciTegic.value.DoubleValue
1.845

@<SCITEGIC>MOL_PROPERTY
Idih
SciTegic.value.DoubleValue
0.000

@<SCITEGIC>MOL_PROPERTY
Tether
SciTegic.value.DoubleValue
0.000

@<TRIPOS>MOLECULE
guest-s10_confgen4.mol2 : confsearch ligand conformer 395
          20          19           1
SMALL
USER_CHARGES
 
@<TRIPOS>ATOM
       1    N1      19.292442   18.977590   20.683988 N.4        1 MOL1        -0.5937
       2    H1      18.841933   18.452523   19.929667 H          1 MOL1         0.3684
       3    H2      20.042468   19.531928   20.262227 H          1 MOL1         0.3684
       4    H3      18.599971   19.630834   21.057089 H          1 MOL1         0.3684
       5    C1      19.817438   18.061104   21.755584 C.3        1 MOL1         0.1270
       6    H4      20.531395   17.394991   21.261033 H          1 MOL1         0.0960
       7    C2      18.691738   17.185994   22.335088 C.3        1 MOL1        -0.2382
       8    H5      19.078128   16.520648   23.117067 H          1 MOL1         0.1009
       9    H6      18.252980   16.556814   21.551054 H          1 MOL1         0.1009
      10    H7      17.886788   17.792638   22.766458 H          1 MOL1         0.1009
      11    C3      20.590209   18.821640   22.859877 C.3        1 MOL1        -0.1392
      12    H8      21.020820   18.090374   23.556699 H          1 MOL1         0.0998
      13    H9      21.443368   19.334035   22.396219 H          1 MOL1         0.0998
      14    C4      19.749020   19.852884   23.655668 C.3        1 MOL1        -0.1302
      15    H10     18.918895   19.350453   24.169933 H          1 MOL1         0.0998
      16    H11     19.302824   20.587146   22.971614 H          1 MOL1         0.0998
      17    C5      20.606692   20.596733   24.701811 C.3        1 MOL1        -0.2317
      18    H12     19.997769   21.321103   25.258200 H          1 MOL1         0.1009
      19    H13     21.427489   21.145741   24.222120 H          1 MOL1         0.1009
      20    H14     21.041710   19.896130   25.426475 H          1 MOL1         0.1009
@<TRIPOS>BOND
    1     1     2    1
    2     1     3    1
    3     1     4    1
    4     1     5    1
    5     5     6    1
    6     5     7    1
    7     7     8    1
    8     7     9    1
    9     7    10    1
   10     5    11    1
   11    11    12    1
   12    11    13    1
   13    11    14    1
   14    14    15    1
   15    14    16    1
   16    14    17    1
   17    17    18    1
   18    17    19    1
   19    17    20    1
@<TRIPOS>SUBSTRUCTURE
       1 MOL1            1 RESIDUE      1      MOL     
@<SCITEGIC>MOL_PROPERTY
VConf Rank
SciTegic.value.IntegerValue
395

@<SCITEGIC>MOL_PROPERTY
Conf_Id
SciTegic.value.IntegerValue
63

@<SCITEGIC>MOL_PROPERTY
Delta U+W
SciTegic.value.DoubleValue
0.420

@<SCITEGIC>MOL_PROPERTY
U+W
SciTegic.value.DoubleValue
-35.856

@<SCITEGIC>MOL_PROPERTY
Grad RMS
SciTegic.value.DoubleValue
0.000000

@<SCITEGIC>MOL_PROPERTY
U
SciTegic.value.DoubleValue
22.625

@<SCITEGIC>MOL_PROPERTY
W
SciTegic.value.DoubleValue
-58.481

@<SCITEGIC>MOL_PROPERTY
W(PB)
SciTegic.value.DoubleValue
-60.400

@<SCITEGIC>MOL_PROPERTY
W(SA)
SciTegic.value.DoubleValue
1.919

@<SCITEGIC>MOL_PROPERTY
Valence
SciTegic.value.DoubleValue
2.404

@<SCITEGIC>MOL_PROPERTY
Coulomb
SciTegic.value.DoubleValue
19.464

@<SCITEGIC>MOL_PROPERTY
VdW
SciTegic.value.DoubleValue
0.757

@<SCITEGIC>MOL_PROPERTY
VdW6
SciTegic.value.DoubleValue
-5.074

@<SCITEGIC>MOL_PROPERTY
VdW12
SciTegic.value.DoubleValue
5.830

@<SCITEGIC>MOL_PROPERTY
Bond
SciTegic.value.DoubleValue
0.172

@<SCITEGIC>MOL_PROPERTY
Angle
SciTegic.value.DoubleValue
1.207

@<SCITEGIC>MOL_PROPERTY
Pdih
SciTegic.value.DoubleValue
1.025

@<SCITEGIC>MOL_PROPERTY
Idih
SciTegic.value.DoubleValue
0.000

@<SCITEGIC>MOL_PROPERTY
Tether
SciTegic.value.DoubleValue
0.000

@<TRIPOS>MOLECULE
guest-s10_confgen4.mol2 : confsearch ligand conformer 396
          20          19           1
SMALL
USER_CHARGES
 
@<TRIPOS>ATOM
       1    N1      18.726955   18.126697   23.984356 N.4        1 MOL1        -0.5937
       2    H1      18.552825   19.060184   24.365348 H          1 MOL1         0.3684
       3    H2      19.340802   17.636224   24.639375 H          1 MOL1         0.3684
       4    H3      17.832404   17.629522   23.972599 H          1 MOL1         0.3684
       5    C1      19.334928   18.201732   22.609977 C.3        1 MOL1         0.1270
       6    H4      18.618299   18.734212   21.977492 H          1 MOL1         0.0960
       7    C2      19.533553   16.793378   22.026369 C.3        1 MOL1        -0.2382
       8    H5      18.582465   16.247692   21.996404 H          1 MOL1         0.1009
       9    H6      20.243108   16.210536   22.626852 H          1 MOL1         0.1009
      10    H7      19.918141   16.847388   21.000310 H          1 MOL1         0.1009
      11    C3      20.668357   18.983227   22.595372 C.3        1 MOL1        -0.1392
      12    H8      21.407048   18.454845   23.212608 H          1 MOL1         0.0998
      13    H9      21.069342   18.986400   21.573057 H          1 MOL1         0.0998
      14    C4      20.551422   20.448107   23.087664 C.3        1 MOL1        -0.1302
      15    H10     21.545463   20.914924   23.044447 H          1 MOL1         0.0998
      16    H11     20.253246   20.471216   24.144605 H          1 MOL1         0.0998
      17    C5      19.564987   21.292304   22.248828 C.3        1 MOL1        -0.2317
      18    H12     19.843102   21.284338   21.186863 H          1 MOL1         0.1009
      19    H13     19.568193   22.336524   22.587446 H          1 MOL1         0.1009
      20    H14     18.536716   20.919684   22.336627 H          1 MOL1         0.1009
@<TRIPOS>BOND
    1     1     2    1
    2     1     3    1
    3     1     4    1
    4     1     5    1
    5     5     6    1
    6     5     7    1
    7     7     8    1
    8     7     9    1
    9     7    10    1
   10     5    11    1
   11    11    12    1
   12    11    13    1
   13    11    14    1
   14    14    15    1
   15    14    16    1
   16    14    17    1
   17    17    18    1
   18    17    19    1
   19    17    20    1
@<TRIPOS>SUBSTRUCTURE
       1 MOL1            1 RESIDUE      1      MOL     
@<SCITEGIC>MOL_PROPERTY
VConf Rank
SciTegic.value.IntegerValue
396

@<SCITEGIC>MOL_PROPERTY
Conf_Id
SciTegic.value.IntegerValue
50

@<SCITEGIC>MOL_PROPERTY
Delta U+W
SciTegic.value.DoubleValue
0.466

@<SCITEGIC>MOL_PROPERTY
U+W
SciTegic.value.DoubleValue
-35.811

@<SCITEGIC>MOL_PROPERTY
Grad RMS
SciTegic.value.DoubleValue
0.000000

@<SCITEGIC>MOL_PROPERTY
U
SciTegic.value.DoubleValue
22.369

@<SCITEGIC>MOL_PROPERTY
W
SciTegic.value.DoubleValue
-58.180

@<SCITEGIC>MOL_PROPERTY
W(PB)
SciTegic.value.DoubleValue
-60.103

@<SCITEGIC>MOL_PROPERTY
W(SA)
SciTegic.value.DoubleValue
1.923

@<SCITEGIC>MOL_PROPERTY
Valence
SciTegic.value.DoubleValue
2.168

@<SCITEGIC>MOL_PROPERTY
Coulomb
SciTegic.value.DoubleValue
19.636

@<SCITEGIC>MOL_PROPERTY
VdW
SciTegic.value.DoubleValue
0.566

@<SCITEGIC>MOL_PROPERTY
VdW6
SciTegic.value.DoubleValue
-5.263

@<SCITEGIC>MOL_PROPERTY
VdW12
SciTegic.value.DoubleValue
5.829

@<SCITEGIC>MOL_PROPERTY
Bond
SciTegic.value.DoubleValue
0.162

@<SCITEGIC>MOL_PROPERTY
Angle
SciTegic.value.DoubleValue
1.066

@<SCITEGIC>MOL_PROPERTY
Pdih
SciTegic.value.DoubleValue
0.939

@<SCITEGIC>MOL_PROPERTY
Idih
SciTegic.value.DoubleValue
0.000

@<SCITEGIC>MOL_PROPERTY
Tether
SciTegic.value.DoubleValue
0.000

@<TRIPOS>MOLECULE
guest-s10_confgen4.mol2 : confsearch ligand conformer 397
          20          19           1
SMALL
USER_CHARGES
 
@<TRIPOS>ATOM
       1    N1      18.327342   18.735718   20.906688 N.4        1 MOL1        -0.5937
       2    H1      17.903058   19.663132   20.817897 H          1 MOL1         0.3684
       3    H2      17.581053   18.078162   21.146570 H          1 MOL1         0.3684
       4    H3      18.677668   18.473849   19.981252 H          1 MOL1         0.3684
       5    C1      19.426021   18.724148   21.934964 C.3        1 MOL1         0.1270
       6    H4      20.168068   19.453777   21.596189 H          1 MOL1         0.0960
       7    C2      20.087077   17.333980   21.983981 C.3        1 MOL1        -0.2382
       8    H5      19.363410   16.562265   22.274546 H          1 MOL1         0.1009
       9    H6      20.914285   17.306240   22.701440 H          1 MOL1         0.1009
      10    H7      20.493135   17.064539   21.001308 H          1 MOL1         0.1009
      11    C3      18.917529   19.166072   23.329371 C.3        1 MOL1        -0.1392
      12    H8      17.954282   19.680438   23.214238 H          1 MOL1         0.0998
      13    H9      18.711005   18.289550   23.957916 H          1 MOL1         0.0998
      14    C4      19.873581   20.137455   24.067045 C.3        1 MOL1        -0.1302
      15    H10     19.396200   20.454836   25.004760 H          1 MOL1         0.0998
      16    H11     20.004777   21.049458   23.467780 H          1 MOL1         0.0998
      17    C5      21.258190   19.535383   24.393545 C.3        1 MOL1        -0.2317
      18    H12     21.160115   18.598066   24.956435 H          1 MOL1         0.1009
      19    H13     21.844928   20.232991   25.005201 H          1 MOL1         0.1009
      20    H14     21.833957   19.335987   23.481205 H          1 MOL1         0.1009
@<TRIPOS>BOND
    1     1     2    1
    2     1     3    1
    3     1     4    1
    4     1     5    1
    5     5     6    1
    6     5     7    1
    7     7     8    1
    8     7     9    1
    9     7    10    1
   10     5    11    1
   11    11    12    1
   12    11    13    1
   13    11    14    1
   14    14    15    1
   15    14    16    1
   16    14    17    1
   17    17    18    1
   18    17    19    1
   19    17    20    1
@<TRIPOS>SUBSTRUCTURE
       1 MOL1            1 RESIDUE      1      MOL     
@<SCITEGIC>MOL_PROPERTY
VConf Rank
SciTegic.value.IntegerValue
397

@<SCITEGIC>MOL_PROPERTY
Conf_Id
SciTegic.value.IntegerValue
3

@<SCITEGIC>MOL_PROPERTY
Delta U+W
SciTegic.value.DoubleValue
3.093

@<SCITEGIC>MOL_PROPERTY
U+W
SciTegic.value.DoubleValue
-33.184

@<SCITEGIC>MOL_PROPERTY
Grad RMS
SciTegic.value.DoubleValue
0.000000

@<SCITEGIC>MOL_PROPERTY
U
SciTegic.value.DoubleValue
25.256

@<SCITEGIC>MOL_PROPERTY
W
SciTegic.value.DoubleValue
-58.439

@<SCITEGIC>MOL_PROPERTY
W(PB)
SciTegic.value.DoubleValue
-60.337

@<SCITEGIC>MOL_PROPERTY
W(SA)
SciTegic.value.DoubleValue
1.898

@<SCITEGIC>MOL_PROPERTY
Valence
SciTegic.value.DoubleValue
4.963

@<SCITEGIC>MOL_PROPERTY
Coulomb
SciTegic.value.DoubleValue
19.511

@<SCITEGIC>MOL_PROPERTY
VdW
SciTegic.value.DoubleValue
0.782

@<SCITEGIC>MOL_PROPERTY
VdW6
SciTegic.value.DoubleValue
-5.429

@<SCITEGIC>MOL_PROPERTY
VdW12
SciTegic.value.DoubleValue
6.211

@<SCITEGIC>MOL_PROPERTY
Bond
SciTegic.value.DoubleValue
0.174

@<SCITEGIC>MOL_PROPERTY
Angle
SciTegic.value.DoubleValue
1.377

@<SCITEGIC>MOL_PROPERTY
Pdih
SciTegic.value.DoubleValue
3.412

@<SCITEGIC>MOL_PROPERTY
Idih
SciTegic.value.DoubleValue
0.000

@<SCITEGIC>MOL_PROPERTY
Tether
SciTegic.value.DoubleValue
0.000

@<TRIPOS>MOLECULE
guest-s10_confgen4.mol2 : confsearch ligand conformer 398
          20          19           1
SMALL
USER_CHARGES
 
@<TRIPOS>ATOM
       1    N1      17.741984   18.577515   21.610381 N.4        1 MOL1        -0.5937
       2    H1      17.601671   18.886911   20.644864 H          1 MOL1         0.3684
       3    H2      17.034103   19.044739   22.183474 H          1 MOL1         0.3684
       4    H3      17.545936   17.573817   21.639383 H          1 MOL1         0.3684
       5    C1      19.134628   18.882619   22.089794 C.3        1 MOL1         0.1270
       6    H4      19.252092   19.968138   22.019463 H          1 MOL1         0.0960
       7    C2      20.175203   18.220330   21.168557 C.3        1 MOL1        -0.2382
       8    H5      21.191812   18.544914   21.418927 H          1 MOL1         0.1009
       9    H6      19.995568   18.494972   20.121926 H          1 MOL1         0.1009
      10    H7      20.134605   17.126730   21.245235 H          1 MOL1         0.1009
      11    C3      19.320958   18.468448   23.569041 C.3        1 MOL1        -0.1392
      12    H8      18.506033   18.904951   24.161400 H          1 MOL1         0.0998
      13    H9      19.212222   17.379407   23.657930 H          1 MOL1         0.0998
      14    C4      20.668689   18.896177   24.204473 C.3        1 MOL1        -0.1302
      15    H10     21.502829   18.371414   23.719594 H          1 MOL1         0.0998
      16    H11     20.680860   18.572592   25.254703 H          1 MOL1         0.0998
      17    C5      20.907873   20.422203   24.148049 C.3        1 MOL1        -0.2317
      18    H12     20.084106   20.969021   24.625077 H          1 MOL1         0.1009
      19    H13     21.002940   20.777557   23.114245 H          1 MOL1         0.1009
      20    H14     21.834196   20.686011   24.674689 H          1 MOL1         0.1009
@<TRIPOS>BOND
    1     1     2    1
    2     1     3    1
    3     1     4    1
    4     1     5    1
    5     5     6    1
    6     5     7    1
    7     7     8    1
    8     7     9    1
    9     7    10    1
   10     5    11    1
   11    11    12    1
   12    11    13    1
   13    11    14    1
   14    14    15    1
   15    14    16    1
   16    14    17    1
   17    17    18    1
   18    17    19    1
   19    17    20    1
@<TRIPOS>SUBSTRUCTURE
       1 MOL1            1 RESIDUE      1      MOL     
@<SCITEGIC>MOL_PROPERTY
VConf Rank
SciTegic.value.IntegerValue
398

@<SCITEGIC>MOL_PROPERTY
Conf_Id
SciTegic.value.IntegerValue
64

@<SCITEGIC>MOL_PROPERTY
Delta U+W
SciTegic.value.DoubleValue
0.544

@<SCITEGIC>MOL_PROPERTY
U+W
SciTegic.value.DoubleValue
-35.732

@<SCITEGIC>MOL_PROPERTY
Grad RMS
SciTegic.value.DoubleValue
0.000000

@<SCITEGIC>MOL_PROPERTY
U
SciTegic.value.DoubleValue
22.800

@<SCITEGIC>MOL_PROPERTY
W
SciTegic.value.DoubleValue
-58.532

@<SCITEGIC>MOL_PROPERTY
W(PB)
SciTegic.value.DoubleValue
-60.437

@<SCITEGIC>MOL_PROPERTY
W(SA)
SciTegic.value.DoubleValue
1.905

@<SCITEGIC>MOL_PROPERTY
Valence
SciTegic.value.DoubleValue
2.662

@<SCITEGIC>MOL_PROPERTY
Coulomb
SciTegic.value.DoubleValue
19.485

@<SCITEGIC>MOL_PROPERTY
VdW
SciTegic.value.DoubleValue
0.653

@<SCITEGIC>MOL_PROPERTY
VdW6
SciTegic.value.DoubleValue
-5.460

@<SCITEGIC>MOL_PROPERTY
VdW12
SciTegic.value.DoubleValue
6.113

@<SCITEGIC>MOL_PROPERTY
Bond
SciTegic.value.DoubleValue
0.174

@<SCITEGIC>MOL_PROPERTY
Angle
SciTegic.value.DoubleValue
1.378

@<SCITEGIC>MOL_PROPERTY
Pdih
SciTegic.value.DoubleValue
1.109

@<SCITEGIC>MOL_PROPERTY
Idih
SciTegic.value.DoubleValue
0.000

@<SCITEGIC>MOL_PROPERTY
Tether
SciTegic.value.DoubleValue
0.000

@<TRIPOS>MOLECULE
guest-s10_confgen4.mol2 : confsearch ligand conformer 399
          20          19           1
SMALL
USER_CHARGES
 
@<TRIPOS>ATOM
       1    N1      21.619157   19.293249   21.720327 N.4        1 MOL1        -0.5937
       2    H1      21.116791   20.170286   21.566359 H          1 MOL1         0.3684
       3    H2      22.015873   19.006414   20.821464 H          1 MOL1         0.3684
       4    H3      22.402665   19.493994   22.347605 H          1 MOL1         0.3684
       5    C1      20.714510   18.232082   22.286339 C.3        1 MOL1         0.1270
       6    H4      21.336913   17.339325   22.402802 H          1 MOL1         0.0960
       7    C2      19.592017   17.883118   21.295401 C.3        1 MOL1        -0.2382
       8    H5      19.005130   18.768753   21.025358 H          1 MOL1         0.1009
       9    H6      18.915414   17.131255   21.719959 H          1 MOL1         0.1009
      10    H7      20.012558   17.467967   20.371407 H          1 MOL1         0.1009
      11    C3      20.184235   18.599624   23.695118 C.3        1 MOL1        -0.1392
      12    H8      19.678953   17.728609   24.132748 H          1 MOL1         0.0998
      13    H9      21.056562   18.779043   24.337252 H          1 MOL1         0.0998
      14    C4      19.255851   19.843274   23.776750 C.3        1 MOL1        -0.1302
      15    H10     19.517272   20.578799   23.004713 H          1 MOL1         0.0998
      16    H11     19.432474   20.344261   24.738934 H          1 MOL1         0.0998
      17    C5      17.750436   19.497295   23.694467 C.3        1 MOL1        -0.2317
      18    H12     17.484525   19.031891   22.739131 H          1 MOL1         0.1009
      19    H13     17.142328   20.405036   23.800190 H          1 MOL1         0.1009
      20    H14     17.460954   18.808670   24.498855 H          1 MOL1         0.1009
@<TRIPOS>BOND
    1     1     2    1
    2     1     3    1
    3     1     4    1
    4     1     5    1
    5     5     6    1
    6     5     7    1
    7     7     8    1
    8     7     9    1
    9     7    10    1
   10     5    11    1
   11    11    12    1
   12    11    13    1
   13    11    14    1
   14    14    15    1
   15    14    16    1
   16    14    17    1
   17    17    18    1
   18    17    19    1
   19    17    20    1
@<TRIPOS>SUBSTRUCTURE
       1 MOL1            1 RESIDUE      1      MOL     
@<SCITEGIC>MOL_PROPERTY
VConf Rank
SciTegic.value.IntegerValue
399

@<SCITEGIC>MOL_PROPERTY
Conf_Id
SciTegic.value.IntegerValue
35

@<SCITEGIC>MOL_PROPERTY
Delta U+W
SciTegic.value.DoubleValue
3.004

@<SCITEGIC>MOL_PROPERTY
U+W
SciTegic.value.DoubleValue
-33.272

@<SCITEGIC>MOL_PROPERTY
Grad RMS
SciTegic.value.DoubleValue
0.000000

@<SCITEGIC>MOL_PROPERTY
U
SciTegic.value.DoubleValue
25.367

@<SCITEGIC>MOL_PROPERTY
W
SciTegic.value.DoubleValue
-58.639

@<SCITEGIC>MOL_PROPERTY
W(PB)
SciTegic.value.DoubleValue
-60.512

@<SCITEGIC>MOL_PROPERTY
W(SA)
SciTegic.value.DoubleValue
1.873

@<SCITEGIC>MOL_PROPERTY
Valence
SciTegic.value.DoubleValue
4.943

@<SCITEGIC>MOL_PROPERTY
Coulomb
SciTegic.value.DoubleValue
19.661

@<SCITEGIC>MOL_PROPERTY
VdW
SciTegic.value.DoubleValue
0.764

@<SCITEGIC>MOL_PROPERTY
VdW6
SciTegic.value.DoubleValue
-5.871

@<SCITEGIC>MOL_PROPERTY
VdW12
SciTegic.value.DoubleValue
6.636

@<SCITEGIC>MOL_PROPERTY
Bond
SciTegic.value.DoubleValue
0.230

@<SCITEGIC>MOL_PROPERTY
Angle
SciTegic.value.DoubleValue
1.857

@<SCITEGIC>MOL_PROPERTY
Pdih
SciTegic.value.DoubleValue
2.855

@<SCITEGIC>MOL_PROPERTY
Idih
SciTegic.value.DoubleValue
0.000

@<SCITEGIC>MOL_PROPERTY
Tether
SciTegic.value.DoubleValue
0.000

@<TRIPOS>MOLECULE
guest-s10_confgen4.mol2 : confsearch ligand conformer 400
          20          19           1
SMALL
USER_CHARGES
 
@<TRIPOS>ATOM
       1    N1      18.353861   19.999607   22.807194 N.4        1 MOL1        -0.5937
       2    H1      17.901702   20.615029   23.488670 H          1 MOL1         0.3684
       3    H2      17.654600   19.765097   22.097531 H          1 MOL1         0.3684
       4    H3      19.090302   20.536558   22.345312 H          1 MOL1         0.3684
       5    C1      18.909546   18.764747   23.462021 C.3        1 MOL1         0.1270
       6    H4      18.045070   18.255222   23.899048 H          1 MOL1         0.0960
       7    C2      19.862571   19.121849   24.616463 C.3        1 MOL1        -0.2382
       8    H5      20.713591   19.719536   24.268858 H          1 MOL1         0.1009
       9    H6      20.251430   18.214316   25.094576 H          1 MOL1         0.1009
      10    H7      19.336097   19.702436   25.383738 H          1 MOL1         0.1009
      11    C3      19.548534   17.777148   22.452242 C.3        1 MOL1        -0.1392
      12    H8      19.634588   16.802293   22.950031 H          1 MOL1         0.0998
      13    H9      18.850137   17.617969   21.620303 H          1 MOL1         0.0998
      14    C4      20.947782   18.144793   21.883439 C.3        1 MOL1        -0.1302
      15    H10     21.272372   17.326142   21.225962 H          1 MOL1         0.0998
      16    H11     21.689641   18.184065   22.692595 H          1 MOL1         0.0998
      17    C5      20.990185   19.461456   21.075031 C.3        1 MOL1        -0.2317
      18    H12     20.200975   19.486223   20.312355 H          1 MOL1         0.1009
      19    H13     21.954198   19.559346   20.559020 H          1 MOL1         0.1009
      20    H14     20.883426   20.337713   21.724681 H          1 MOL1         0.1009
@<TRIPOS>BOND
    1     1     2    1
    2     1     3    1
    3     1     4    1
    4     1     5    1
    5     5     6    1
    6     5     7    1
    7     7     8    1
    8     7     9    1
    9     7    10    1
   10     5    11    1
   11    11    12    1
   12    11    13    1
   13    11    14    1
   14    14    15    1
   15    14    16    1
   16    14    17    1
   17    17    18    1
   18    17    19    1
   19    17    20    1
@<TRIPOS>SUBSTRUCTURE
       1 MOL1            1 RESIDUE      1      MOL     
@<SCITEGIC>MOL_PROPERTY
VConf Rank
SciTegic.value.IntegerValue
400

@<SCITEGIC>MOL_PROPERTY
Conf_Id
SciTegic.value.IntegerValue
55

@<SCITEGIC>MOL_PROPERTY
Delta U+W
SciTegic.value.DoubleValue
2.767

@<SCITEGIC>MOL_PROPERTY
U+W
SciTegic.value.DoubleValue
-33.509

@<SCITEGIC>MOL_PROPERTY
Grad RMS
SciTegic.value.DoubleValue
0.000000

@<SCITEGIC>MOL_PROPERTY
U
SciTegic.value.DoubleValue
24.552

@<SCITEGIC>MOL_PROPERTY
W
SciTegic.value.DoubleValue
-58.061

@<SCITEGIC>MOL_PROPERTY
W(PB)
SciTegic.value.DoubleValue
-59.930

@<SCITEGIC>MOL_PROPERTY
W(SA)
SciTegic.value.DoubleValue
1.869

@<SCITEGIC>MOL_PROPERTY
Valence
SciTegic.value.DoubleValue
3.726

@<SCITEGIC>MOL_PROPERTY
Coulomb
SciTegic.value.DoubleValue
20.219

@<SCITEGIC>MOL_PROPERTY
VdW
SciTegic.value.DoubleValue
0.606

@<SCITEGIC>MOL_PROPERTY
VdW6
SciTegic.value.DoubleValue
-6.395

@<SCITEGIC>MOL_PROPERTY
VdW12
SciTegic.value.DoubleValue
7.001

@<SCITEGIC>MOL_PROPERTY
Bond
SciTegic.value.DoubleValue
0.241

@<SCITEGIC>MOL_PROPERTY
Angle
SciTegic.value.DoubleValue
2.098

@<SCITEGIC>MOL_PROPERTY
Pdih
SciTegic.value.DoubleValue
1.387

@<SCITEGIC>MOL_PROPERTY
Idih
SciTegic.value.DoubleValue
0.000

@<SCITEGIC>MOL_PROPERTY
Tether
SciTegic.value.DoubleValue
0.000

@<TRIPOS>MOLECULE
guest-s10_confgen4.mol2 : confsearch ligand conformer 401
          20          19           1
SMALL
USER_CHARGES
 
@<TRIPOS>ATOM
       1    N1      18.224973   20.152144   22.340781 N.4        1 MOL1        -0.5937
       2    H1      18.578427   20.545176   21.464915 H          1 MOL1         0.3684
       3    H2      17.567115   20.829574   22.735710 H          1 MOL1         0.3684
       4    H3      17.691254   19.311178   22.107329 H          1 MOL1         0.3684
       5    C1      19.344127   19.847634   23.299859 C.3        1 MOL1         0.1270
       6    H4      18.882388   19.430764   24.200361 H          1 MOL1         0.0960
       7    C2      20.085156   21.136514   23.691818 C.3        1 MOL1        -0.2382
       8    H5      19.391207   21.867138   24.125278 H          1 MOL1         0.1009
       9    H6      20.567490   21.598102   22.821137 H          1 MOL1         0.1009
      10    H7      20.859352   20.928988   24.440946 H          1 MOL1         0.1009
      11    C3      20.338086   18.805801   22.740593 C.3        1 MOL1        -0.1392
      12    H8      20.798966   19.190736   21.821174 H          1 MOL1         0.0998
      13    H9      21.152203   18.668668   23.464800 H          1 MOL1         0.0998
      14    C4      19.682293   17.431925   22.461454 C.3        1 MOL1        -0.1302
      15    H10     18.900374   17.532630   21.696675 H          1 MOL1         0.0998
      16    H11     19.190459   17.064287   23.373147 H          1 MOL1         0.0998
      17    C5      20.718966   16.391789   21.985293 C.3        1 MOL1        -0.2317
      18    H12     21.207139   16.716969   21.057284 H          1 MOL1         0.1009
      19    H13     20.236924   15.424870   21.790901 H          1 MOL1         0.1009
      20    H14     21.497105   16.233041   22.743271 H          1 MOL1         0.1009
@<TRIPOS>BOND
    1     1     2    1
    2     1     3    1
    3     1     4    1
    4     1     5    1
    5     5     6    1
    6     5     7    1
    7     7     8    1
    8     7     9    1
    9     7    10    1
   10     5    11    1
   11    11    12    1
   12    11    13    1
   13    11    14    1
   14    14    15    1
   15    14    16    1
   16    14    17    1
   17    17    18    1
   18    17    19    1
   19    17    20    1
@<TRIPOS>SUBSTRUCTURE
       1 MOL1            1 RESIDUE      1      MOL     
@<SCITEGIC>MOL_PROPERTY
VConf Rank
SciTegic.value.IntegerValue
401

@<SCITEGIC>MOL_PROPERTY
Conf_Id
SciTegic.value.IntegerValue
74

@<SCITEGIC>MOL_PROPERTY
Delta U+W
SciTegic.value.DoubleValue
0.000

@<SCITEGIC>MOL_PROPERTY
U+W
SciTegic.value.DoubleValue
-36.276

@<SCITEGIC>MOL_PROPERTY
Grad RMS
SciTegic.value.DoubleValue
0.000000

@<SCITEGIC>MOL_PROPERTY
U
SciTegic.value.DoubleValue
22.080

@<SCITEGIC>MOL_PROPERTY
W
SciTegic.value.DoubleValue
-58.356

@<SCITEGIC>MOL_PROPERTY
W(PB)
SciTegic.value.DoubleValue
-60.289

@<SCITEGIC>MOL_PROPERTY
W(SA)
SciTegic.value.DoubleValue
1.932

@<SCITEGIC>MOL_PROPERTY
Valence
SciTegic.value.DoubleValue
1.885

@<SCITEGIC>MOL_PROPERTY
Coulomb
SciTegic.value.DoubleValue
19.559

@<SCITEGIC>MOL_PROPERTY
VdW
SciTegic.value.DoubleValue
0.637

@<SCITEGIC>MOL_PROPERTY
VdW6
SciTegic.value.DoubleValue
-4.482

@<SCITEGIC>MOL_PROPERTY
VdW12
SciTegic.value.DoubleValue
5.119

@<SCITEGIC>MOL_PROPERTY
Bond
SciTegic.value.DoubleValue
0.136

@<SCITEGIC>MOL_PROPERTY
Angle
SciTegic.value.DoubleValue
0.867

@<SCITEGIC>MOL_PROPERTY
Pdih
SciTegic.value.DoubleValue
0.882

@<SCITEGIC>MOL_PROPERTY
Idih
SciTegic.value.DoubleValue
0.000

@<SCITEGIC>MOL_PROPERTY
Tether
SciTegic.value.DoubleValue
0.000

@<TRIPOS>MOLECULE
guest-s10_confgen4.mol2 : confsearch ligand conformer 402
          20          19           1
SMALL
USER_CHARGES
 
@<TRIPOS>ATOM
       1    N1      19.067658   21.130690   22.057789 N.4        1 MOL1        -0.5937
       2    H1      18.775819   21.537821   22.950499 H          1 MOL1         0.3684
       3    H2      18.219580   20.873451   21.546595 H          1 MOL1         0.3684
       4    H3      19.530950   21.871712   21.524942 H          1 MOL1         0.3684
       5    C1      19.973641   19.946606   22.256804 C.3        1 MOL1         0.1270
       6    H4      20.846684   20.315258   22.804305 H          1 MOL1         0.0960
       7    C2      20.447187   19.402131   20.896620 C.3        1 MOL1        -0.2382
       8    H5      20.881343   20.205479   20.288868 H          1 MOL1         0.1009
       9    H6      19.614953   18.961912   20.333439 H          1 MOL1         0.1009
      10    H7      21.221578   18.636523   21.020660 H          1 MOL1         0.1009
      11    C3      19.289625   18.856932   23.114837 C.3        1 MOL1        -0.1392
      12    H8      18.881428   19.330826   24.017313 H          1 MOL1         0.0998
      13    H9      18.433113   18.439787   22.568735 H          1 MOL1         0.0998
      14    C4      20.239667   17.713442   23.547289 C.3        1 MOL1        -0.1302
      15    H10     21.127942   18.135239   24.038333 H          1 MOL1         0.0998
      16    H11     20.594450   17.159491   22.667989 H          1 MOL1         0.0998
      17    C5      19.543109   16.727295   24.509579 C.3        1 MOL1        -0.2317
      18    H12     19.210538   17.235016   25.424376 H          1 MOL1         0.1009
      19    H13     20.229047   15.921937   24.802796 H          1 MOL1         0.1009
      20    H14     18.666145   16.266694   24.036251 H          1 MOL1         0.1009
@<TRIPOS>BOND
    1     1     2    1
    2     1     3    1
    3     1     4    1
    4     1     5    1
    5     5     6    1
    6     5     7    1
    7     7     8    1
    8     7     9    1
    9     7    10    1
   10     5    11    1
   11    11    12    1
   12    11    13    1
   13    11    14    1
   14    14    15    1
   15    14    16    1
   16    14    17    1
   17    17    18    1
   18    17    19    1
   19    17    20    1
@<TRIPOS>SUBSTRUCTURE
       1 MOL1            1 RESIDUE      1      MOL     
@<SCITEGIC>MOL_PROPERTY
VConf Rank
SciTegic.value.IntegerValue
402

@<SCITEGIC>MOL_PROPERTY
Conf_Id
SciTegic.value.IntegerValue
80

@<SCITEGIC>MOL_PROPERTY
Delta U+W
SciTegic.value.DoubleValue
0.460

@<SCITEGIC>MOL_PROPERTY
U+W
SciTegic.value.DoubleValue
-35.817

@<SCITEGIC>MOL_PROPERTY
Grad RMS
SciTegic.value.DoubleValue
0.000000

@<SCITEGIC>MOL_PROPERTY
U
SciTegic.value.DoubleValue
22.495

@<SCITEGIC>MOL_PROPERTY
W
SciTegic.value.DoubleValue
-58.311

@<SCITEGIC>MOL_PROPERTY
W(PB)
SciTegic.value.DoubleValue
-60.259

@<SCITEGIC>MOL_PROPERTY
W(SA)
SciTegic.value.DoubleValue
1.948

@<SCITEGIC>MOL_PROPERTY
Valence
SciTegic.value.DoubleValue
2.419

@<SCITEGIC>MOL_PROPERTY
Coulomb
SciTegic.value.DoubleValue
19.304

@<SCITEGIC>MOL_PROPERTY
VdW
SciTegic.value.DoubleValue
0.772

@<SCITEGIC>MOL_PROPERTY
VdW6
SciTegic.value.DoubleValue
-4.635

@<SCITEGIC>MOL_PROPERTY
VdW12
SciTegic.value.DoubleValue
5.407

@<SCITEGIC>MOL_PROPERTY
Bond
SciTegic.value.DoubleValue
0.149

@<SCITEGIC>MOL_PROPERTY
Angle
SciTegic.value.DoubleValue
1.142

@<SCITEGIC>MOL_PROPERTY
Pdih
SciTegic.value.DoubleValue
1.129

@<SCITEGIC>MOL_PROPERTY
Idih
SciTegic.value.DoubleValue
0.000

@<SCITEGIC>MOL_PROPERTY
Tether
SciTegic.value.DoubleValue
0.000

@<TRIPOS>MOLECULE
guest-s10_confgen4.mol2 : confsearch ligand conformer 403
          20          19           1
SMALL
USER_CHARGES
 
@<TRIPOS>ATOM
       1    N1      21.336239   18.459590   20.971721 N.4        1 MOL1        -0.5937
       2    H1      21.641475   19.330864   20.529539 H          1 MOL1         0.3684
       3    H2      20.656717   18.019952   20.345896 H          1 MOL1         0.3684
       4    H3      22.151338   17.842233   21.017527 H          1 MOL1         0.3684
       5    C1      20.752719   18.703473   22.336556 C.3        1 MOL1         0.1270
       6    H4      21.546951   19.165685   22.930992 H          1 MOL1         0.0960
       7    C2      20.374526   17.368235   23.000159 C.3        1 MOL1        -0.2382
       8    H5      21.212082   16.661495   22.953687 H          1 MOL1         0.1009
       9    H6      19.511546   16.907253   22.503958 H          1 MOL1         0.1009
      10    H7      20.133288   17.510871   24.059624 H          1 MOL1         0.1009
      11    C3      19.567041   19.696613   22.264608 C.3        1 MOL1        -0.1392
      12    H8      19.922645   20.596921   21.746261 H          1 MOL1         0.0998
      13    H9      18.766348   19.286605   21.634916 H          1 MOL1         0.0998
      14    C4      18.996791   20.137393   23.638715 C.3        1 MOL1        -0.1302
      15    H10     18.710031   21.196584   23.575473 H          1 MOL1         0.0998
      16    H11     19.776449   20.082614   24.411437 H          1 MOL1         0.0998
      17    C5      17.749413   19.332477   24.073677 C.3        1 MOL1        -0.2317
      18    H12     16.937351   19.443072   23.343306 H          1 MOL1         0.1009
      19    H13     17.377271   19.693975   25.041051 H          1 MOL1         0.1009
      20    H14     17.963615   18.263154   24.179545 H          1 MOL1         0.1009
@<TRIPOS>BOND
    1     1     2    1
    2     1     3    1
    3     1     4    1
    4     1     5    1
    5     5     6    1
    6     5     7    1
    7     7     8    1
    8     7     9    1
    9     7    10    1
   10     5    11    1
   11    11    12    1
   12    11    13    1
   13    11    14    1
   14    14    15    1
   15    14    16    1
   16    14    17    1
   17    17    18    1
   18    17    19    1
   19    17    20    1
@<TRIPOS>SUBSTRUCTURE
       1 MOL1            1 RESIDUE      1      MOL     
@<SCITEGIC>MOL_PROPERTY
VConf Rank
SciTegic.value.IntegerValue
403

@<SCITEGIC>MOL_PROPERTY
Conf_Id
SciTegic.value.IntegerValue
52

@<SCITEGIC>MOL_PROPERTY
Delta U+W
SciTegic.value.DoubleValue
2.995

@<SCITEGIC>MOL_PROPERTY
U+W
SciTegic.value.DoubleValue
-33.282

@<SCITEGIC>MOL_PROPERTY
Grad RMS
SciTegic.value.DoubleValue
0.000000

@<SCITEGIC>MOL_PROPERTY
U
SciTegic.value.DoubleValue
25.224

@<SCITEGIC>MOL_PROPERTY
W
SciTegic.value.DoubleValue
-58.506

@<SCITEGIC>MOL_PROPERTY
W(PB)
SciTegic.value.DoubleValue
-60.411

@<SCITEGIC>MOL_PROPERTY
W(SA)
SciTegic.value.DoubleValue
1.905

@<SCITEGIC>MOL_PROPERTY
Valence
SciTegic.value.DoubleValue
4.945

@<SCITEGIC>MOL_PROPERTY
Coulomb
SciTegic.value.DoubleValue
19.467

@<SCITEGIC>MOL_PROPERTY
VdW
SciTegic.value.DoubleValue
0.813

@<SCITEGIC>MOL_PROPERTY
VdW6
SciTegic.value.DoubleValue
-5.458

@<SCITEGIC>MOL_PROPERTY
VdW12
SciTegic.value.DoubleValue
6.270

@<SCITEGIC>MOL_PROPERTY
Bond
SciTegic.value.DoubleValue
0.200

@<SCITEGIC>MOL_PROPERTY
Angle
SciTegic.value.DoubleValue
1.675

@<SCITEGIC>MOL_PROPERTY
Pdih
SciTegic.value.DoubleValue
3.070

@<SCITEGIC>MOL_PROPERTY
Idih
SciTegic.value.DoubleValue
0.000

@<SCITEGIC>MOL_PROPERTY
Tether
SciTegic.value.DoubleValue
0.000

@<TRIPOS>MOLECULE
guest-s10_confgen4.mol2 : confsearch ligand conformer 404
          20          19           1
SMALL
USER_CHARGES
 
@<TRIPOS>ATOM
       1    N1      20.888423   18.054639   23.393060 N.4        1 MOL1        -0.5937
       2    H1      21.750207   18.301464   22.900331 H          1 MOL1         0.3684
       3    H2      21.020446   17.121230   23.791764 H          1 MOL1         0.3684
       4    H3      20.781820   18.710303   24.170058 H          1 MOL1         0.3684
       5    C1      19.698694   18.099535   22.473398 C.3        1 MOL1         0.1270
       6    H4      18.829158   17.778920   23.055504 H          1 MOL1         0.0960
       7    C2      19.895995   17.105271   21.316561 C.3        1 MOL1        -0.2382
       8    H5      20.749694   17.390438   20.689078 H          1 MOL1         0.1009
       9    H6      19.003137   17.063093   20.680422 H          1 MOL1         0.1009
      10    H7      20.076376   16.093464   21.700025 H          1 MOL1         0.1009
      11    C3      19.418988   19.518495   21.923351 C.3        1 MOL1        -0.1392
      12    H8      20.351170   19.968725   21.557423 H          1 MOL1         0.0998
      13    H9      18.764044   19.430962   21.046156 H          1 MOL1         0.0998
      14    C4      18.718940   20.476887   22.922362 C.3        1 MOL1        -0.1302
      15    H10     17.764215   20.039984   23.247399 H          1 MOL1         0.0998
      16    H11     18.461319   21.401198   22.386351 H          1 MOL1         0.0998
      17    C5      19.562757   20.852521   24.161749 C.3        1 MOL1        -0.2317
      18    H12     19.087712   21.678386   24.707245 H          1 MOL1         0.1009
      19    H13     20.570377   21.180584   23.874704 H          1 MOL1         0.1009
      20    H14     19.646919   20.014169   24.862835 H          1 MOL1         0.1009
@<TRIPOS>BOND
    1     1     2    1
    2     1     3    1
    3     1     4    1
    4     1     5    1
    5     5     6    1
    6     5     7    1
    7     7     8    1
    8     7     9    1
    9     7    10    1
   10     5    11    1
   11    11    12    1
   12    11    13    1
   13    11    14    1
   14    14    15    1
   15    14    16    1
   16    14    17    1
   17    17    18    1
   18    17    19    1
   19    17    20    1
@<TRIPOS>SUBSTRUCTURE
       1 MOL1            1 RESIDUE      1      MOL     
@<SCITEGIC>MOL_PROPERTY
VConf Rank
SciTegic.value.IntegerValue
404

@<SCITEGIC>MOL_PROPERTY
Conf_Id
SciTegic.value.IntegerValue
54

@<SCITEGIC>MOL_PROPERTY
Delta U+W
SciTegic.value.DoubleValue
2.752

@<SCITEGIC>MOL_PROPERTY
U+W
SciTegic.value.DoubleValue
-33.525

@<SCITEGIC>MOL_PROPERTY
Grad RMS
SciTegic.value.DoubleValue
0.000000

@<SCITEGIC>MOL_PROPERTY
U
SciTegic.value.DoubleValue
24.337

@<SCITEGIC>MOL_PROPERTY
W
SciTegic.value.DoubleValue
-57.862

@<SCITEGIC>MOL_PROPERTY
W(PB)
SciTegic.value.DoubleValue
-59.764

@<SCITEGIC>MOL_PROPERTY
W(SA)
SciTegic.value.DoubleValue
1.901

@<SCITEGIC>MOL_PROPERTY
Valence
SciTegic.value.DoubleValue
3.593

@<SCITEGIC>MOL_PROPERTY
Coulomb
SciTegic.value.DoubleValue
20.067

@<SCITEGIC>MOL_PROPERTY
VdW
SciTegic.value.DoubleValue
0.677

@<SCITEGIC>MOL_PROPERTY
VdW6
SciTegic.value.DoubleValue
-5.466

@<SCITEGIC>MOL_PROPERTY
VdW12
SciTegic.value.DoubleValue
6.144

@<SCITEGIC>MOL_PROPERTY
Bond
SciTegic.value.DoubleValue
0.191

@<SCITEGIC>MOL_PROPERTY
Angle
SciTegic.value.DoubleValue
1.557

@<SCITEGIC>MOL_PROPERTY
Pdih
SciTegic.value.DoubleValue
1.845

@<SCITEGIC>MOL_PROPERTY
Idih
SciTegic.value.DoubleValue
0.000

@<SCITEGIC>MOL_PROPERTY
Tether
SciTegic.value.DoubleValue
0.000

@<TRIPOS>MOLECULE
guest-s10_confgen4.mol2 : confsearch ligand conformer 405
          20          19           1
SMALL
USER_CHARGES
 
@<TRIPOS>ATOM
       1    N1      18.447730   19.724466   21.296021 N.4        1 MOL1        -0.5937
       2    H1      17.825609   20.508965   21.083461 H          1 MOL1         0.3684
       3    H2      18.059019   18.895848   20.837757 H          1 MOL1         0.3684
       4    H3      19.350064   19.923064   20.858070 H          1 MOL1         0.3684
       5    C1      18.589566   19.520575   22.780001 C.3        1 MOL1         0.1270
       6    H4      17.579463   19.333227   23.157646 H          1 MOL1         0.0960
       7    C2      19.111839   20.795552   23.465935 C.3        1 MOL1        -0.2382
       8    H5      19.215525   20.642288   24.547245 H          1 MOL1         0.1009
       9    H6      18.412298   21.626634   23.314174 H          1 MOL1         0.1009
      10    H7      20.086119   21.101511   23.066922 H          1 MOL1         0.1009
      11    C3      19.446101   18.279700   23.128756 C.3        1 MOL1        -0.1392
      12    H8      19.434119   18.137325   24.217480 H          1 MOL1         0.0998
      13    H9      18.959770   17.391829   22.703816 H          1 MOL1         0.0998
      14    C4      20.915340   18.339175   22.636674 C.3        1 MOL1        -0.1302
      15    H10     21.434554   19.192885   23.092317 H          1 MOL1         0.0998
      16    H11     20.945360   18.490906   21.549367 H          1 MOL1         0.0998
      17    C5      21.682088   17.045329   22.985084 C.3        1 MOL1        -0.2317
      18    H12     22.720174   17.102967   22.632776 H          1 MOL1         0.1009
      19    H13     21.215453   16.170171   22.514370 H          1 MOL1         0.1009
      20    H14     21.703883   16.878884   24.070001 H          1 MOL1         0.1009
@<TRIPOS>BOND
    1     1     2    1
    2     1     3    1
    3     1     4    1
    4     1     5    1
    5     5     6    1
    6     5     7    1
    7     7     8    1
    8     7     9    1
    9     7    10    1
   10     5    11    1
   11    11    12    1
   12    11    13    1
   13    11    14    1
   14    14    15    1
   15    14    16    1
   16    14    17    1
   17    17    18    1
   18    17    19    1
   19    17    20    1
@<TRIPOS>SUBSTRUCTURE
       1 MOL1            1 RESIDUE      1      MOL     
@<SCITEGIC>MOL_PROPERTY
VConf Rank
SciTegic.value.IntegerValue
405

@<SCITEGIC>MOL_PROPERTY
Conf_Id
SciTegic.value.IntegerValue
63

@<SCITEGIC>MOL_PROPERTY
Delta U+W
SciTegic.value.DoubleValue
0.420

@<SCITEGIC>MOL_PROPERTY
U+W
SciTegic.value.DoubleValue
-35.856

@<SCITEGIC>MOL_PROPERTY
Grad RMS
SciTegic.value.DoubleValue
0.000000

@<SCITEGIC>MOL_PROPERTY
U
SciTegic.value.DoubleValue
22.625

@<SCITEGIC>MOL_PROPERTY
W
SciTegic.value.DoubleValue
-58.481

@<SCITEGIC>MOL_PROPERTY
W(PB)
SciTegic.value.DoubleValue
-60.400

@<SCITEGIC>MOL_PROPERTY
W(SA)
SciTegic.value.DoubleValue
1.919

@<SCITEGIC>MOL_PROPERTY
Valence
SciTegic.value.DoubleValue
2.404

@<SCITEGIC>MOL_PROPERTY
Coulomb
SciTegic.value.DoubleValue
19.464

@<SCITEGIC>MOL_PROPERTY
VdW
SciTegic.value.DoubleValue
0.757

@<SCITEGIC>MOL_PROPERTY
VdW6
SciTegic.value.DoubleValue
-5.074

@<SCITEGIC>MOL_PROPERTY
VdW12
SciTegic.value.DoubleValue
5.830

@<SCITEGIC>MOL_PROPERTY
Bond
SciTegic.value.DoubleValue
0.172

@<SCITEGIC>MOL_PROPERTY
Angle
SciTegic.value.DoubleValue
1.207

@<SCITEGIC>MOL_PROPERTY
Pdih
SciTegic.value.DoubleValue
1.025

@<SCITEGIC>MOL_PROPERTY
Idih
SciTegic.value.DoubleValue
0.000

@<SCITEGIC>MOL_PROPERTY
Tether
SciTegic.value.DoubleValue
0.000

@<TRIPOS>MOLECULE
guest-s10_confgen4.mol2 : confsearch ligand conformer 406
          20          19           1
SMALL
USER_CHARGES
 
@<TRIPOS>ATOM
       1    N1      21.357623   19.421130   23.142607 N.4        1 MOL1        -0.5937
       2    H1      21.363894   19.836742   22.207673 H          1 MOL1         0.3684
       3    H2      21.959622   18.594495   23.116293 H          1 MOL1         0.3684
       4    H3      21.790853   20.094956   23.779641 H          1 MOL1         0.3684
       5    C1      19.959794   19.071452   23.576170 C.3        1 MOL1         0.1270
       6    H4      19.388698   20.004707   23.579820 H          1 MOL1         0.0960
       7    C2      19.960119   18.505511   25.005583 C.3        1 MOL1        -0.2382
       8    H5      20.412312   19.218769   25.705598 H          1 MOL1         0.1009
       9    H6      20.525360   17.566825   25.061487 H          1 MOL1         0.1009
      10    H7      18.936269   18.308519   25.346973 H          1 MOL1         0.1009
      11    C3      19.269716   18.084832   22.606967 C.3        1 MOL1        -0.1392
      12    H8      19.819813   17.134464   22.601801 H          1 MOL1         0.0998
      13    H9      18.265055   17.855301   22.986308 H          1 MOL1         0.0998
      14    C4      19.144575   18.605902   21.152758 C.3        1 MOL1        -0.1302
      15    H10     18.648301   17.836924   20.544245 H          1 MOL1         0.0998
      16    H11     20.140919   18.743170   20.711144 H          1 MOL1         0.0998
      17    C5      18.341635   19.922587   21.047905 C.3        1 MOL1        -0.2317
      18    H12     17.340298   19.809736   21.483531 H          1 MOL1         0.1009
      19    H13     18.218048   20.214912   19.997029 H          1 MOL1         0.1009
      20    H14     18.848454   20.748199   21.563069 H          1 MOL1         0.1009
@<TRIPOS>BOND
    1     1     2    1
    2     1     3    1
    3     1     4    1
    4     1     5    1
    5     5     6    1
    6     5     7    1
    7     7     8    1
    8     7     9    1
    9     7    10    1
   10     5    11    1
   11    11    12    1
   12    11    13    1
   13    11    14    1
   14    14    15    1
   15    14    16    1
   16    14    17    1
   17    17    18    1
   18    17    19    1
   19    17    20    1
@<TRIPOS>SUBSTRUCTURE
       1 MOL1            1 RESIDUE      1      MOL     
@<SCITEGIC>MOL_PROPERTY
VConf Rank
SciTegic.value.IntegerValue
406

@<SCITEGIC>MOL_PROPERTY
Conf_Id
SciTegic.value.IntegerValue
50

@<SCITEGIC>MOL_PROPERTY
Delta U+W
SciTegic.value.DoubleValue
0.466

@<SCITEGIC>MOL_PROPERTY
U+W
SciTegic.value.DoubleValue
-35.811

@<SCITEGIC>MOL_PROPERTY
Grad RMS
SciTegic.value.DoubleValue
0.000000

@<SCITEGIC>MOL_PROPERTY
U
SciTegic.value.DoubleValue
22.369

@<SCITEGIC>MOL_PROPERTY
W
SciTegic.value.DoubleValue
-58.180

@<SCITEGIC>MOL_PROPERTY
W(PB)
SciTegic.value.DoubleValue
-60.103

@<SCITEGIC>MOL_PROPERTY
W(SA)
SciTegic.value.DoubleValue
1.923

@<SCITEGIC>MOL_PROPERTY
Valence
SciTegic.value.DoubleValue
2.168

@<SCITEGIC>MOL_PROPERTY
Coulomb
SciTegic.value.DoubleValue
19.636

@<SCITEGIC>MOL_PROPERTY
VdW
SciTegic.value.DoubleValue
0.566

@<SCITEGIC>MOL_PROPERTY
VdW6
SciTegic.value.DoubleValue
-5.263

@<SCITEGIC>MOL_PROPERTY
VdW12
SciTegic.value.DoubleValue
5.829

@<SCITEGIC>MOL_PROPERTY
Bond
SciTegic.value.DoubleValue
0.162

@<SCITEGIC>MOL_PROPERTY
Angle
SciTegic.value.DoubleValue
1.066

@<SCITEGIC>MOL_PROPERTY
Pdih
SciTegic.value.DoubleValue
0.939

@<SCITEGIC>MOL_PROPERTY
Idih
SciTegic.value.DoubleValue
0.000

@<SCITEGIC>MOL_PROPERTY
Tether
SciTegic.value.DoubleValue
0.000

@<TRIPOS>MOLECULE
guest-s10_confgen4.mol2 : confsearch ligand conformer 407
          20          19           1
SMALL
USER_CHARGES
 
@<TRIPOS>ATOM
       1    N1      20.087129   16.753463   21.987290 N.4        1 MOL1        -0.5937
       2    H1      21.075977   16.750997   21.722393 H          1 MOL1         0.3684
       3    H2      19.539171   16.645440   21.130000 H          1 MOL1         0.3684
       4    H3      19.925333   15.919840   22.558805 H          1 MOL1         0.3684
       5    C1      19.713929   18.009472   22.727388 C.3        1 MOL1         0.1270
       6    H4      20.348979   18.038251   23.618255 H          1 MOL1         0.0960
       7    C2      18.241244   17.940602   23.172832 C.3        1 MOL1        -0.2382
       8    H5      17.570134   17.862506   22.308437 H          1 MOL1         0.1009
       9    H6      17.951196   18.828864   23.744368 H          1 MOL1         0.1009
      10    H7      18.071875   17.066208   23.813049 H          1 MOL1         0.1009
      11    C3      20.000303   19.280512   21.890322 C.3        1 MOL1        -0.1392
      12    H8      20.686530   19.024947   21.072122 H          1 MOL1         0.0998
      13    H9      19.081297   19.635397   21.405041 H          1 MOL1         0.0998
      14    C4      20.654233   20.429907   22.698436 C.3        1 MOL1        -0.1302
      15    H10     20.890018   21.253118   22.009479 H          1 MOL1         0.0998
      16    H11     21.615951   20.090103   23.107962 H          1 MOL1         0.0998
      17    C5      19.774395   20.977490   23.843981 C.3        1 MOL1        -0.2317
      18    H12     18.788364   21.286508   23.473468 H          1 MOL1         0.1009
      19    H13     20.247847   21.853701   24.305650 H          1 MOL1         0.1009
      20    H14     19.631775   20.228719   24.633052 H          1 MOL1         0.1009
@<TRIPOS>BOND
    1     1     2    1
    2     1     3    1
    3     1     4    1
    4     1     5    1
    5     5     6    1
    6     5     7    1
    7     7     8    1
    8     7     9    1
    9     7    10    1
   10     5    11    1
   11    11    12    1
   12    11    13    1
   13    11    14    1
   14    14    15    1
   15    14    16    1
   16    14    17    1
   17    17    18    1
   18    17    19    1
   19    17    20    1
@<TRIPOS>SUBSTRUCTURE
       1 MOL1            1 RESIDUE      1      MOL     
@<SCITEGIC>MOL_PROPERTY
VConf Rank
SciTegic.value.IntegerValue
407

@<SCITEGIC>MOL_PROPERTY
Conf_Id
SciTegic.value.IntegerValue
3

@<SCITEGIC>MOL_PROPERTY
Delta U+W
SciTegic.value.DoubleValue
3.093

@<SCITEGIC>MOL_PROPERTY
U+W
SciTegic.value.DoubleValue
-33.184

@<SCITEGIC>MOL_PROPERTY
Grad RMS
SciTegic.value.DoubleValue
0.000000

@<SCITEGIC>MOL_PROPERTY
U
SciTegic.value.DoubleValue
25.256

@<SCITEGIC>MOL_PROPERTY
W
SciTegic.value.DoubleValue
-58.439

@<SCITEGIC>MOL_PROPERTY
W(PB)
SciTegic.value.DoubleValue
-60.337

@<SCITEGIC>MOL_PROPERTY
W(SA)
SciTegic.value.DoubleValue
1.898

@<SCITEGIC>MOL_PROPERTY
Valence
SciTegic.value.DoubleValue
4.963

@<SCITEGIC>MOL_PROPERTY
Coulomb
SciTegic.value.DoubleValue
19.511

@<SCITEGIC>MOL_PROPERTY
VdW
SciTegic.value.DoubleValue
0.782

@<SCITEGIC>MOL_PROPERTY
VdW6
SciTegic.value.DoubleValue
-5.429

@<SCITEGIC>MOL_PROPERTY
VdW12
SciTegic.value.DoubleValue
6.211

@<SCITEGIC>MOL_PROPERTY
Bond
SciTegic.value.DoubleValue
0.174

@<SCITEGIC>MOL_PROPERTY
Angle
SciTegic.value.DoubleValue
1.377

@<SCITEGIC>MOL_PROPERTY
Pdih
SciTegic.value.DoubleValue
3.412

@<SCITEGIC>MOL_PROPERTY
Idih
SciTegic.value.DoubleValue
0.000

@<SCITEGIC>MOL_PROPERTY
Tether
SciTegic.value.DoubleValue
0.000

@<TRIPOS>MOLECULE
guest-s10_confgen4.mol2 : confsearch ligand conformer 408
          20          19           1
SMALL
USER_CHARGES
 
@<TRIPOS>ATOM
       1    N1      20.890085   17.049165   23.163323 N.4        1 MOL1        -0.5937
       2    H1      20.834013   16.214460   22.573611 H          1 MOL1         0.3684
       3    H2      20.597052   16.774399   24.104846 H          1 MOL1         0.3684
       4    H3      21.875654   17.318605   23.215668 H          1 MOL1         0.3684
       5    C1      20.040168   18.165201   22.620658 C.3        1 MOL1         0.1270
       6    H4      19.014103   17.786015   22.598212 H          1 MOL1         0.0960
       7    C2      20.463070   18.508832   21.180806 C.3        1 MOL1        -0.2382
       8    H5      19.767517   19.220488   20.721146 H          1 MOL1         0.1009
       9    H6      20.467661   17.608806   20.553857 H          1 MOL1         0.1009
      10    H7      21.468908   18.946052   21.155955 H          1 MOL1         0.1009
      11    C3      20.080876   19.402400   23.549157 C.3        1 MOL1        -0.1392
      12    H8      19.849384   19.080909   24.573160 H          1 MOL1         0.0998
      13    H9      21.103710   19.800703   23.579162 H          1 MOL1         0.0998
      14    C4      19.104481   20.543170   23.163933 C.3        1 MOL1        -0.1302
      15    H10     19.390492   20.980357   22.197838 H          1 MOL1         0.0998
      16    H11     19.201931   21.353260   23.900205 H          1 MOL1         0.0998
      17    C5      17.628602   20.086570   23.114447 C.3        1 MOL1        -0.2317
      18    H12     17.320192   19.642810   24.070019 H          1 MOL1         0.1009
      19    H13     17.461919   19.346027   22.322060 H          1 MOL1         0.1009
      20    H14     16.968489   20.940235   22.913143 H          1 MOL1         0.1009
@<TRIPOS>BOND
    1     1     2    1
    2     1     3    1
    3     1     4    1
    4     1     5    1
    5     5     6    1
    6     5     7    1
    7     7     8    1
    8     7     9    1
    9     7    10    1
   10     5    11    1
   11    11    12    1
   12    11    13    1
   13    11    14    1
   14    14    15    1
   15    14    16    1
   16    14    17    1
   17    17    18    1
   18    17    19    1
   19    17    20    1
@<TRIPOS>SUBSTRUCTURE
       1 MOL1            1 RESIDUE      1      MOL     
@<SCITEGIC>MOL_PROPERTY
VConf Rank
SciTegic.value.IntegerValue
408

@<SCITEGIC>MOL_PROPERTY
Conf_Id
SciTegic.value.IntegerValue
64

@<SCITEGIC>MOL_PROPERTY
Delta U+W
SciTegic.value.DoubleValue
0.544

@<SCITEGIC>MOL_PROPERTY
U+W
SciTegic.value.DoubleValue
-35.732

@<SCITEGIC>MOL_PROPERTY
Grad RMS
SciTegic.value.DoubleValue
0.000000

@<SCITEGIC>MOL_PROPERTY
U
SciTegic.value.DoubleValue
22.800

@<SCITEGIC>MOL_PROPERTY
W
SciTegic.value.DoubleValue
-58.532

@<SCITEGIC>MOL_PROPERTY
W(PB)
SciTegic.value.DoubleValue
-60.437

@<SCITEGIC>MOL_PROPERTY
W(SA)
SciTegic.value.DoubleValue
1.905

@<SCITEGIC>MOL_PROPERTY
Valence
SciTegic.value.DoubleValue
2.662

@<SCITEGIC>MOL_PROPERTY
Coulomb
SciTegic.value.DoubleValue
19.485

@<SCITEGIC>MOL_PROPERTY
VdW
SciTegic.value.DoubleValue
0.653

@<SCITEGIC>MOL_PROPERTY
VdW6
SciTegic.value.DoubleValue
-5.460

@<SCITEGIC>MOL_PROPERTY
VdW12
SciTegic.value.DoubleValue
6.113

@<SCITEGIC>MOL_PROPERTY
Bond
SciTegic.value.DoubleValue
0.174

@<SCITEGIC>MOL_PROPERTY
Angle
SciTegic.value.DoubleValue
1.378

@<SCITEGIC>MOL_PROPERTY
Pdih
SciTegic.value.DoubleValue
1.109

@<SCITEGIC>MOL_PROPERTY
Idih
SciTegic.value.DoubleValue
0.000

@<SCITEGIC>MOL_PROPERTY
Tether
SciTegic.value.DoubleValue
0.000

@<TRIPOS>MOLECULE
guest-s10_confgen4.mol2 : confsearch ligand conformer 409
          20          19           1
SMALL
USER_CHARGES
 
@<TRIPOS>ATOM
       1    N1      20.037574   21.017165   22.714230 N.4        1 MOL1        -0.5937
       2    H1      20.748743   20.724811   22.040405 H          1 MOL1         0.3684
       3    H2      20.481482   21.674267   23.361360 H          1 MOL1         0.3684
       4    H3      19.321057   21.535793   22.199169 H          1 MOL1         0.3684
       5    C1      19.451322   19.838214   23.443075 C.3        1 MOL1         0.1270
       6    H4      18.717269   20.252857   24.141073 H          1 MOL1         0.0960
       7    C2      20.524693   19.120968   24.278034 C.3        1 MOL1        -0.2382
       8    H5      21.365800   18.794320   23.655500 H          1 MOL1         0.1009
       9    H6      20.104021   18.244205   24.785635 H          1 MOL1         0.1009
      10    H7      20.922061   19.792506   25.048816 H          1 MOL1         0.1009
      11    C3      18.683615   18.881975   22.495882 C.3        1 MOL1        -0.1392
      12    H8      18.133094   18.142779   23.092551 H          1 MOL1         0.0998
      13    H9      17.911438   19.474236   21.987502 H          1 MOL1         0.0998
      14    C4      19.533009   18.158595   21.413996 C.3        1 MOL1        -0.1302
      15    H10     20.385995   18.777784   21.106754 H          1 MOL1         0.0998
      16    H11     18.914202   18.034548   20.514178 H          1 MOL1         0.0998
      17    C5      20.021715   16.756403   21.847323 C.3        1 MOL1        -0.2317
      18    H12     20.685261   16.800301   22.717816 H          1 MOL1         0.1009
      19    H13     20.577784   16.275588   21.032112 H          1 MOL1         0.1009
      20    H14     19.174480   16.105629   22.099767 H          1 MOL1         0.1009
@<TRIPOS>BOND
    1     1     2    1
    2     1     3    1
    3     1     4    1
    4     1     5    1
    5     5     6    1
    6     5     7    1
    7     7     8    1
    8     7     9    1
    9     7    10    1
   10     5    11    1
   11    11    12    1
   12    11    13    1
   13    11    14    1
   14    14    15    1
   15    14    16    1
   16    14    17    1
   17    17    18    1
   18    17    19    1
   19    17    20    1
@<TRIPOS>SUBSTRUCTURE
       1 MOL1            1 RESIDUE      1      MOL     
@<SCITEGIC>MOL_PROPERTY
VConf Rank
SciTegic.value.IntegerValue
409

@<SCITEGIC>MOL_PROPERTY
Conf_Id
SciTegic.value.IntegerValue
35

@<SCITEGIC>MOL_PROPERTY
Delta U+W
SciTegic.value.DoubleValue
3.004

@<SCITEGIC>MOL_PROPERTY
U+W
SciTegic.value.DoubleValue
-33.272

@<SCITEGIC>MOL_PROPERTY
Grad RMS
SciTegic.value.DoubleValue
0.000000

@<SCITEGIC>MOL_PROPERTY
U
SciTegic.value.DoubleValue
25.367

@<SCITEGIC>MOL_PROPERTY
W
SciTegic.value.DoubleValue
-58.639

@<SCITEGIC>MOL_PROPERTY
W(PB)
SciTegic.value.DoubleValue
-60.512

@<SCITEGIC>MOL_PROPERTY
W(SA)
SciTegic.value.DoubleValue
1.873

@<SCITEGIC>MOL_PROPERTY
Valence
SciTegic.value.DoubleValue
4.943

@<SCITEGIC>MOL_PROPERTY
Coulomb
SciTegic.value.DoubleValue
19.661

@<SCITEGIC>MOL_PROPERTY
VdW
SciTegic.value.DoubleValue
0.764

@<SCITEGIC>MOL_PROPERTY
VdW6
SciTegic.value.DoubleValue
-5.871

@<SCITEGIC>MOL_PROPERTY
VdW12
SciTegic.value.DoubleValue
6.636

@<SCITEGIC>MOL_PROPERTY
Bond
SciTegic.value.DoubleValue
0.230

@<SCITEGIC>MOL_PROPERTY
Angle
SciTegic.value.DoubleValue
1.857

@<SCITEGIC>MOL_PROPERTY
Pdih
SciTegic.value.DoubleValue
2.855

@<SCITEGIC>MOL_PROPERTY
Idih
SciTegic.value.DoubleValue
0.000

@<SCITEGIC>MOL_PROPERTY
Tether
SciTegic.value.DoubleValue
0.000

@<TRIPOS>MOLECULE
guest-s10_confgen4.mol2 : confsearch ligand conformer 410
          20          19           1
SMALL
USER_CHARGES
 
@<TRIPOS>ATOM
       1    N1      20.315037   20.485617   21.911606 N.4        1 MOL1        -0.5937
       2    H1      20.837331   21.333072   22.149579 H          1 MOL1         0.3684
       3    H2      19.773461   20.688636   21.067177 H          1 MOL1         0.3684
       4    H3      20.993636   19.760056   21.672732 H          1 MOL1         0.3684
       5    C1      19.426567   20.048568   23.043892 C.3        1 MOL1         0.1270
       6    H4      18.728906   20.877227   23.200482 H          1 MOL1         0.0960
       7    C2      20.225089   19.869606   24.347290 C.3        1 MOL1        -0.2382
       8    H5      21.013054   19.114830   24.239039 H          1 MOL1         0.1009
       9    H6      19.565389   19.563505   25.168580 H          1 MOL1         0.1009
      10    H7      20.702322   20.813316   24.638198 H          1 MOL1         0.1009
      11    C3      18.571737   18.802198   22.698728 C.3        1 MOL1        -0.1392
      12    H8      17.753748   18.747673   23.429113 H          1 MOL1         0.0998
      13    H9      18.084476   18.963066   21.728204 H          1 MOL1         0.0998
      14    C4      19.291596   17.424411   22.688569 C.3        1 MOL1        -0.1302
      15    H10     18.540957   16.651179   22.472983 H          1 MOL1         0.0998
      16    H11     19.677524   17.188824   23.689664 H          1 MOL1         0.0998
      17    C5      20.429292   17.298346   21.649975 C.3        1 MOL1        -0.2317
      18    H12     20.094315   17.610718   20.652300 H          1 MOL1         0.1009
      19    H13     20.762922   16.255019   21.576976 H          1 MOL1         0.1009
      20    H14     21.303250   17.895678   21.933983 H          1 MOL1         0.1009
@<TRIPOS>BOND
    1     1     2    1
    2     1     3    1
    3     1     4    1
    4     1     5    1
    5     5     6    1
    6     5     7    1
    7     7     8    1
    8     7     9    1
    9     7    10    1
   10     5    11    1
   11    11    12    1
   12    11    13    1
   13    11    14    1
   14    14    15    1
   15    14    16    1
   16    14    17    1
   17    17    18    1
   18    17    19    1
   19    17    20    1
@<TRIPOS>SUBSTRUCTURE
       1 MOL1            1 RESIDUE      1      MOL     
@<SCITEGIC>MOL_PROPERTY
VConf Rank
SciTegic.value.IntegerValue
410

@<SCITEGIC>MOL_PROPERTY
Conf_Id
SciTegic.value.IntegerValue
55

@<SCITEGIC>MOL_PROPERTY
Delta U+W
SciTegic.value.DoubleValue
2.767

@<SCITEGIC>MOL_PROPERTY
U+W
SciTegic.value.DoubleValue
-33.509

@<SCITEGIC>MOL_PROPERTY
Grad RMS
SciTegic.value.DoubleValue
0.000000

@<SCITEGIC>MOL_PROPERTY
U
SciTegic.value.DoubleValue
24.552

@<SCITEGIC>MOL_PROPERTY
W
SciTegic.value.DoubleValue
-58.061

@<SCITEGIC>MOL_PROPERTY
W(PB)
SciTegic.value.DoubleValue
-59.930

@<SCITEGIC>MOL_PROPERTY
W(SA)
SciTegic.value.DoubleValue
1.869

@<SCITEGIC>MOL_PROPERTY
Valence
SciTegic.value.DoubleValue
3.726

@<SCITEGIC>MOL_PROPERTY
Coulomb
SciTegic.value.DoubleValue
20.219

@<SCITEGIC>MOL_PROPERTY
VdW
SciTegic.value.DoubleValue
0.606

@<SCITEGIC>MOL_PROPERTY
VdW6
SciTegic.value.DoubleValue
-6.395

@<SCITEGIC>MOL_PROPERTY
VdW12
SciTegic.value.DoubleValue
7.001

@<SCITEGIC>MOL_PROPERTY
Bond
SciTegic.value.DoubleValue
0.241

@<SCITEGIC>MOL_PROPERTY
Angle
SciTegic.value.DoubleValue
2.098

@<SCITEGIC>MOL_PROPERTY
Pdih
SciTegic.value.DoubleValue
1.387

@<SCITEGIC>MOL_PROPERTY
Idih
SciTegic.value.DoubleValue
0.000

@<SCITEGIC>MOL_PROPERTY
Tether
SciTegic.value.DoubleValue
0.000

@<TRIPOS>MOLECULE
guest-s10_confgen4.mol2 : confsearch ligand conformer 411
          20          19           1
SMALL
USER_CHARGES
 
@<TRIPOS>ATOM
       1    N1      20.551823   17.314415   23.456079 N.4        1 MOL1        -0.5937
       2    H1      21.528267   17.542398   23.253283 H          1 MOL1         0.3684
       3    H2      20.482779   16.295014   23.516987 H          1 MOL1         0.3684
       4    H3      20.334448   17.689371   24.382760 H          1 MOL1         0.3684
       5    C1      19.626792   17.867331   22.405526 C.3        1 MOL1         0.1270
       6    H4      18.611335   17.583851   22.699420 H          1 MOL1         0.0960
       7    C2      19.925443   17.235144   21.036177 C.3        1 MOL1        -0.2382
       8    H5      19.845224   16.142327   21.086975 H          1 MOL1         0.1009
       9    H6      20.936659   17.488031   20.693712 H          1 MOL1         0.1009
      10    H7      19.211418   17.585664   20.280570 H          1 MOL1         0.1009
      11    C3      19.689532   19.407863   22.310800 C.3        1 MOL1        -0.1392
      12    H8      20.706701   19.720587   22.039716 H          1 MOL1         0.0998
      13    H9      19.032659   19.739591   21.495606 H          1 MOL1         0.0998
      14    C4      19.256451   20.113260   23.618613 C.3        1 MOL1        -0.1302
      15    H10     19.933916   19.841167   24.439243 H          1 MOL1         0.0998
      16    H11     18.252429   19.772279   23.908291 H          1 MOL1         0.0998
      17    C5      19.249089   21.649100   23.462265 C.3        1 MOL1        -0.2317
      18    H12     20.247452   22.024402   23.202122 H          1 MOL1         0.1009
      19    H13     18.941309   22.132666   24.398491 H          1 MOL1         0.1009
      20    H14     18.550280   21.963464   22.676088 H          1 MOL1         0.1009
@<TRIPOS>BOND
    1     1     2    1
    2     1     3    1
    3     1     4    1
    4     1     5    1
    5     5     6    1
    6     5     7    1
    7     7     8    1
    8     7     9    1
    9     7    10    1
   10     5    11    1
   11    11    12    1
   12    11    13    1
   13    11    14    1
   14    14    15    1
   15    14    16    1
   16    14    17    1
   17    17    18    1
   18    17    19    1
   19    17    20    1
@<TRIPOS>SUBSTRUCTURE
       1 MOL1            1 RESIDUE      1      MOL     
@<SCITEGIC>MOL_PROPERTY
VConf Rank
SciTegic.value.IntegerValue
411

@<SCITEGIC>MOL_PROPERTY
Conf_Id
SciTegic.value.IntegerValue
74

@<SCITEGIC>MOL_PROPERTY
Delta U+W
SciTegic.value.DoubleValue
0.000

@<SCITEGIC>MOL_PROPERTY
U+W
SciTegic.value.DoubleValue
-36.276

@<SCITEGIC>MOL_PROPERTY
Grad RMS
SciTegic.value.DoubleValue
0.000000

@<SCITEGIC>MOL_PROPERTY
U
SciTegic.value.DoubleValue
22.080

@<SCITEGIC>MOL_PROPERTY
W
SciTegic.value.DoubleValue
-58.356

@<SCITEGIC>MOL_PROPERTY
W(PB)
SciTegic.value.DoubleValue
-60.289

@<SCITEGIC>MOL_PROPERTY
W(SA)
SciTegic.value.DoubleValue
1.932

@<SCITEGIC>MOL_PROPERTY
Valence
SciTegic.value.DoubleValue
1.885

@<SCITEGIC>MOL_PROPERTY
Coulomb
SciTegic.value.DoubleValue
19.559

@<SCITEGIC>MOL_PROPERTY
VdW
SciTegic.value.DoubleValue
0.637

@<SCITEGIC>MOL_PROPERTY
VdW6
SciTegic.value.DoubleValue
-4.482

@<SCITEGIC>MOL_PROPERTY
VdW12
SciTegic.value.DoubleValue
5.119

@<SCITEGIC>MOL_PROPERTY
Bond
SciTegic.value.DoubleValue
0.136

@<SCITEGIC>MOL_PROPERTY
Angle
SciTegic.value.DoubleValue
0.867

@<SCITEGIC>MOL_PROPERTY
Pdih
SciTegic.value.DoubleValue
0.882

@<SCITEGIC>MOL_PROPERTY
Idih
SciTegic.value.DoubleValue
0.000

@<SCITEGIC>MOL_PROPERTY
Tether
SciTegic.value.DoubleValue
0.000

@<TRIPOS>MOLECULE
guest-s10_confgen4.mol2 : confsearch ligand conformer 412
          20          19           1
SMALL
USER_CHARGES
 
@<TRIPOS>ATOM
       1    N1      20.784538   16.877741   23.353909 N.4        1 MOL1        -0.5937
       2    H1      21.685250   17.203898   23.714737 H          1 MOL1         0.3684
       3    H2      20.947567   16.504312   22.415453 H          1 MOL1         0.3684
       4    H3      20.487484   16.096478   23.944727 H          1 MOL1         0.3684
       5    C1      19.759775   17.978714   23.340362 C.3        1 MOL1         0.1270
       6    H4      19.650477   18.310653   24.377539 H          1 MOL1         0.0960
       7    C2      18.401461   17.437863   22.857389 C.3        1 MOL1        -0.2382
       8    H5      18.108091   16.555371   23.439080 H          1 MOL1         0.1009
       9    H6      18.442100   17.149483   21.799673 H          1 MOL1         0.1009
      10    H7      17.608060   18.183958   22.980195 H          1 MOL1         0.1009
      11    C3      20.241987   19.181321   22.496148 C.3        1 MOL1        -0.1392
      12    H8      21.257078   19.447686   22.819106 H          1 MOL1         0.0998
      13    H9      20.319342   18.885447   21.441480 H          1 MOL1         0.0998
      14    C4      19.341751   20.434707   22.621686 C.3        1 MOL1        -0.1302
      15    H10     19.212710   20.693726   23.682029 H          1 MOL1         0.0998
      16    H11     18.340936   20.227001   22.220277 H          1 MOL1         0.0998
      17    C5      19.939379   21.643052   21.869074 C.3        1 MOL1        -0.2317
      18    H12     20.925327   21.911336   22.270532 H          1 MOL1         0.1009
      19    H13     19.287279   22.520884   21.965330 H          1 MOL1         0.1009
      20    H14     20.053863   21.424611   20.799291 H          1 MOL1         0.1009
@<TRIPOS>BOND
    1     1     2    1
    2     1     3    1
    3     1     4    1
    4     1     5    1
    5     5     6    1
    6     5     7    1
    7     7     8    1
    8     7     9    1
    9     7    10    1
   10     5    11    1
   11    11    12    1
   12    11    13    1
   13    11    14    1
   14    14    15    1
   15    14    16    1
   16    14    17    1
   17    17    18    1
   18    17    19    1
   19    17    20    1
@<TRIPOS>SUBSTRUCTURE
       1 MOL1            1 RESIDUE      1      MOL     
@<SCITEGIC>MOL_PROPERTY
VConf Rank
SciTegic.value.IntegerValue
412

@<SCITEGIC>MOL_PROPERTY
Conf_Id
SciTegic.value.IntegerValue
80

@<SCITEGIC>MOL_PROPERTY
Delta U+W
SciTegic.value.DoubleValue
0.460

@<SCITEGIC>MOL_PROPERTY
U+W
SciTegic.value.DoubleValue
-35.817

@<SCITEGIC>MOL_PROPERTY
Grad RMS
SciTegic.value.DoubleValue
0.000000

@<SCITEGIC>MOL_PROPERTY
U
SciTegic.value.DoubleValue
22.495

@<SCITEGIC>MOL_PROPERTY
W
SciTegic.value.DoubleValue
-58.311

@<SCITEGIC>MOL_PROPERTY
W(PB)
SciTegic.value.DoubleValue
-60.259

@<SCITEGIC>MOL_PROPERTY
W(SA)
SciTegic.value.DoubleValue
1.948

@<SCITEGIC>MOL_PROPERTY
Valence
SciTegic.value.DoubleValue
2.419

@<SCITEGIC>MOL_PROPERTY
Coulomb
SciTegic.value.DoubleValue
19.304

@<SCITEGIC>MOL_PROPERTY
VdW
SciTegic.value.DoubleValue
0.772

@<SCITEGIC>MOL_PROPERTY
VdW6
SciTegic.value.DoubleValue
-4.635

@<SCITEGIC>MOL_PROPERTY
VdW12
SciTegic.value.DoubleValue
5.407

@<SCITEGIC>MOL_PROPERTY
Bond
SciTegic.value.DoubleValue
0.149

@<SCITEGIC>MOL_PROPERTY
Angle
SciTegic.value.DoubleValue
1.142

@<SCITEGIC>MOL_PROPERTY
Pdih
SciTegic.value.DoubleValue
1.129

@<SCITEGIC>MOL_PROPERTY
Idih
SciTegic.value.DoubleValue
0.000

@<SCITEGIC>MOL_PROPERTY
Tether
SciTegic.value.DoubleValue
0.000

@<TRIPOS>MOLECULE
guest-s10_confgen4.mol2 : confsearch ligand conformer 413
          20          19           1
SMALL
USER_CHARGES
 
@<TRIPOS>ATOM
       1    N1      20.008350   21.072086   21.768798 N.4        1 MOL1        -0.5937
       2    H1      20.753941   21.596219   22.234834 H          1 MOL1         0.3684
       3    H2      19.116601   21.427396   22.122675 H          1 MOL1         0.3684
       4    H3      20.053886   21.302833   20.772657 H          1 MOL1         0.3684
       5    C1      20.142714   19.591463   21.997823 C.3        1 MOL1         0.1270
       6    H4      21.114962   19.304779   21.585094 H          1 MOL1         0.0960
       7    C2      19.052011   18.831881   21.223446 C.3        1 MOL1        -0.2382
       8    H5      19.022959   19.156579   20.176130 H          1 MOL1         0.1009
       9    H6      18.060653   19.002820   21.660988 H          1 MOL1         0.1009
      10    H7      19.251297   17.754254   21.220009 H          1 MOL1         0.1009
      11    C3      20.147095   19.261304   23.510539 C.3        1 MOL1        -0.1392
      12    H8      20.928345   19.874337   23.979081 H          1 MOL1         0.0998
      13    H9      19.202312   19.579221   23.971019 H          1 MOL1         0.0998
      14    C4      20.440419   17.777497   23.856835 C.3        1 MOL1        -0.1302
      15    H10     21.049600   17.745023   24.771144 H          1 MOL1         0.0998
      16    H11     21.053652   17.315498   23.070407 H          1 MOL1         0.0998
      17    C5      19.163770   16.940280   24.106371 C.3        1 MOL1        -0.2317
      18    H12     18.582349   17.351727   24.941702 H          1 MOL1         0.1009
      19    H13     19.426960   15.905907   24.362861 H          1 MOL1         0.1009
      20    H14     18.511960   16.907952   23.226235 H          1 MOL1         0.1009
@<TRIPOS>BOND
    1     1     2    1
    2     1     3    1
    3     1     4    1
    4     1     5    1
    5     5     6    1
    6     5     7    1
    7     7     8    1
    8     7     9    1
    9     7    10    1
   10     5    11    1
   11    11    12    1
   12    11    13    1
   13    11    14    1
   14    14    15    1
   15    14    16    1
   16    14    17    1
   17    17    18    1
   18    17    19    1
   19    17    20    1
@<TRIPOS>SUBSTRUCTURE
       1 MOL1            1 RESIDUE      1      MOL     
@<SCITEGIC>MOL_PROPERTY
VConf Rank
SciTegic.value.IntegerValue
413

@<SCITEGIC>MOL_PROPERTY
Conf_Id
SciTegic.value.IntegerValue
52

@<SCITEGIC>MOL_PROPERTY
Delta U+W
SciTegic.value.DoubleValue
2.995

@<SCITEGIC>MOL_PROPERTY
U+W
SciTegic.value.DoubleValue
-33.282

@<SCITEGIC>MOL_PROPERTY
Grad RMS
SciTegic.value.DoubleValue
0.000000

@<SCITEGIC>MOL_PROPERTY
U
SciTegic.value.DoubleValue
25.224

@<SCITEGIC>MOL_PROPERTY
W
SciTegic.value.DoubleValue
-58.506

@<SCITEGIC>MOL_PROPERTY
W(PB)
SciTegic.value.DoubleValue
-60.411

@<SCITEGIC>MOL_PROPERTY
W(SA)
SciTegic.value.DoubleValue
1.905

@<SCITEGIC>MOL_PROPERTY
Valence
SciTegic.value.DoubleValue
4.945

@<SCITEGIC>MOL_PROPERTY
Coulomb
SciTegic.value.DoubleValue
19.467

@<SCITEGIC>MOL_PROPERTY
VdW
SciTegic.value.DoubleValue
0.813

@<SCITEGIC>MOL_PROPERTY
VdW6
SciTegic.value.DoubleValue
-5.458

@<SCITEGIC>MOL_PROPERTY
VdW12
SciTegic.value.DoubleValue
6.270

@<SCITEGIC>MOL_PROPERTY
Bond
SciTegic.value.DoubleValue
0.200

@<SCITEGIC>MOL_PROPERTY
Angle
SciTegic.value.DoubleValue
1.675

@<SCITEGIC>MOL_PROPERTY
Pdih
SciTegic.value.DoubleValue
3.070

@<SCITEGIC>MOL_PROPERTY
Idih
SciTegic.value.DoubleValue
0.000

@<SCITEGIC>MOL_PROPERTY
Tether
SciTegic.value.DoubleValue
0.000

@<TRIPOS>MOLECULE
guest-s10_confgen4.mol2 : confsearch ligand conformer 414
          20          19           1
SMALL
USER_CHARGES
 
@<TRIPOS>ATOM
       1    N1      20.261241   20.052909   21.604659 N.4        1 MOL1        -0.5937
       2    H1      21.281963   20.026690   21.666423 H          1 MOL1         0.3684
       3    H2      20.004893   20.930783   21.145017 H          1 MOL1         0.3684
       4    H3      19.972119   19.287401   20.991968 H          1 MOL1         0.3684
       5    C1      19.626313   19.934568   22.963376 C.3        1 MOL1         0.1270
       6    H4      18.544376   20.019080   22.821938 H          1 MOL1         0.0960
       7    C2      20.086706   21.098486   23.857296 C.3        1 MOL1        -0.2382
       8    H5      21.166811   21.052161   24.044612 H          1 MOL1         0.1009
       9    H6      19.570621   21.076212   24.825183 H          1 MOL1         0.1009
      10    H7      19.862543   22.063174   23.385635 H          1 MOL1         0.1009
      11    C3      19.922566   18.578850   23.647845 C.3        1 MOL1        -0.1392
      12    H8      20.993627   18.348550   23.574608 H          1 MOL1         0.0998
      13    H9      19.709412   18.674629   24.720914 H          1 MOL1         0.0998
      14    C4      19.082349   17.386447   23.119813 C.3        1 MOL1        -0.1302
      15    H10     18.012071   17.605584   23.240301 H          1 MOL1         0.0998
      16    H11     19.286100   16.515156   23.758065 H          1 MOL1         0.0998
      17    C5      19.365958   16.991441   21.652590 C.3        1 MOL1        -0.2317
      18    H12     18.890585   16.029399   21.420682 H          1 MOL1         0.1009
      19    H13     20.442868   16.882214   21.469147 H          1 MOL1         0.1009
      20    H14     18.957271   17.726535   20.949702 H          1 MOL1         0.1009
@<TRIPOS>BOND
    1     1     2    1
    2     1     3    1
    3     1     4    1
    4     1     5    1
    5     5     6    1
    6     5     7    1
    7     7     8    1
    8     7     9    1
    9     7    10    1
   10     5    11    1
   11    11    12    1
   12    11    13    1
   13    11    14    1
   14    14    15    1
   15    14    16    1
   16    14    17    1
   17    17    18    1
   18    17    19    1
   19    17    20    1
@<TRIPOS>SUBSTRUCTURE
       1 MOL1            1 RESIDUE      1      MOL     
@<SCITEGIC>MOL_PROPERTY
VConf Rank
SciTegic.value.IntegerValue
414

@<SCITEGIC>MOL_PROPERTY
Conf_Id
SciTegic.value.IntegerValue
54

@<SCITEGIC>MOL_PROPERTY
Delta U+W
SciTegic.value.DoubleValue
2.752

@<SCITEGIC>MOL_PROPERTY
U+W
SciTegic.value.DoubleValue
-33.525

@<SCITEGIC>MOL_PROPERTY
Grad RMS
SciTegic.value.DoubleValue
0.000000

@<SCITEGIC>MOL_PROPERTY
U
SciTegic.value.DoubleValue
24.337

@<SCITEGIC>MOL_PROPERTY
W
SciTegic.value.DoubleValue
-57.862

@<SCITEGIC>MOL_PROPERTY
W(PB)
SciTegic.value.DoubleValue
-59.764

@<SCITEGIC>MOL_PROPERTY
W(SA)
SciTegic.value.DoubleValue
1.901

@<SCITEGIC>MOL_PROPERTY
Valence
SciTegic.value.DoubleValue
3.593

@<SCITEGIC>MOL_PROPERTY
Coulomb
SciTegic.value.DoubleValue
20.067

@<SCITEGIC>MOL_PROPERTY
VdW
SciTegic.value.DoubleValue
0.677

@<SCITEGIC>MOL_PROPERTY
VdW6
SciTegic.value.DoubleValue
-5.466

@<SCITEGIC>MOL_PROPERTY
VdW12
SciTegic.value.DoubleValue
6.144

@<SCITEGIC>MOL_PROPERTY
Bond
SciTegic.value.DoubleValue
0.191

@<SCITEGIC>MOL_PROPERTY
Angle
SciTegic.value.DoubleValue
1.557

@<SCITEGIC>MOL_PROPERTY
Pdih
SciTegic.value.DoubleValue
1.845

@<SCITEGIC>MOL_PROPERTY
Idih
SciTegic.value.DoubleValue
0.000

@<SCITEGIC>MOL_PROPERTY
Tether
SciTegic.value.DoubleValue
0.000

@<TRIPOS>MOLECULE
guest-s10_confgen4.mol2 : confsearch ligand conformer 415
          20          19           1
SMALL
USER_CHARGES
 
@<TRIPOS>ATOM
       1    N1      18.516882   17.316187   22.908448 N.4        1 MOL1        -0.5937
       2    H1      18.252550   16.416356   22.498463 H          1 MOL1         0.3684
       3    H2      17.688635   17.690374   23.379301 H          1 MOL1         0.3684
       4    H3      19.220589   17.129613   23.626386 H          1 MOL1         0.3684
       5    C1      19.035697   18.266281   21.863441 C.3        1 MOL1         0.1270
       6    H4      18.225906   18.389155   21.137381 H          1 MOL1         0.0960
       7    C2      20.239713   17.664038   21.117457 C.3        1 MOL1        -0.2382
       8    H5      20.616052   18.360324   20.357834 H          1 MOL1         0.1009
       9    H6      19.949452   16.738833   20.604788 H          1 MOL1         0.1009
      10    H7      21.062303   17.423459   21.801205 H          1 MOL1         0.1009
      11    C3      19.350089   19.667638   22.439988 C.3        1 MOL1        -0.1392
      12    H8      19.635641   20.332932   21.614409 H          1 MOL1         0.0998
      13    H9      18.425175   20.086438   22.857776 H          1 MOL1         0.0998
      14    C4      20.456734   19.695553   23.525761 C.3        1 MOL1        -0.1302
      15    H10     21.405065   19.328039   23.111498 H          1 MOL1         0.0998
      16    H11     20.190846   19.027166   24.355655 H          1 MOL1         0.0998
      17    C5      20.672729   21.121036   24.077733 C.3        1 MOL1        -0.2317
      18    H12     21.459705   21.125392   24.843054 H          1 MOL1         0.1009
      19    H13     19.754877   21.510505   24.537171 H          1 MOL1         0.1009
      20    H14     20.975437   21.811985   23.280123 H          1 MOL1         0.1009
@<TRIPOS>BOND
    1     1     2    1
    2     1     3    1
    3     1     4    1
    4     1     5    1
    5     5     6    1
    6     5     7    1
    7     7     8    1
    8     7     9    1
    9     7    10    1
   10     5    11    1
   11    11    12    1
   12    11    13    1
   13    11    14    1
   14    14    15    1
   15    14    16    1
   16    14    17    1
   17    17    18    1
   18    17    19    1
   19    17    20    1
@<TRIPOS>SUBSTRUCTURE
       1 MOL1            1 RESIDUE      1      MOL     
@<SCITEGIC>MOL_PROPERTY
VConf Rank
SciTegic.value.IntegerValue
415

@<SCITEGIC>MOL_PROPERTY
Conf_Id
SciTegic.value.IntegerValue
63

@<SCITEGIC>MOL_PROPERTY
Delta U+W
SciTegic.value.DoubleValue
0.420

@<SCITEGIC>MOL_PROPERTY
U+W
SciTegic.value.DoubleValue
-35.856

@<SCITEGIC>MOL_PROPERTY
Grad RMS
SciTegic.value.DoubleValue
0.000000

@<SCITEGIC>MOL_PROPERTY
U
SciTegic.value.DoubleValue
22.625

@<SCITEGIC>MOL_PROPERTY
W
SciTegic.value.DoubleValue
-58.481

@<SCITEGIC>MOL_PROPERTY
W(PB)
SciTegic.value.DoubleValue
-60.400

@<SCITEGIC>MOL_PROPERTY
W(SA)
SciTegic.value.DoubleValue
1.919

@<SCITEGIC>MOL_PROPERTY
Valence
SciTegic.value.DoubleValue
2.404

@<SCITEGIC>MOL_PROPERTY
Coulomb
SciTegic.value.DoubleValue
19.464

@<SCITEGIC>MOL_PROPERTY
VdW
SciTegic.value.DoubleValue
0.757

@<SCITEGIC>MOL_PROPERTY
VdW6
SciTegic.value.DoubleValue
-5.074

@<SCITEGIC>MOL_PROPERTY
VdW12
SciTegic.value.DoubleValue
5.830

@<SCITEGIC>MOL_PROPERTY
Bond
SciTegic.value.DoubleValue
0.172

@<SCITEGIC>MOL_PROPERTY
Angle
SciTegic.value.DoubleValue
1.207

@<SCITEGIC>MOL_PROPERTY
Pdih
SciTegic.value.DoubleValue
1.025

@<SCITEGIC>MOL_PROPERTY
Idih
SciTegic.value.DoubleValue
0.000

@<SCITEGIC>MOL_PROPERTY
Tether
SciTegic.value.DoubleValue
0.000

@<TRIPOS>MOLECULE
guest-s10_confgen4.mol2 : confsearch ligand conformer 416
          20          19           1
SMALL
USER_CHARGES
 
@<TRIPOS>ATOM
       1    N1      21.437529   18.719160   22.756527 N.4        1 MOL1        -0.5937
       2    H1      21.210777   17.808567   23.164301 H          1 MOL1         0.3684
       3    H2      21.882914   19.281094   23.486105 H          1 MOL1         0.3684
       4    H3      22.134487   18.561045   22.023867 H          1 MOL1         0.3684
       5    C1      20.208612   19.395983   22.212605 C.3        1 MOL1         0.1270
       6    H4      19.799858   18.734716   21.442687 H          1 MOL1         0.0960
       7    C2      20.574113   20.733748   21.549050 C.3        1 MOL1        -0.2382
       8    H5      21.313801   20.583216   20.753162 H          1 MOL1         0.1009
       9    H6      20.995052   21.437345   22.278101 H          1 MOL1         0.1009
      10    H7      19.689439   21.199015   21.096831 H          1 MOL1         0.1009
      11    C3      19.124384   19.609832   23.293207 C.3        1 MOL1        -0.1392
      12    H8      19.510570   20.285328   24.068062 H          1 MOL1         0.0998
      13    H9      18.265070   20.122257   22.840517 H          1 MOL1         0.0998
      14    C4      18.627624   18.302923   23.961874 C.3        1 MOL1        -0.1302
      15    H10     17.867169   18.558322   24.713127 H          1 MOL1         0.0998
      16    H11     19.447225   17.823005   24.513687 H          1 MOL1         0.0998
      17    C5      18.019505   17.300275   22.954771 C.3        1 MOL1        -0.2317
      18    H12     17.196688   17.758097   22.390368 H          1 MOL1         0.1009
      19    H13     17.617817   16.423850   23.479741 H          1 MOL1         0.1009
      20    H14     18.768722   16.941355   22.238010 H          1 MOL1         0.1009
@<TRIPOS>BOND
    1     1     2    1
    2     1     3    1
    3     1     4    1
    4     1     5    1
    5     5     6    1
    6     5     7    1
    7     7     8    1
    8     7     9    1
    9     7    10    1
   10     5    11    1
   11    11    12    1
   12    11    13    1
   13    11    14    1
   14    14    15    1
   15    14    16    1
   16    14    17    1
   17    17    18    1
   18    17    19    1
   19    17    20    1
@<TRIPOS>SUBSTRUCTURE
       1 MOL1            1 RESIDUE      1      MOL     
@<SCITEGIC>MOL_PROPERTY
VConf Rank
SciTegic.value.IntegerValue
416

@<SCITEGIC>MOL_PROPERTY
Conf_Id
SciTegic.value.IntegerValue
50

@<SCITEGIC>MOL_PROPERTY
Delta U+W
SciTegic.value.DoubleValue
0.466

@<SCITEGIC>MOL_PROPERTY
U+W
SciTegic.value.DoubleValue
-35.811

@<SCITEGIC>MOL_PROPERTY
Grad RMS
SciTegic.value.DoubleValue
0.000000

@<SCITEGIC>MOL_PROPERTY
U
SciTegic.value.DoubleValue
22.369

@<SCITEGIC>MOL_PROPERTY
W
SciTegic.value.DoubleValue
-58.180

@<SCITEGIC>MOL_PROPERTY
W(PB)
SciTegic.value.DoubleValue
-60.103

@<SCITEGIC>MOL_PROPERTY
W(SA)
SciTegic.value.DoubleValue
1.923

@<SCITEGIC>MOL_PROPERTY
Valence
SciTegic.value.DoubleValue
2.168

@<SCITEGIC>MOL_PROPERTY
Coulomb
SciTegic.value.DoubleValue
19.636

@<SCITEGIC>MOL_PROPERTY
VdW
SciTegic.value.DoubleValue
0.566

@<SCITEGIC>MOL_PROPERTY
VdW6
SciTegic.value.DoubleValue
-5.263

@<SCITEGIC>MOL_PROPERTY
VdW12
SciTegic.value.DoubleValue
5.829

@<SCITEGIC>MOL_PROPERTY
Bond
SciTegic.value.DoubleValue
0.162

@<SCITEGIC>MOL_PROPERTY
Angle
SciTegic.value.DoubleValue
1.066

@<SCITEGIC>MOL_PROPERTY
Pdih
SciTegic.value.DoubleValue
0.939

@<SCITEGIC>MOL_PROPERTY
Idih
SciTegic.value.DoubleValue
0.000

@<SCITEGIC>MOL_PROPERTY
Tether
SciTegic.value.DoubleValue
0.000

@<TRIPOS>MOLECULE
guest-s10_confgen4.mol2 : confsearch ligand conformer 417
          20          19           1
SMALL
USER_CHARGES
 
@<TRIPOS>ATOM
       1    N1      21.315034   17.737821   21.589667 N.4        1 MOL1        -0.5937
       2    H1      21.280689   18.129867   20.644619 H          1 MOL1         0.3684
       3    H2      20.999008   16.766454   21.530962 H          1 MOL1         0.3684
       4    H3      22.298094   17.721207   21.874363 H          1 MOL1         0.3684
       5    C1      20.476419   18.534830   22.552000 C.3        1 MOL1         0.1270
       6    H4      20.884998   19.550092   22.543626 H          1 MOL1         0.0960
       7    C2      20.614742   17.958633   23.973558 C.3        1 MOL1        -0.2382
       8    H5      20.259071   16.921636   24.016014 H          1 MOL1         0.1009
       9    H6      20.040385   18.541044   24.702049 H          1 MOL1         0.1009
      10    H7      21.663496   17.970272   24.294662 H          1 MOL1         0.1009
      11    C3      18.995469   18.607786   22.105127 C.3        1 MOL1        -0.1392
      12    H8      18.925962   18.331056   21.044815 H          1 MOL1         0.0998
      13    H9      18.394837   17.863347   22.644632 H          1 MOL1         0.0998
      14    C4      18.362795   20.014367   22.256904 C.3        1 MOL1        -0.1302
      15    H10     17.344223   19.987156   21.844954 H          1 MOL1         0.0998
      16    H11     18.920538   20.736129   21.643665 H          1 MOL1         0.0998
      17    C5      18.295941   20.523654   23.713748 C.3        1 MOL1        -0.2317
      18    H12     17.780788   19.803196   24.362273 H          1 MOL1         0.1009
      19    H13     17.745040   21.471854   23.763418 H          1 MOL1         0.1009
      20    H14     19.298154   20.705645   24.121274 H          1 MOL1         0.1009
@<TRIPOS>BOND
    1     1     2    1
    2     1     3    1
    3     1     4    1
    4     1     5    1
    5     5     6    1
    6     5     7    1
    7     7     8    1
    8     7     9    1
    9     7    10    1
   10     5    11    1
   11    11    12    1
   12    11    13    1
   13    11    14    1
   14    14    15    1
   15    14    16    1
   16    14    17    1
   17    17    18    1
   18    17    19    1
   19    17    20    1
@<TRIPOS>SUBSTRUCTURE
       1 MOL1            1 RESIDUE      1      MOL     
@<SCITEGIC>MOL_PROPERTY
VConf Rank
SciTegic.value.IntegerValue
417

@<SCITEGIC>MOL_PROPERTY
Conf_Id
SciTegic.value.IntegerValue
3

@<SCITEGIC>MOL_PROPERTY
Delta U+W
SciTegic.value.DoubleValue
3.093

@<SCITEGIC>MOL_PROPERTY
U+W
SciTegic.value.DoubleValue
-33.184

@<SCITEGIC>MOL_PROPERTY
Grad RMS
SciTegic.value.DoubleValue
0.000000

@<SCITEGIC>MOL_PROPERTY
U
SciTegic.value.DoubleValue
25.256

@<SCITEGIC>MOL_PROPERTY
W
SciTegic.value.DoubleValue
-58.439

@<SCITEGIC>MOL_PROPERTY
W(PB)
SciTegic.value.DoubleValue
-60.337

@<SCITEGIC>MOL_PROPERTY
W(SA)
SciTegic.value.DoubleValue
1.898

@<SCITEGIC>MOL_PROPERTY
Valence
SciTegic.value.DoubleValue
4.963

@<SCITEGIC>MOL_PROPERTY
Coulomb
SciTegic.value.DoubleValue
19.511

@<SCITEGIC>MOL_PROPERTY
VdW
SciTegic.value.DoubleValue
0.782

@<SCITEGIC>MOL_PROPERTY
VdW6
SciTegic.value.DoubleValue
-5.429

@<SCITEGIC>MOL_PROPERTY
VdW12
SciTegic.value.DoubleValue
6.211

@<SCITEGIC>MOL_PROPERTY
Bond
SciTegic.value.DoubleValue
0.174

@<SCITEGIC>MOL_PROPERTY
Angle
SciTegic.value.DoubleValue
1.377

@<SCITEGIC>MOL_PROPERTY
Pdih
SciTegic.value.DoubleValue
3.412

@<SCITEGIC>MOL_PROPERTY
Idih
SciTegic.value.DoubleValue
0.000

@<SCITEGIC>MOL_PROPERTY
Tether
SciTegic.value.DoubleValue
0.000

@<TRIPOS>MOLECULE
guest-s10_confgen4.mol2 : confsearch ligand conformer 418
          20          19           1
SMALL
USER_CHARGES
 
@<TRIPOS>ATOM
       1    N1      17.568570   18.082484   22.926219 N.4        1 MOL1        -0.5937
       2    H1      17.323017   17.321040   23.564609 H          1 MOL1         0.3684
       3    H2      17.371769   17.755897   21.976250 H          1 MOL1         0.3684
       4    H3      16.932172   18.859493   23.120999 H          1 MOL1         0.3684
       5    C1      19.006810   18.492889   23.085642 C.3        1 MOL1         0.1270
       6    H4      19.605536   17.604587   22.863060 H          1 MOL1         0.0960
       7    C2      19.285200   18.914958   24.539759 C.3        1 MOL1        -0.2382
       8    H5      20.355369   19.083075   24.707117 H          1 MOL1         0.1009
       9    H6      18.967017   18.130885   25.237702 H          1 MOL1         0.1009
      10    H7      18.748088   19.836691   24.795506 H          1 MOL1         0.1009
      11    C3      19.388054   19.601520   22.075682 C.3        1 MOL1        -0.1392
      12    H8      19.093369   19.276333   21.069233 H          1 MOL1         0.0998
      13    H9      18.800209   20.504332   22.288063 H          1 MOL1         0.0998
      14    C4      20.892947   19.972433   22.046973 C.3        1 MOL1        -0.1302
      15    H10     21.192081   20.427657   23.000683 H          1 MOL1         0.0998
      16    H11     21.049929   20.746657   21.282924 H          1 MOL1         0.0998
      17    C5      21.808201   18.766943   21.733519 C.3        1 MOL1        -0.2317
      18    H12     21.525999   18.293050   20.784338 H          1 MOL1         0.1009
      19    H13     21.760044   18.007679   22.524256 H          1 MOL1         0.1009
      20    H14     22.853926   19.089863   21.648669 H          1 MOL1         0.1009
@<TRIPOS>BOND
    1     1     2    1
    2     1     3    1
    3     1     4    1
    4     1     5    1
    5     5     6    1
    6     5     7    1
    7     7     8    1
    8     7     9    1
    9     7    10    1
   10     5    11    1
   11    11    12    1
   12    11    13    1
   13    11    14    1
   14    14    15    1
   15    14    16    1
   16    14    17    1
   17    17    18    1
   18    17    19    1
   19    17    20    1
@<TRIPOS>SUBSTRUCTURE
       1 MOL1            1 RESIDUE      1      MOL     
@<SCITEGIC>MOL_PROPERTY
VConf Rank
SciTegic.value.IntegerValue
418

@<SCITEGIC>MOL_PROPERTY
Conf_Id
SciTegic.value.IntegerValue
64

@<SCITEGIC>MOL_PROPERTY
Delta U+W
SciTegic.value.DoubleValue
0.544

@<SCITEGIC>MOL_PROPERTY
U+W
SciTegic.value.DoubleValue
-35.732

@<SCITEGIC>MOL_PROPERTY
Grad RMS
SciTegic.value.DoubleValue
0.000000

@<SCITEGIC>MOL_PROPERTY
U
SciTegic.value.DoubleValue
22.800

@<SCITEGIC>MOL_PROPERTY
W
SciTegic.value.DoubleValue
-58.532

@<SCITEGIC>MOL_PROPERTY
W(PB)
SciTegic.value.DoubleValue
-60.437

@<SCITEGIC>MOL_PROPERTY
W(SA)
SciTegic.value.DoubleValue
1.905

@<SCITEGIC>MOL_PROPERTY
Valence
SciTegic.value.DoubleValue
2.662

@<SCITEGIC>MOL_PROPERTY
Coulomb
SciTegic.value.DoubleValue
19.485

@<SCITEGIC>MOL_PROPERTY
VdW
SciTegic.value.DoubleValue
0.653

@<SCITEGIC>MOL_PROPERTY
VdW6
SciTegic.value.DoubleValue
-5.460

@<SCITEGIC>MOL_PROPERTY
VdW12
SciTegic.value.DoubleValue
6.113

@<SCITEGIC>MOL_PROPERTY
Bond
SciTegic.value.DoubleValue
0.174

@<SCITEGIC>MOL_PROPERTY
Angle
SciTegic.value.DoubleValue
1.378

@<SCITEGIC>MOL_PROPERTY
Pdih
SciTegic.value.DoubleValue
1.109

@<SCITEGIC>MOL_PROPERTY
Idih
SciTegic.value.DoubleValue
0.000

@<SCITEGIC>MOL_PROPERTY
Tether
SciTegic.value.DoubleValue
0.000

@<TRIPOS>MOLECULE
guest-s10_confgen4.mol2 : confsearch ligand conformer 419
          20          19           1
SMALL
USER_CHARGES
 
@<TRIPOS>ATOM
       1    N1      20.194347   19.142015   24.759012 N.4        1 MOL1        -0.5937
       2    H1      20.175452   20.114067   24.442735 H          1 MOL1         0.3684
       3    H2      21.033411   19.023668   25.333101 H          1 MOL1         0.3684
       4    H3      19.385819   19.002230   25.370897 H          1 MOL1         0.3684
       5    C1      20.182298   18.184478   23.598061 C.3        1 MOL1         0.1270
       6    H4      20.215602   17.182199   24.036572 H          1 MOL1         0.0960
       7    C2      21.445058   18.351085   22.737013 C.3        1 MOL1        -0.2382
       8    H5      21.549121   19.379383   22.371659 H          1 MOL1         0.1009
       9    H6      21.422158   17.673981   21.874259 H          1 MOL1         0.1009
      10    H7      22.341593   18.113435   23.322434 H          1 MOL1         0.1009
      11    C3      18.873027   18.273477   22.774151 C.3        1 MOL1        -0.1392
      12    H8      18.838325   17.444697   22.054834 H          1 MOL1         0.0998
      13    H9      18.038540   18.091041   23.463956 H          1 MOL1         0.0998
      14    C4      18.612995   19.618769   22.040804 C.3        1 MOL1        -0.1302
      15    H10     19.050887   20.458705   22.595904 H          1 MOL1         0.0998
      16    H11     17.529330   19.801737   22.027593 H          1 MOL1         0.0998
      17    C5      19.111263   19.630883   20.576452 C.3        1 MOL1        -0.2317
      18    H12     20.196477   19.498412   20.507608 H          1 MOL1         0.1009
      19    H13     18.863999   20.586123   20.095470 H          1 MOL1         0.1009
      20    H14     18.634913   18.832558   19.992662 H          1 MOL1         0.1009
@<TRIPOS>BOND
    1     1     2    1
    2     1     3    1
    3     1     4    1
    4     1     5    1
    5     5     6    1
    6     5     7    1
    7     7     8    1
    8     7     9    1
    9     7    10    1
   10     5    11    1
   11    11    12    1
   12    11    13    1
   13    11    14    1
   14    14    15    1
   15    14    16    1
   16    14    17    1
   17    17    18    1
   18    17    19    1
   19    17    20    1
@<TRIPOS>SUBSTRUCTURE
       1 MOL1            1 RESIDUE      1      MOL     
@<SCITEGIC>MOL_PROPERTY
VConf Rank
SciTegic.value.IntegerValue
419

@<SCITEGIC>MOL_PROPERTY
Conf_Id
SciTegic.value.IntegerValue
35

@<SCITEGIC>MOL_PROPERTY
Delta U+W
SciTegic.value.DoubleValue
3.004

@<SCITEGIC>MOL_PROPERTY
U+W
SciTegic.value.DoubleValue
-33.272

@<SCITEGIC>MOL_PROPERTY
Grad RMS
SciTegic.value.DoubleValue
0.000000

@<SCITEGIC>MOL_PROPERTY
U
SciTegic.value.DoubleValue
25.367

@<SCITEGIC>MOL_PROPERTY
W
SciTegic.value.DoubleValue
-58.639

@<SCITEGIC>MOL_PROPERTY
W(PB)
SciTegic.value.DoubleValue
-60.512

@<SCITEGIC>MOL_PROPERTY
W(SA)
SciTegic.value.DoubleValue
1.873

@<SCITEGIC>MOL_PROPERTY
Valence
SciTegic.value.DoubleValue
4.943

@<SCITEGIC>MOL_PROPERTY
Coulomb
SciTegic.value.DoubleValue
19.661

@<SCITEGIC>MOL_PROPERTY
VdW
SciTegic.value.DoubleValue
0.764

@<SCITEGIC>MOL_PROPERTY
VdW6
SciTegic.value.DoubleValue
-5.871

@<SCITEGIC>MOL_PROPERTY
VdW12
SciTegic.value.DoubleValue
6.636

@<SCITEGIC>MOL_PROPERTY
Bond
SciTegic.value.DoubleValue
0.230

@<SCITEGIC>MOL_PROPERTY
Angle
SciTegic.value.DoubleValue
1.857

@<SCITEGIC>MOL_PROPERTY
Pdih
SciTegic.value.DoubleValue
2.855

@<SCITEGIC>MOL_PROPERTY
Idih
SciTegic.value.DoubleValue
0.000

@<SCITEGIC>MOL_PROPERTY
Tether
SciTegic.value.DoubleValue
0.000

@<TRIPOS>MOLECULE
guest-s10_confgen4.mol2 : confsearch ligand conformer 420
          20          19           1
SMALL
USER_CHARGES
 
@<TRIPOS>ATOM
       1    N1      19.506496   20.526495   23.513134 N.4        1 MOL1        -0.5937
       2    H1      20.019180   21.198987   24.089772 H          1 MOL1         0.3684
       3    H2      18.508584   20.716827   23.637741 H          1 MOL1         0.3684
       4    H3      19.734855   20.718518   22.535905 H          1 MOL1         0.3684
       5    C1      19.847258   19.109037   23.883482 C.3        1 MOL1         0.1270
       6    H4      19.542770   19.002211   24.929331 H          1 MOL1         0.0960
       7    C2      21.364949   18.861672   23.820754 C.3        1 MOL1        -0.2382
       8    H5      21.763478   19.042448   22.815374 H          1 MOL1         0.1009
       9    H6      21.602738   17.829167   24.105025 H          1 MOL1         0.1009
      10    H7      21.891810   19.527471   24.515087 H          1 MOL1         0.1009
      11    C3      19.043532   18.059758   23.073328 C.3        1 MOL1        -0.1392
      12    H8      19.112998   17.103090   23.607652 H          1 MOL1         0.0998
      13    H9      17.979796   18.330042   23.098429 H          1 MOL1         0.0998
      14    C4      19.474944   17.813127   21.600354 C.3        1 MOL1        -0.1302
      15    H10     18.839181   17.016281   21.189665 H          1 MOL1         0.0998
      16    H11     20.499909   17.419701   21.564359 H          1 MOL1         0.0998
      17    C5      19.359709   19.048499   20.678671 C.3        1 MOL1        -0.2317
      18    H12     18.369163   19.514791   20.759491 H          1 MOL1         0.1009
      19    H13     19.504469   18.755235   19.630715 H          1 MOL1         0.1009
      20    H14     20.124791   19.798187   20.910802 H          1 MOL1         0.1009
@<TRIPOS>BOND
    1     1     2    1
    2     1     3    1
    3     1     4    1
    4     1     5    1
    5     5     6    1
    6     5     7    1
    7     7     8    1
    8     7     9    1
    9     7    10    1
   10     5    11    1
   11    11    12    1
   12    11    13    1
   13    11    14    1
   14    14    15    1
   15    14    16    1
   16    14    17    1
   17    17    18    1
   18    17    19    1
   19    17    20    1
@<TRIPOS>SUBSTRUCTURE
       1 MOL1            1 RESIDUE      1      MOL     
@<SCITEGIC>MOL_PROPERTY
VConf Rank
SciTegic.value.IntegerValue
420

@<SCITEGIC>MOL_PROPERTY
Conf_Id
SciTegic.value.IntegerValue
55

@<SCITEGIC>MOL_PROPERTY
Delta U+W
SciTegic.value.DoubleValue
2.767

@<SCITEGIC>MOL_PROPERTY
U+W
SciTegic.value.DoubleValue
-33.509

@<SCITEGIC>MOL_PROPERTY
Grad RMS
SciTegic.value.DoubleValue
0.000000

@<SCITEGIC>MOL_PROPERTY
U
SciTegic.value.DoubleValue
24.552

@<SCITEGIC>MOL_PROPERTY
W
SciTegic.value.DoubleValue
-58.061

@<SCITEGIC>MOL_PROPERTY
W(PB)
SciTegic.value.DoubleValue
-59.930

@<SCITEGIC>MOL_PROPERTY
W(SA)
SciTegic.value.DoubleValue
1.869

@<SCITEGIC>MOL_PROPERTY
Valence
SciTegic.value.DoubleValue
3.726

@<SCITEGIC>MOL_PROPERTY
Coulomb
SciTegic.value.DoubleValue
20.219

@<SCITEGIC>MOL_PROPERTY
VdW
SciTegic.value.DoubleValue
0.606

@<SCITEGIC>MOL_PROPERTY
VdW6
SciTegic.value.DoubleValue
-6.395

@<SCITEGIC>MOL_PROPERTY
VdW12
SciTegic.value.DoubleValue
7.001

@<SCITEGIC>MOL_PROPERTY
Bond
SciTegic.value.DoubleValue
0.241

@<SCITEGIC>MOL_PROPERTY
Angle
SciTegic.value.DoubleValue
2.098

@<SCITEGIC>MOL_PROPERTY
Pdih
SciTegic.value.DoubleValue
1.387

@<SCITEGIC>MOL_PROPERTY
Idih
SciTegic.value.DoubleValue
0.000

@<SCITEGIC>MOL_PROPERTY
Tether
SciTegic.value.DoubleValue
0.000

@<TRIPOS>MOLECULE
guest-s10_confgen4.mol2 : confsearch ligand conformer 421
          20          19           1
SMALL
USER_CHARGES
 
@<TRIPOS>ATOM
       1    N1      18.659261   18.225507   24.192627 N.4        1 MOL1        -0.5937
       2    H1      19.345847   17.553752   24.544609 H          1 MOL1         0.3684
       3    H2      17.733354   17.890037   24.471578 H          1 MOL1         0.3684
       4    H3      18.819755   19.111999   24.677350 H          1 MOL1         0.3684
       5    C1      18.760142   18.386114   22.699614 C.3        1 MOL1         0.1270
       6    H4      18.000272   19.118526   22.409688 H          1 MOL1         0.0960
       7    C2      18.443937   17.058725   21.991078 C.3        1 MOL1        -0.2382
       8    H5      17.449281   16.693898   22.275376 H          1 MOL1         0.1009
       9    H6      19.178261   16.285536   22.249417 H          1 MOL1         0.1009
      10    H7      18.451722   17.186577   20.901476 H          1 MOL1         0.1009
      11    C3      20.139337   18.918478   22.251777 C.3        1 MOL1        -0.1392
      12    H8      20.924033   18.211516   22.552399 H          1 MOL1         0.0998
      13    H9      20.162424   18.963381   21.154727 H          1 MOL1         0.0998
      14    C4      20.458019   20.324355   22.815222 C.3        1 MOL1        -0.1302
      15    H10     20.496555   20.294027   23.912501 H          1 MOL1         0.0998
      16    H11     19.653874   21.022979   22.544082 H          1 MOL1         0.0998
      17    C5      21.803078   20.861194   22.280504 C.3        1 MOL1        -0.2317
      18    H12     22.632451   20.199198   22.561854 H          1 MOL1         0.1009
      19    H13     22.013651   21.857350   22.690890 H          1 MOL1         0.1009
      20    H14     21.788751   20.944776   21.185954 H          1 MOL1         0.1009
@<TRIPOS>BOND
    1     1     2    1
    2     1     3    1
    3     1     4    1
    4     1     5    1
    5     5     6    1
    6     5     7    1
    7     7     8    1
    8     7     9    1
    9     7    10    1
   10     5    11    1
   11    11    12    1
   12    11    13    1
   13    11    14    1
   14    14    15    1
   15    14    16    1
   16    14    17    1
   17    17    18    1
   18    17    19    1
   19    17    20    1
@<TRIPOS>SUBSTRUCTURE
       1 MOL1            1 RESIDUE      1      MOL     
@<SCITEGIC>MOL_PROPERTY
VConf Rank
SciTegic.value.IntegerValue
421

@<SCITEGIC>MOL_PROPERTY
Conf_Id
SciTegic.value.IntegerValue
74

@<SCITEGIC>MOL_PROPERTY
Delta U+W
SciTegic.value.DoubleValue
0.000

@<SCITEGIC>MOL_PROPERTY
U+W
SciTegic.value.DoubleValue
-36.276

@<SCITEGIC>MOL_PROPERTY
Grad RMS
SciTegic.value.DoubleValue
0.000000

@<SCITEGIC>MOL_PROPERTY
U
SciTegic.value.DoubleValue
22.080

@<SCITEGIC>MOL_PROPERTY
W
SciTegic.value.DoubleValue
-58.356

@<SCITEGIC>MOL_PROPERTY
W(PB)
SciTegic.value.DoubleValue
-60.289

@<SCITEGIC>MOL_PROPERTY
W(SA)
SciTegic.value.DoubleValue
1.932

@<SCITEGIC>MOL_PROPERTY
Valence
SciTegic.value.DoubleValue
1.885

@<SCITEGIC>MOL_PROPERTY
Coulomb
SciTegic.value.DoubleValue
19.559

@<SCITEGIC>MOL_PROPERTY
VdW
SciTegic.value.DoubleValue
0.637

@<SCITEGIC>MOL_PROPERTY
VdW6
SciTegic.value.DoubleValue
-4.482

@<SCITEGIC>MOL_PROPERTY
VdW12
SciTegic.value.DoubleValue
5.119

@<SCITEGIC>MOL_PROPERTY
Bond
SciTegic.value.DoubleValue
0.136

@<SCITEGIC>MOL_PROPERTY
Angle
SciTegic.value.DoubleValue
0.867

@<SCITEGIC>MOL_PROPERTY
Pdih
SciTegic.value.DoubleValue
0.882

@<SCITEGIC>MOL_PROPERTY
Idih
SciTegic.value.DoubleValue
0.000

@<SCITEGIC>MOL_PROPERTY
Tether
SciTegic.value.DoubleValue
0.000

@<TRIPOS>MOLECULE
guest-s10_confgen4.mol2 : confsearch ligand conformer 422
          20          19           1
SMALL
USER_CHARGES
 
@<TRIPOS>ATOM
       1    N1      21.032036   18.207410   20.843807 N.4        1 MOL1        -0.5937
       2    H1      20.768902   17.220319   20.778468 H          1 MOL1         0.3684
       3    H2      21.956153   18.249816   21.280769 H          1 MOL1         0.3684
       4    H3      21.131650   18.557417   19.887119 H          1 MOL1         0.3684
       5    C1      20.017330   19.002883   21.618444 C.3        1 MOL1         0.1270
       6    H4      19.070106   18.901979   21.079509 H          1 MOL1         0.0960
       7    C2      20.408774   20.491895   21.638791 C.3        1 MOL1        -0.2382
       8    H5      20.587607   20.858287   20.620460 H          1 MOL1         0.1009
       9    H6      21.322560   20.654433   22.223730 H          1 MOL1         0.1009
      10    H7      19.611133   21.108637   22.068467 H          1 MOL1         0.1009
      11    C3      19.826691   18.430661   23.042420 C.3        1 MOL1        -0.1392
      12    H8      19.657724   17.348680   22.962244 H          1 MOL1         0.0998
      13    H9      20.752306   18.558440   23.619272 H          1 MOL1         0.0998
      14    C4      18.640020   19.057304   23.814621 C.3        1 MOL1        -0.1302
      15    H10     17.725051   18.985804   23.209817 H          1 MOL1         0.0998
      16    H11     18.822159   20.125611   23.991950 H          1 MOL1         0.0998
      17    C5      18.411479   18.358869   25.172428 C.3        1 MOL1        -0.2317
      18    H12     18.182580   17.293835   25.036251 H          1 MOL1         0.1009
      19    H13     17.569879   18.817591   25.707566 H          1 MOL1         0.1009
      20    H14     19.300318   18.438368   25.811885 H          1 MOL1         0.1009
@<TRIPOS>BOND
    1     1     2    1
    2     1     3    1
    3     1     4    1
    4     1     5    1
    5     5     6    1
    6     5     7    1
    7     7     8    1
    8     7     9    1
    9     7    10    1
   10     5    11    1
   11    11    12    1
   12    11    13    1
   13    11    14    1
   14    14    15    1
   15    14    16    1
   16    14    17    1
   17    17    18    1
   18    17    19    1
   19    17    20    1
@<TRIPOS>SUBSTRUCTURE
       1 MOL1            1 RESIDUE      1      MOL     
@<SCITEGIC>MOL_PROPERTY
VConf Rank
SciTegic.value.IntegerValue
422

@<SCITEGIC>MOL_PROPERTY
Conf_Id
SciTegic.value.IntegerValue
80

@<SCITEGIC>MOL_PROPERTY
Delta U+W
SciTegic.value.DoubleValue
0.460

@<SCITEGIC>MOL_PROPERTY
U+W
SciTegic.value.DoubleValue
-35.817

@<SCITEGIC>MOL_PROPERTY
Grad RMS
SciTegic.value.DoubleValue
0.000000

@<SCITEGIC>MOL_PROPERTY
U
SciTegic.value.DoubleValue
22.495

@<SCITEGIC>MOL_PROPERTY
W
SciTegic.value.DoubleValue
-58.311

@<SCITEGIC>MOL_PROPERTY
W(PB)
SciTegic.value.DoubleValue
-60.259

@<SCITEGIC>MOL_PROPERTY
W(SA)
SciTegic.value.DoubleValue
1.948

@<SCITEGIC>MOL_PROPERTY
Valence
SciTegic.value.DoubleValue
2.419

@<SCITEGIC>MOL_PROPERTY
Coulomb
SciTegic.value.DoubleValue
19.304

@<SCITEGIC>MOL_PROPERTY
VdW
SciTegic.value.DoubleValue
0.772

@<SCITEGIC>MOL_PROPERTY
VdW6
SciTegic.value.DoubleValue
-4.635

@<SCITEGIC>MOL_PROPERTY
VdW12
SciTegic.value.DoubleValue
5.407

@<SCITEGIC>MOL_PROPERTY
Bond
SciTegic.value.DoubleValue
0.149

@<SCITEGIC>MOL_PROPERTY
Angle
SciTegic.value.DoubleValue
1.142

@<SCITEGIC>MOL_PROPERTY
Pdih
SciTegic.value.DoubleValue
1.129

@<SCITEGIC>MOL_PROPERTY
Idih
SciTegic.value.DoubleValue
0.000

@<SCITEGIC>MOL_PROPERTY
Tether
SciTegic.value.DoubleValue
0.000

@<TRIPOS>MOLECULE
guest-s10_confgen4.mol2 : confsearch ligand conformer 423
          20          19           1
SMALL
USER_CHARGES
 
@<TRIPOS>ATOM
       1    N1      21.639202   19.628147   21.438559 N.4        1 MOL1        -0.5937
       2    H1      21.443491   19.579446   20.434997 H          1 MOL1         0.3684
       3    H2      22.229044   18.826370   21.675055 H          1 MOL1         0.3684
       4    H3      22.195664   20.472398   21.597316 H          1 MOL1         0.3684
       5    C1      20.373806   19.641611   22.251787 C.3        1 MOL1         0.1270
       6    H4      19.816605   20.529238   21.936440 H          1 MOL1         0.0960
       7    C2      20.703458   19.790437   23.746925 C.3        1 MOL1        -0.2382
       8    H5      21.390159   20.629953   23.910626 H          1 MOL1         0.1009
       9    H6      21.174545   18.882410   24.143180 H          1 MOL1         0.1009
      10    H7      19.798717   19.997458   24.329671 H          1 MOL1         0.1009
      11    C3      19.504979   18.396460   21.948346 C.3        1 MOL1        -0.1392
      12    H8      19.355470   18.356276   20.861275 H          1 MOL1         0.0998
      13    H9      20.051275   17.480107   22.208321 H          1 MOL1         0.0998
      14    C4      18.105088   18.394973   22.617635 C.3        1 MOL1        -0.1302
      15    H10     17.383710   17.946841   21.919846 H          1 MOL1         0.0998
      16    H11     17.760702   19.425079   22.785702 H          1 MOL1         0.0998
      17    C5      18.054841   17.587982   23.936450 C.3        1 MOL1        -0.2317
      18    H12     18.324772   16.537987   23.763927 H          1 MOL1         0.1009
      19    H13     17.041757   17.605160   24.358765 H          1 MOL1         0.1009
      20    H14     18.736547   17.990725   24.693825 H          1 MOL1         0.1009
@<TRIPOS>BOND
    1     1     2    1
    2     1     3    1
    3     1     4    1
    4     1     5    1
    5     5     6    1
    6     5     7    1
    7     7     8    1
    8     7     9    1
    9     7    10    1
   10     5    11    1
   11    11    12    1
   12    11    13    1
   13    11    14    1
   14    14    15    1
   15    14    16    1
   16    14    17    1
   17    17    18    1
   18    17    19    1
   19    17    20    1
@<TRIPOS>SUBSTRUCTURE
       1 MOL1            1 RESIDUE      1      MOL     
@<SCITEGIC>MOL_PROPERTY
VConf Rank
SciTegic.value.IntegerValue
423

@<SCITEGIC>MOL_PROPERTY
Conf_Id
SciTegic.value.IntegerValue
52

@<SCITEGIC>MOL_PROPERTY
Delta U+W
SciTegic.value.DoubleValue
2.995

@<SCITEGIC>MOL_PROPERTY
U+W
SciTegic.value.DoubleValue
-33.282

@<SCITEGIC>MOL_PROPERTY
Grad RMS
SciTegic.value.DoubleValue
0.000000

@<SCITEGIC>MOL_PROPERTY
U
SciTegic.value.DoubleValue
25.224

@<SCITEGIC>MOL_PROPERTY
W
SciTegic.value.DoubleValue
-58.506

@<SCITEGIC>MOL_PROPERTY
W(PB)
SciTegic.value.DoubleValue
-60.411

@<SCITEGIC>MOL_PROPERTY
W(SA)
SciTegic.value.DoubleValue
1.905

@<SCITEGIC>MOL_PROPERTY
Valence
SciTegic.value.DoubleValue
4.945

@<SCITEGIC>MOL_PROPERTY
Coulomb
SciTegic.value.DoubleValue
19.467

@<SCITEGIC>MOL_PROPERTY
VdW
SciTegic.value.DoubleValue
0.813

@<SCITEGIC>MOL_PROPERTY
VdW6
SciTegic.value.DoubleValue
-5.458

@<SCITEGIC>MOL_PROPERTY
VdW12
SciTegic.value.DoubleValue
6.270

@<SCITEGIC>MOL_PROPERTY
Bond
SciTegic.value.DoubleValue
0.200

@<SCITEGIC>MOL_PROPERTY
Angle
SciTegic.value.DoubleValue
1.675

@<SCITEGIC>MOL_PROPERTY
Pdih
SciTegic.value.DoubleValue
3.070

@<SCITEGIC>MOL_PROPERTY
Idih
SciTegic.value.DoubleValue
0.000

@<SCITEGIC>MOL_PROPERTY
Tether
SciTegic.value.DoubleValue
0.000

@<TRIPOS>MOLECULE
guest-s10_confgen4.mol2 : confsearch ligand conformer 424
          20          19           1
SMALL
USER_CHARGES
 
@<TRIPOS>ATOM
       1    N1      20.917147   18.528123   21.722796 N.4        1 MOL1        -0.5937
       2    H1      21.792537   18.770562   22.193212 H          1 MOL1         0.3684
       3    H2      21.122665   18.431203   20.724790 H          1 MOL1         0.3684
       4    H3      20.627606   17.610961   22.069157 H          1 MOL1         0.3684
       5    C1      19.855947   19.565348   21.970316 C.3        1 MOL1         0.1270
       6    H4      18.971721   19.264139   21.400094 H          1 MOL1         0.0960
       7    C2      20.327391   20.930379   21.440984 C.3        1 MOL1        -0.2382
       8    H5      21.206455   21.287813   21.991753 H          1 MOL1         0.1009
       9    H6      19.534454   21.682435   21.537463 H          1 MOL1         0.1009
      10    H7      20.592875   20.864811   20.378650 H          1 MOL1         0.1009
      11    C3      19.458872   19.673092   23.461946 C.3        1 MOL1        -0.1392
      12    H8      20.360377   19.720996   24.086900 H          1 MOL1         0.0998
      13    H9      18.935917   20.626292   23.616898 H          1 MOL1         0.0998
      14    C4      18.517636   18.548202   23.967221 C.3        1 MOL1        -0.1302
      15    H10     17.597268   18.537903   23.366511 H          1 MOL1         0.0998
      16    H11     18.206952   18.796594   24.991820 H          1 MOL1         0.0998
      17    C5      19.142512   17.134474   23.977753 C.3        1 MOL1        -0.2317
      18    H12     18.496710   16.439017   24.529628 H          1 MOL1         0.1009
      19    H13     20.124767   17.135347   24.468151 H          1 MOL1         0.1009
      20    H14     19.250583   16.732580   22.963731 H          1 MOL1         0.1009
@<TRIPOS>BOND
    1     1     2    1
    2     1     3    1
    3     1     4    1
    4     1     5    1
    5     5     6    1
    6     5     7    1
    7     7     8    1
    8     7     9    1
    9     7    10    1
   10     5    11    1
   11    11    12    1
   12    11    13    1
   13    11    14    1
   14    14    15    1
   15    14    16    1
   16    14    17    1
   17    17    18    1
   18    17    19    1
   19    17    20    1
@<TRIPOS>SUBSTRUCTURE
       1 MOL1            1 RESIDUE      1      MOL     
@<SCITEGIC>MOL_PROPERTY
VConf Rank
SciTegic.value.IntegerValue
424

@<SCITEGIC>MOL_PROPERTY
Conf_Id
SciTegic.value.IntegerValue
54

@<SCITEGIC>MOL_PROPERTY
Delta U+W
SciTegic.value.DoubleValue
2.752

@<SCITEGIC>MOL_PROPERTY
U+W
SciTegic.value.DoubleValue
-33.525

@<SCITEGIC>MOL_PROPERTY
Grad RMS
SciTegic.value.DoubleValue
0.000000

@<SCITEGIC>MOL_PROPERTY
U
SciTegic.value.DoubleValue
24.337

@<SCITEGIC>MOL_PROPERTY
W
SciTegic.value.DoubleValue
-57.862

@<SCITEGIC>MOL_PROPERTY
W(PB)
SciTegic.value.DoubleValue
-59.764

@<SCITEGIC>MOL_PROPERTY
W(SA)
SciTegic.value.DoubleValue
1.901

@<SCITEGIC>MOL_PROPERTY
Valence
SciTegic.value.DoubleValue
3.593

@<SCITEGIC>MOL_PROPERTY
Coulomb
SciTegic.value.DoubleValue
20.067

@<SCITEGIC>MOL_PROPERTY
VdW
SciTegic.value.DoubleValue
0.677

@<SCITEGIC>MOL_PROPERTY
VdW6
SciTegic.value.DoubleValue
-5.466

@<SCITEGIC>MOL_PROPERTY
VdW12
SciTegic.value.DoubleValue
6.144

@<SCITEGIC>MOL_PROPERTY
Bond
SciTegic.value.DoubleValue
0.191

@<SCITEGIC>MOL_PROPERTY
Angle
SciTegic.value.DoubleValue
1.557

@<SCITEGIC>MOL_PROPERTY
Pdih
SciTegic.value.DoubleValue
1.845

@<SCITEGIC>MOL_PROPERTY
Idih
SciTegic.value.DoubleValue
0.000

@<SCITEGIC>MOL_PROPERTY
Tether
SciTegic.value.DoubleValue
0.000

@<TRIPOS>MOLECULE
guest-s10_confgen4.mol2 : confsearch ligand conformer 425
          20          19           1
SMALL
USER_CHARGES
 
@<TRIPOS>ATOM
       1    N1      18.546561   20.566003   23.153258 N.4        1 MOL1        -0.5937
       2    H1      18.520392   21.584959   23.246519 H          1 MOL1         0.3684
       3    H2      17.860409   20.183299   23.809341 H          1 MOL1         0.3684
       4    H3      18.229100   20.337661   22.208521 H          1 MOL1         0.3684
       5    C1      19.925404   20.024207   23.416194 C.3        1 MOL1         0.1270
       6    H4      20.182017   20.331250   24.434966 H          1 MOL1         0.0960
       7    C2      20.958555   20.657251   22.467144 C.3        1 MOL1        -0.2382
       8    H5      21.962003   20.258426   22.660799 H          1 MOL1         0.1009
       9    H6      20.999167   21.743463   22.614046 H          1 MOL1         0.1009
      10    H7      20.711542   20.471130   21.415295 H          1 MOL1         0.1009
      11    C3      19.971827   18.477760   23.378801 C.3        1 MOL1        -0.1392
      12    H8      20.978980   18.147911   23.666165 H          1 MOL1         0.0998
      13    H9      19.296288   18.091520   24.153316 H          1 MOL1         0.0998
      14    C4      19.595895   17.844394   22.014299 C.3        1 MOL1        -0.1302
      15    H10     20.293505   18.178866   21.234888 H          1 MOL1         0.0998
      16    H11     18.593629   18.172062   21.707283 H          1 MOL1         0.0998
      17    C5      19.622702   16.302189   22.079205 C.3        1 MOL1        -0.2317
      18    H12     19.356866   15.868463   21.106436 H          1 MOL1         0.1009
      19    H13     18.907696   15.925145   22.822055 H          1 MOL1         0.1009
      20    H14     20.621540   15.935343   22.349338 H          1 MOL1         0.1009
@<TRIPOS>BOND
    1     1     2    1
    2     1     3    1
    3     1     4    1
    4     1     5    1
    5     5     6    1
    6     5     7    1
    7     7     8    1
    8     7     9    1
    9     7    10    1
   10     5    11    1
   11    11    12    1
   12    11    13    1
   13    11    14    1
   14    14    15    1
   15    14    16    1
   16    14    17    1
   17    17    18    1
   18    17    19    1
   19    17    20    1
@<TRIPOS>SUBSTRUCTURE
       1 MOL1            1 RESIDUE      1      MOL     
@<SCITEGIC>MOL_PROPERTY
VConf Rank
SciTegic.value.IntegerValue
425

@<SCITEGIC>MOL_PROPERTY
Conf_Id
SciTegic.value.IntegerValue
63

@<SCITEGIC>MOL_PROPERTY
Delta U+W
SciTegic.value.DoubleValue
0.420

@<SCITEGIC>MOL_PROPERTY
U+W
SciTegic.value.DoubleValue
-35.856

@<SCITEGIC>MOL_PROPERTY
Grad RMS
SciTegic.value.DoubleValue
0.000000

@<SCITEGIC>MOL_PROPERTY
U
SciTegic.value.DoubleValue
22.625

@<SCITEGIC>MOL_PROPERTY
W
SciTegic.value.DoubleValue
-58.481

@<SCITEGIC>MOL_PROPERTY
W(PB)
SciTegic.value.DoubleValue
-60.400

@<SCITEGIC>MOL_PROPERTY
W(SA)
SciTegic.value.DoubleValue
1.919

@<SCITEGIC>MOL_PROPERTY
Valence
SciTegic.value.DoubleValue
2.404

@<SCITEGIC>MOL_PROPERTY
Coulomb
SciTegic.value.DoubleValue
19.464

@<SCITEGIC>MOL_PROPERTY
VdW
SciTegic.value.DoubleValue
0.757

@<SCITEGIC>MOL_PROPERTY
VdW6
SciTegic.value.DoubleValue
-5.074

@<SCITEGIC>MOL_PROPERTY
VdW12
SciTegic.value.DoubleValue
5.830

@<SCITEGIC>MOL_PROPERTY
Bond
SciTegic.value.DoubleValue
0.172

@<SCITEGIC>MOL_PROPERTY
Angle
SciTegic.value.DoubleValue
1.207

@<SCITEGIC>MOL_PROPERTY
Pdih
SciTegic.value.DoubleValue
1.025

@<SCITEGIC>MOL_PROPERTY
Idih
SciTegic.value.DoubleValue
0.000

@<SCITEGIC>MOL_PROPERTY
Tether
SciTegic.value.DoubleValue
0.000

@<TRIPOS>MOLECULE
guest-s10_confgen4.mol2 : confsearch ligand conformer 426
          20          19           1
SMALL
USER_CHARGES
 
@<TRIPOS>ATOM
       1    N1      18.901412   19.969595   24.004087 N.4        1 MOL1        -0.5937
       2    H1      19.408619   20.746857   23.573415 H          1 MOL1         0.3684
       3    H2      19.325011   19.794375   24.918572 H          1 MOL1         0.3684
       4    H3      17.941112   20.284005   24.166917 H          1 MOL1         0.3684
       5    C1      18.940490   18.742373   23.134272 C.3        1 MOL1         0.1270
       6    H4      18.468928   19.014213   22.185135 H          1 MOL1         0.0960
       7    C2      18.123259   17.603274   23.765222 C.3        1 MOL1        -0.2382
       8    H5      17.086980   17.918494   23.938429 H          1 MOL1         0.1009
       9    H6      18.550971   17.292183   24.726491 H          1 MOL1         0.1009
      10    H7      18.098330   16.728613   23.103430 H          1 MOL1         0.1009
      11    C3      20.383120   18.271286   22.841224 C.3        1 MOL1        -0.1392
      12    H8      20.868617   17.977931   23.781473 H          1 MOL1         0.0998
      13    H9      20.344179   17.365902   22.220989 H          1 MOL1         0.0998
      14    C4      21.262741   19.326973   22.124501 C.3        1 MOL1        -0.1302
      15    H10     22.263838   18.902271   21.965330 H          1 MOL1         0.0998
      16    H11     21.406464   20.203721   22.770429 H          1 MOL1         0.0998
      17    C5      20.685324   19.772260   20.761535 C.3        1 MOL1        -0.2317
      18    H12     20.532839   18.911431   20.097530 H          1 MOL1         0.1009
      19    H13     21.374374   20.463811   20.259505 H          1 MOL1         0.1009
      20    H14     19.724752   20.289567   20.878113 H          1 MOL1         0.1009
@<TRIPOS>BOND
    1     1     2    1
    2     1     3    1
    3     1     4    1
    4     1     5    1
    5     5     6    1
    6     5     7    1
    7     7     8    1
    8     7     9    1
    9     7    10    1
   10     5    11    1
   11    11    12    1
   12    11    13    1
   13    11    14    1
   14    14    15    1
   15    14    16    1
   16    14    17    1
   17    17    18    1
   18    17    19    1
   19    17    20    1
@<TRIPOS>SUBSTRUCTURE
       1 MOL1            1 RESIDUE      1      MOL     
@<SCITEGIC>MOL_PROPERTY
VConf Rank
SciTegic.value.IntegerValue
426

@<SCITEGIC>MOL_PROPERTY
Conf_Id
SciTegic.value.IntegerValue
50

@<SCITEGIC>MOL_PROPERTY
Delta U+W
SciTegic.value.DoubleValue
0.466

@<SCITEGIC>MOL_PROPERTY
U+W
SciTegic.value.DoubleValue
-35.811

@<SCITEGIC>MOL_PROPERTY
Grad RMS
SciTegic.value.DoubleValue
0.000000

@<SCITEGIC>MOL_PROPERTY
U
SciTegic.value.DoubleValue
22.369

@<SCITEGIC>MOL_PROPERTY
W
SciTegic.value.DoubleValue
-58.180

@<SCITEGIC>MOL_PROPERTY
W(PB)
SciTegic.value.DoubleValue
-60.103

@<SCITEGIC>MOL_PROPERTY
W(SA)
SciTegic.value.DoubleValue
1.923

@<SCITEGIC>MOL_PROPERTY
Valence
SciTegic.value.DoubleValue
2.168

@<SCITEGIC>MOL_PROPERTY
Coulomb
SciTegic.value.DoubleValue
19.636

@<SCITEGIC>MOL_PROPERTY
VdW
SciTegic.value.DoubleValue
0.566

@<SCITEGIC>MOL_PROPERTY
VdW6
SciTegic.value.DoubleValue
-5.263

@<SCITEGIC>MOL_PROPERTY
VdW12
SciTegic.value.DoubleValue
5.829

@<SCITEGIC>MOL_PROPERTY
Bond
SciTegic.value.DoubleValue
0.162

@<SCITEGIC>MOL_PROPERTY
Angle
SciTegic.value.DoubleValue
1.066

@<SCITEGIC>MOL_PROPERTY
Pdih
SciTegic.value.DoubleValue
0.939

@<SCITEGIC>MOL_PROPERTY
Idih
SciTegic.value.DoubleValue
0.000

@<SCITEGIC>MOL_PROPERTY
Tether
SciTegic.value.DoubleValue
0.000

@<TRIPOS>MOLECULE
guest-s10_confgen4.mol2 : confsearch ligand conformer 427
          20          19           1
SMALL
USER_CHARGES
 
@<TRIPOS>ATOM
       1    N1      17.635517   18.344890   23.651008 N.4        1 MOL1        -0.5937
       2    H1      17.114731   19.226175   23.661731 H          1 MOL1         0.3684
       3    H2      17.798440   18.072482   24.623696 H          1 MOL1         0.3684
       4    H3      17.023642   17.637370   23.235364 H          1 MOL1         0.3684
       5    C1      18.926837   18.472532   22.888919 C.3        1 MOL1         0.1270
       6    H4      18.652213   18.767329   21.871355 H          1 MOL1         0.0960
       7    C2      19.641968   17.109694   22.832142 C.3        1 MOL1        -0.2382
       8    H5      19.893827   16.753297   23.838728 H          1 MOL1         0.1009
       9    H6      20.570214   17.165546   22.253325 H          1 MOL1         0.1009
      10    H7      19.001292   16.356846   22.356871 H          1 MOL1         0.1009
      11    C3      19.840395   19.574574   23.479808 C.3        1 MOL1        -0.1392
      12    H8      19.241453   20.229400   24.126448 H          1 MOL1         0.0998
      13    H9      20.602890   19.130904   24.133850 H          1 MOL1         0.0998
      14    C4      20.512644   20.472469   22.410393 C.3        1 MOL1        -0.1302
      15    H10     21.073683   21.267131   22.921940 H          1 MOL1         0.0998
      16    H11     19.738604   20.979232   21.816985 H          1 MOL1         0.0998
      17    C5      21.471894   19.717764   21.463560 C.3        1 MOL1        -0.2317
      18    H12     22.233371   19.164998   22.028919 H          1 MOL1         0.1009
      19    H13     21.992369   20.423387   20.803073 H          1 MOL1         0.1009
      20    H14     20.929698   19.010028   20.824213 H          1 MOL1         0.1009
@<TRIPOS>BOND
    1     1     2    1
    2     1     3    1
    3     1     4    1
    4     1     5    1
    5     5     6    1
    6     5     7    1
    7     7     8    1
    8     7     9    1
    9     7    10    1
   10     5    11    1
   11    11    12    1
   12    11    13    1
   13    11    14    1
   14    14    15    1
   15    14    16    1
   16    14    17    1
   17    17    18    1
   18    17    19    1
   19    17    20    1
@<TRIPOS>SUBSTRUCTURE
       1 MOL1            1 RESIDUE      1      MOL     
@<SCITEGIC>MOL_PROPERTY
VConf Rank
SciTegic.value.IntegerValue
427

@<SCITEGIC>MOL_PROPERTY
Conf_Id
SciTegic.value.IntegerValue
3

@<SCITEGIC>MOL_PROPERTY
Delta U+W
SciTegic.value.DoubleValue
3.093

@<SCITEGIC>MOL_PROPERTY
U+W
SciTegic.value.DoubleValue
-33.184

@<SCITEGIC>MOL_PROPERTY
Grad RMS
SciTegic.value.DoubleValue
0.000000

@<SCITEGIC>MOL_PROPERTY
U
SciTegic.value.DoubleValue
25.256

@<SCITEGIC>MOL_PROPERTY
W
SciTegic.value.DoubleValue
-58.439

@<SCITEGIC>MOL_PROPERTY
W(PB)
SciTegic.value.DoubleValue
-60.337

@<SCITEGIC>MOL_PROPERTY
W(SA)
SciTegic.value.DoubleValue
1.898

@<SCITEGIC>MOL_PROPERTY
Valence
SciTegic.value.DoubleValue
4.963

@<SCITEGIC>MOL_PROPERTY
Coulomb
SciTegic.value.DoubleValue
19.511

@<SCITEGIC>MOL_PROPERTY
VdW
SciTegic.value.DoubleValue
0.782

@<SCITEGIC>MOL_PROPERTY
VdW6
SciTegic.value.DoubleValue
-5.429

@<SCITEGIC>MOL_PROPERTY
VdW12
SciTegic.value.DoubleValue
6.211

@<SCITEGIC>MOL_PROPERTY
Bond
SciTegic.value.DoubleValue
0.174

@<SCITEGIC>MOL_PROPERTY
Angle
SciTegic.value.DoubleValue
1.377

@<SCITEGIC>MOL_PROPERTY
Pdih
SciTegic.value.DoubleValue
3.412

@<SCITEGIC>MOL_PROPERTY
Idih
SciTegic.value.DoubleValue
0.000

@<SCITEGIC>MOL_PROPERTY
Tether
SciTegic.value.DoubleValue
0.000

@<TRIPOS>MOLECULE
guest-s10_confgen4.mol2 : confsearch ligand conformer 428
          20          19           1
SMALL
USER_CHARGES
 
@<TRIPOS>ATOM
       1    N1      19.571741   21.207732   22.560134 N.4        1 MOL1        -0.5937
       2    H1      20.352504   21.825968   22.796417 H          1 MOL1         0.3684
       3    H2      18.788681   21.463955   23.167585 H          1 MOL1         0.3684
       4    H3      19.295744   21.420787   21.598304 H          1 MOL1         0.3684
       5    C1      19.947628   19.760069   22.719390 C.3        1 MOL1         0.1270
       6    H4      20.229038   19.630080   23.768679 H          1 MOL1         0.0960
       7    C2      21.168349   19.424308   21.843488 C.3        1 MOL1        -0.2382
       8    H5      21.541246   18.414689   22.051222 H          1 MOL1         0.1009
       9    H6      21.991233   20.121486   22.043336 H          1 MOL1         0.1009
      10    H7      20.920844   19.486817   20.776566 H          1 MOL1         0.1009
      11    C3      18.745240   18.833130   22.420265 C.3        1 MOL1        -0.1392
      12    H8      17.885208   19.170862   23.013400 H          1 MOL1         0.0998
      13    H9      18.452354   18.946014   21.368024 H          1 MOL1         0.0998
      14    C4      18.984985   17.331343   22.720701 C.3        1 MOL1        -0.1302
      15    H10     19.752025   16.925199   22.047671 H          1 MOL1         0.0998
      16    H11     18.063785   16.776034   22.495175 H          1 MOL1         0.0998
      17    C5      19.383975   17.063526   24.189793 C.3        1 MOL1        -0.2317
      18    H12     18.632231   17.463778   24.882495 H          1 MOL1         0.1009
      19    H13     20.352507   17.517870   24.433886 H          1 MOL1         0.1009
      20    H14     19.468991   15.984819   24.374674 H          1 MOL1         0.1009
@<TRIPOS>BOND
    1     1     2    1
    2     1     3    1
    3     1     4    1
    4     1     5    1
    5     5     6    1
    6     5     7    1
    7     7     8    1
    8     7     9    1
    9     7    10    1
   10     5    11    1
   11    11    12    1
   12    11    13    1
   13    11    14    1
   14    14    15    1
   15    14    16    1
   16    14    17    1
   17    17    18    1
   18    17    19    1
   19    17    20    1
@<TRIPOS>SUBSTRUCTURE
       1 MOL1            1 RESIDUE      1      MOL     
@<SCITEGIC>MOL_PROPERTY
VConf Rank
SciTegic.value.IntegerValue
428

@<SCITEGIC>MOL_PROPERTY
Conf_Id
SciTegic.value.IntegerValue
64

@<SCITEGIC>MOL_PROPERTY
Delta U+W
SciTegic.value.DoubleValue
0.544

@<SCITEGIC>MOL_PROPERTY
U+W
SciTegic.value.DoubleValue
-35.732

@<SCITEGIC>MOL_PROPERTY
Grad RMS
SciTegic.value.DoubleValue
0.000000

@<SCITEGIC>MOL_PROPERTY
U
SciTegic.value.DoubleValue
22.800

@<SCITEGIC>MOL_PROPERTY
W
SciTegic.value.DoubleValue
-58.532

@<SCITEGIC>MOL_PROPERTY
W(PB)
SciTegic.value.DoubleValue
-60.437

@<SCITEGIC>MOL_PROPERTY
W(SA)
SciTegic.value.DoubleValue
1.905

@<SCITEGIC>MOL_PROPERTY
Valence
SciTegic.value.DoubleValue
2.662

@<SCITEGIC>MOL_PROPERTY
Coulomb
SciTegic.value.DoubleValue
19.485

@<SCITEGIC>MOL_PROPERTY
VdW
SciTegic.value.DoubleValue
0.653

@<SCITEGIC>MOL_PROPERTY
VdW6
SciTegic.value.DoubleValue
-5.460

@<SCITEGIC>MOL_PROPERTY
VdW12
SciTegic.value.DoubleValue
6.113

@<SCITEGIC>MOL_PROPERTY
Bond
SciTegic.value.DoubleValue
0.174

@<SCITEGIC>MOL_PROPERTY
Angle
SciTegic.value.DoubleValue
1.378

@<SCITEGIC>MOL_PROPERTY
Pdih
SciTegic.value.DoubleValue
1.109

@<SCITEGIC>MOL_PROPERTY
Idih
SciTegic.value.DoubleValue
0.000

@<SCITEGIC>MOL_PROPERTY
Tether
SciTegic.value.DoubleValue
0.000

@<TRIPOS>MOLECULE
guest-s10_confgen4.mol2 : confsearch ligand conformer 429
          20          19           1
SMALL
USER_CHARGES
 
@<TRIPOS>ATOM
       1    N1      17.897484   18.598888   23.591365 N.4        1 MOL1        -0.5937
       2    H1      17.675916   18.517626   22.596591 H          1 MOL1         0.3684
       3    H2      17.196309   19.215011   24.011316 H          1 MOL1         0.3684
       4    H3      17.776960   17.672516   24.009660 H          1 MOL1         0.3684
       5    C1      19.291094   19.125533   23.804269 C.3        1 MOL1         0.1270
       6    H4      19.425654   19.185920   24.888801 H          1 MOL1         0.0960
       7    C2      19.429996   20.550634   23.244341 C.3        1 MOL1        -0.2382
       8    H5      19.174765   20.590097   22.178973 H          1 MOL1         0.1009
       9    H6      20.453752   20.923143   23.372788 H          1 MOL1         0.1009
      10    H7      18.757661   21.236947   23.773407 H          1 MOL1         0.1009
      11    C3      20.375456   18.157249   23.268057 C.3        1 MOL1        -0.1392
      12    H8      21.364771   18.498346   23.600332 H          1 MOL1         0.0998
      13    H9      20.223775   17.188838   23.762682 H          1 MOL1         0.0998
      14    C4      20.387710   17.922428   21.731849 C.3        1 MOL1        -0.1302
      15    H10     19.375912   18.007799   21.314290 H          1 MOL1         0.0998
      16    H11     20.702709   16.886574   21.542732 H          1 MOL1         0.0998
      17    C5      21.358037   18.856778   20.971454 C.3        1 MOL1        -0.2317
      18    H12     21.082490   19.911941   21.074803 H          1 MOL1         0.1009
      19    H13     21.358126   18.618911   19.899827 H          1 MOL1         0.1009
      20    H14     22.386039   18.737765   21.337640 H          1 MOL1         0.1009
@<TRIPOS>BOND
    1     1     2    1
    2     1     3    1
    3     1     4    1
    4     1     5    1
    5     5     6    1
    6     5     7    1
    7     7     8    1
    8     7     9    1
    9     7    10    1
   10     5    11    1
   11    11    12    1
   12    11    13    1
   13    11    14    1
   14    14    15    1
   15    14    16    1
   16    14    17    1
   17    17    18    1
   18    17    19    1
   19    17    20    1
@<TRIPOS>SUBSTRUCTURE
       1 MOL1            1 RESIDUE      1      MOL     
@<SCITEGIC>MOL_PROPERTY
VConf Rank
SciTegic.value.IntegerValue
429

@<SCITEGIC>MOL_PROPERTY
Conf_Id
SciTegic.value.IntegerValue
35

@<SCITEGIC>MOL_PROPERTY
Delta U+W
SciTegic.value.DoubleValue
3.004

@<SCITEGIC>MOL_PROPERTY
U+W
SciTegic.value.DoubleValue
-33.272

@<SCITEGIC>MOL_PROPERTY
Grad RMS
SciTegic.value.DoubleValue
0.000000

@<SCITEGIC>MOL_PROPERTY
U
SciTegic.value.DoubleValue
25.367

@<SCITEGIC>MOL_PROPERTY
W
SciTegic.value.DoubleValue
-58.639

@<SCITEGIC>MOL_PROPERTY
W(PB)
SciTegic.value.DoubleValue
-60.512

@<SCITEGIC>MOL_PROPERTY
W(SA)
SciTegic.value.DoubleValue
1.873

@<SCITEGIC>MOL_PROPERTY
Valence
SciTegic.value.DoubleValue
4.943

@<SCITEGIC>MOL_PROPERTY
Coulomb
SciTegic.value.DoubleValue
19.661

@<SCITEGIC>MOL_PROPERTY
VdW
SciTegic.value.DoubleValue
0.764

@<SCITEGIC>MOL_PROPERTY
VdW6
SciTegic.value.DoubleValue
-5.871

@<SCITEGIC>MOL_PROPERTY
VdW12
SciTegic.value.DoubleValue
6.636

@<SCITEGIC>MOL_PROPERTY
Bond
SciTegic.value.DoubleValue
0.230

@<SCITEGIC>MOL_PROPERTY
Angle
SciTegic.value.DoubleValue
1.857

@<SCITEGIC>MOL_PROPERTY
Pdih
SciTegic.value.DoubleValue
2.855

@<SCITEGIC>MOL_PROPERTY
Idih
SciTegic.value.DoubleValue
0.000

@<SCITEGIC>MOL_PROPERTY
Tether
SciTegic.value.DoubleValue
0.000

@<TRIPOS>MOLECULE
guest-s10_confgen4.mol2 : confsearch ligand conformer 430
          20          19           1
SMALL
USER_CHARGES
 
@<TRIPOS>ATOM
       1    N1      19.832842   20.251893   21.460132 N.4        1 MOL1        -0.5937
       2    H1      20.437754   20.564995   20.696162 H          1 MOL1         0.3684
       3    H2      19.201342   21.025295   21.685162 H          1 MOL1         0.3684
       4    H3      19.260615   19.482545   21.107065 H          1 MOL1         0.3684
       5    C1      20.634160   19.828099   22.660445 C.3        1 MOL1         0.1270
       6    H4      21.184178   20.721869   22.971220 H          1 MOL1         0.0960
       7    C2      21.674256   18.755599   22.291046 C.3        1 MOL1        -0.2382
       8    H5      21.200230   17.856568   21.879538 H          1 MOL1         0.1009
       9    H6      22.261041   18.463654   23.170746 H          1 MOL1         0.1009
      10    H7      22.372768   19.140882   21.538315 H          1 MOL1         0.1009
      11    C3      19.750547   19.405286   23.862015 C.3        1 MOL1        -0.1392
      12    H8      20.381814   19.420405   24.760244 H          1 MOL1         0.0998
      13    H9      18.987105   20.176018   24.030379 H          1 MOL1         0.0998
      14    C4      19.064609   18.012264   23.787355 C.3        1 MOL1        -0.1302
      15    H10     18.519758   17.851683   24.728193 H          1 MOL1         0.0998
      16    H11     19.821071   17.216849   23.745986 H          1 MOL1         0.0998
      17    C5      18.069668   17.844761   22.616476 C.3        1 MOL1        -0.2317
      18    H12     17.352032   18.674779   22.581696 H          1 MOL1         0.1009
      19    H13     17.497402   16.915372   22.734450 H          1 MOL1         0.1009
      20    H14     18.587415   17.782727   21.652445 H          1 MOL1         0.1009
@<TRIPOS>BOND
    1     1     2    1
    2     1     3    1
    3     1     4    1
    4     1     5    1
    5     5     6    1
    6     5     7    1
    7     7     8    1
    8     7     9    1
    9     7    10    1
   10     5    11    1
   11    11    12    1
   12    11    13    1
   13    11    14    1
   14    14    15    1
   15    14    16    1
   16    14    17    1
   17    17    18    1
   18    17    19    1
   19    17    20    1
@<TRIPOS>SUBSTRUCTURE
       1 MOL1            1 RESIDUE      1      MOL     
@<SCITEGIC>MOL_PROPERTY
VConf Rank
SciTegic.value.IntegerValue
430

@<SCITEGIC>MOL_PROPERTY
Conf_Id
SciTegic.value.IntegerValue
55

@<SCITEGIC>MOL_PROPERTY
Delta U+W
SciTegic.value.DoubleValue
2.767

@<SCITEGIC>MOL_PROPERTY
U+W
SciTegic.value.DoubleValue
-33.509

@<SCITEGIC>MOL_PROPERTY
Grad RMS
SciTegic.value.DoubleValue
0.000000

@<SCITEGIC>MOL_PROPERTY
U
SciTegic.value.DoubleValue
24.552

@<SCITEGIC>MOL_PROPERTY
W
SciTegic.value.DoubleValue
-58.061

@<SCITEGIC>MOL_PROPERTY
W(PB)
SciTegic.value.DoubleValue
-59.930

@<SCITEGIC>MOL_PROPERTY
W(SA)
SciTegic.value.DoubleValue
1.869

@<SCITEGIC>MOL_PROPERTY
Valence
SciTegic.value.DoubleValue
3.726

@<SCITEGIC>MOL_PROPERTY
Coulomb
SciTegic.value.DoubleValue
20.219

@<SCITEGIC>MOL_PROPERTY
VdW
SciTegic.value.DoubleValue
0.606

@<SCITEGIC>MOL_PROPERTY
VdW6
SciTegic.value.DoubleValue
-6.395

@<SCITEGIC>MOL_PROPERTY
VdW12
SciTegic.value.DoubleValue
7.001

@<SCITEGIC>MOL_PROPERTY
Bond
SciTegic.value.DoubleValue
0.241

@<SCITEGIC>MOL_PROPERTY
Angle
SciTegic.value.DoubleValue
2.098

@<SCITEGIC>MOL_PROPERTY
Pdih
SciTegic.value.DoubleValue
1.387

@<SCITEGIC>MOL_PROPERTY
Idih
SciTegic.value.DoubleValue
0.000

@<SCITEGIC>MOL_PROPERTY
Tether
SciTegic.value.DoubleValue
0.000

@<TRIPOS>MOLECULE
guest-s10_confgen4.mol2 : confsearch ligand conformer 431
          20          19           1
SMALL
USER_CHARGES
 
@<TRIPOS>ATOM
       1    N1      21.637288   18.400431   22.684652 N.4        1 MOL1        -0.5937
       2    H1      21.604272   17.865923   21.813011 H          1 MOL1         0.3684
       3    H2      22.419021   18.036695   23.236238 H          1 MOL1         0.3684
       4    H3      21.860808   19.369105   22.443216 H          1 MOL1         0.3684
       5    C1      20.338885   18.304815   23.439680 C.3        1 MOL1         0.1270
       6    H4      20.458311   18.903044   24.348387 H          1 MOL1         0.0960
       7    C2      20.061053   16.850528   23.854202 C.3        1 MOL1        -0.2382
       8    H5      20.888633   16.452726   24.454310 H          1 MOL1         0.1009
       9    H6      19.933928   16.204466   22.976571 H          1 MOL1         0.1009
      10    H7      19.149487   16.785215   24.461179 H          1 MOL1         0.1009
      11    C3      19.144786   18.872962   22.641254 C.3        1 MOL1        -0.1392
      12    H8      19.017764   18.303809   21.710745 H          1 MOL1         0.0998
      13    H9      18.226395   18.726414   23.225332 H          1 MOL1         0.0998
      14    C4      19.294575   20.378934   22.317016 C.3        1 MOL1        -0.1302
      15    H10     20.177115   20.545392   21.684686 H          1 MOL1         0.0998
      16    H11     19.457545   20.943330   23.246070 H          1 MOL1         0.0998
      17    C5      18.047880   20.933118   21.594565 C.3        1 MOL1        -0.2317
      18    H12     17.875624   20.408707   20.645578 H          1 MOL1         0.1009
      19    H13     18.171738   22.000776   21.371294 H          1 MOL1         0.1009
      20    H14     17.148898   20.821536   22.214737 H          1 MOL1         0.1009
@<TRIPOS>BOND
    1     1     2    1
    2     1     3    1
    3     1     4    1
    4     1     5    1
    5     5     6    1
    6     5     7    1
    7     7     8    1
    8     7     9    1
    9     7    10    1
   10     5    11    1
   11    11    12    1
   12    11    13    1
   13    11    14    1
   14    14    15    1
   15    14    16    1
   16    14    17    1
   17    17    18    1
   18    17    19    1
   19    17    20    1
@<TRIPOS>SUBSTRUCTURE
       1 MOL1            1 RESIDUE      1      MOL     
@<SCITEGIC>MOL_PROPERTY
VConf Rank
SciTegic.value.IntegerValue
431

@<SCITEGIC>MOL_PROPERTY
Conf_Id
SciTegic.value.IntegerValue
74

@<SCITEGIC>MOL_PROPERTY
Delta U+W
SciTegic.value.DoubleValue
0.000

@<SCITEGIC>MOL_PROPERTY
U+W
SciTegic.value.DoubleValue
-36.276

@<SCITEGIC>MOL_PROPERTY
Grad RMS
SciTegic.value.DoubleValue
0.000000

@<SCITEGIC>MOL_PROPERTY
U
SciTegic.value.DoubleValue
22.080

@<SCITEGIC>MOL_PROPERTY
W
SciTegic.value.DoubleValue
-58.356

@<SCITEGIC>MOL_PROPERTY
W(PB)
SciTegic.value.DoubleValue
-60.289

@<SCITEGIC>MOL_PROPERTY
W(SA)
SciTegic.value.DoubleValue
1.932

@<SCITEGIC>MOL_PROPERTY
Valence
SciTegic.value.DoubleValue
1.885

@<SCITEGIC>MOL_PROPERTY
Coulomb
SciTegic.value.DoubleValue
19.559

@<SCITEGIC>MOL_PROPERTY
VdW
SciTegic.value.DoubleValue
0.637

@<SCITEGIC>MOL_PROPERTY
VdW6
SciTegic.value.DoubleValue
-4.482

@<SCITEGIC>MOL_PROPERTY
VdW12
SciTegic.value.DoubleValue
5.119

@<SCITEGIC>MOL_PROPERTY
Bond
SciTegic.value.DoubleValue
0.136

@<SCITEGIC>MOL_PROPERTY
Angle
SciTegic.value.DoubleValue
0.867

@<SCITEGIC>MOL_PROPERTY
Pdih
SciTegic.value.DoubleValue
0.882

@<SCITEGIC>MOL_PROPERTY
Idih
SciTegic.value.DoubleValue
0.000

@<SCITEGIC>MOL_PROPERTY
Tether
SciTegic.value.DoubleValue
0.000

@<TRIPOS>MOLECULE
guest-s10_confgen4.mol2 : confsearch ligand conformer 432
          20          19           1
SMALL
USER_CHARGES
 
@<TRIPOS>ATOM
       1    N1      19.877329   17.088601   24.235820 N.4        1 MOL1        -0.5937
       2    H1      20.709890   17.328053   24.781128 H          1 MOL1         0.3684
       3    H2      20.149342   16.368824   23.561537 H          1 MOL1         0.3684
       4    H3      19.205972   16.663044   24.880692 H          1 MOL1         0.3684
       5    C1      19.295181   18.295085   23.551739 C.3        1 MOL1         0.1270
       6    H4      19.033593   19.002601   24.344745 H          1 MOL1         0.0960
       7    C2      18.008325   17.912317   22.797889 C.3        1 MOL1        -0.2382
       8    H5      17.310543   17.391017   23.464648 H          1 MOL1         0.1009
       9    H6      18.226377   17.251033   21.950106 H          1 MOL1         0.1009
      10    H7      17.489514   18.799604   22.417389 H          1 MOL1         0.1009
      11    C3      20.334571   18.969072   22.626050 C.3        1 MOL1        -0.1392
      12    H8      21.262287   19.116357   23.194655 H          1 MOL1         0.0998
      13    H9      20.582965   18.294420   21.795993 H          1 MOL1         0.0998
      14    C4      19.878619   20.338803   22.066493 C.3        1 MOL1        -0.1302
      15    H10     19.569894   20.993076   22.893951 H          1 MOL1         0.0998
      16    H11     19.002767   20.212528   21.416232 H          1 MOL1         0.0998
      17    C5      21.001556   21.027658   21.261401 C.3        1 MOL1        -0.2317
      18    H12     21.883061   21.211884   21.889294 H          1 MOL1         0.1009
      19    H13     20.660360   21.994601   20.869364 H          1 MOL1         0.1009
      20    H14     21.312312   20.409661   20.408893 H          1 MOL1         0.1009
@<TRIPOS>BOND
    1     1     2    1
    2     1     3    1
    3     1     4    1
    4     1     5    1
    5     5     6    1
    6     5     7    1
    7     7     8    1
    8     7     9    1
    9     7    10    1
   10     5    11    1
   11    11    12    1
   12    11    13    1
   13    11    14    1
   14    14    15    1
   15    14    16    1
   16    14    17    1
   17    17    18    1
   18    17    19    1
   19    17    20    1
@<TRIPOS>SUBSTRUCTURE
       1 MOL1            1 RESIDUE      1      MOL     
@<SCITEGIC>MOL_PROPERTY
VConf Rank
SciTegic.value.IntegerValue
432

@<SCITEGIC>MOL_PROPERTY
Conf_Id
SciTegic.value.IntegerValue
80

@<SCITEGIC>MOL_PROPERTY
Delta U+W
SciTegic.value.DoubleValue
0.460

@<SCITEGIC>MOL_PROPERTY
U+W
SciTegic.value.DoubleValue
-35.817

@<SCITEGIC>MOL_PROPERTY
Grad RMS
SciTegic.value.DoubleValue
0.000000

@<SCITEGIC>MOL_PROPERTY
U
SciTegic.value.DoubleValue
22.495

@<SCITEGIC>MOL_PROPERTY
W
SciTegic.value.DoubleValue
-58.311

@<SCITEGIC>MOL_PROPERTY
W(PB)
SciTegic.value.DoubleValue
-60.259

@<SCITEGIC>MOL_PROPERTY
W(SA)
SciTegic.value.DoubleValue
1.948

@<SCITEGIC>MOL_PROPERTY
Valence
SciTegic.value.DoubleValue
2.419

@<SCITEGIC>MOL_PROPERTY
Coulomb
SciTegic.value.DoubleValue
19.304

@<SCITEGIC>MOL_PROPERTY
VdW
SciTegic.value.DoubleValue
0.772

@<SCITEGIC>MOL_PROPERTY
VdW6
SciTegic.value.DoubleValue
-4.635

@<SCITEGIC>MOL_PROPERTY
VdW12
SciTegic.value.DoubleValue
5.407

@<SCITEGIC>MOL_PROPERTY
Bond
SciTegic.value.DoubleValue
0.149

@<SCITEGIC>MOL_PROPERTY
Angle
SciTegic.value.DoubleValue
1.142

@<SCITEGIC>MOL_PROPERTY
Pdih
SciTegic.value.DoubleValue
1.129

@<SCITEGIC>MOL_PROPERTY
Idih
SciTegic.value.DoubleValue
0.000

@<SCITEGIC>MOL_PROPERTY
Tether
SciTegic.value.DoubleValue
0.000

@<TRIPOS>MOLECULE
guest-s10_confgen4.mol2 : confsearch ligand conformer 433
          20          19           1
SMALL
USER_CHARGES
 
@<TRIPOS>ATOM
       1    N1      18.947426   16.643196   22.425047 N.4        1 MOL1        -0.5937
       2    H1      18.422618   16.324884   23.244233 H          1 MOL1         0.3684
       3    H2      19.873384   16.210147   22.467010 H          1 MOL1         0.3684
       4    H3      18.473792   16.268834   21.598525 H          1 MOL1         0.3684
       5    C1      19.041451   18.143615   22.373553 C.3        1 MOL1         0.1270
       6    H4      18.012526   18.513386   22.324733 H          1 MOL1         0.0960
       7    C2      19.770139   18.587712   21.093690 C.3        1 MOL1        -0.2382
       8    H5      19.335184   18.101821   20.211722 H          1 MOL1         0.1009
       9    H6      20.836114   18.331589   21.133075 H          1 MOL1         0.1009
      10    H7      19.675979   19.669190   20.943535 H          1 MOL1         0.1009
      11    C3      19.692424   18.704128   23.661728 C.3        1 MOL1        -0.1392
      12    H8      19.129100   18.305273   24.515702 H          1 MOL1         0.0998
      13    H9      20.713742   18.315822   23.770621 H          1 MOL1         0.0998
      14    C4      19.691365   20.251504   23.776922 C.3        1 MOL1        -0.1302
      15    H10     19.521634   20.524374   24.828041 H          1 MOL1         0.0998
      16    H11     18.846881   20.675951   23.215977 H          1 MOL1         0.0998
      17    C5      21.019960   20.902687   23.325447 C.3        1 MOL1        -0.2317
      18    H12     21.860043   20.540283   23.932111 H          1 MOL1         0.1009
      19    H13     20.972286   21.993129   23.442267 H          1 MOL1         0.1009
      20    H14     21.247787   20.691535   22.274708 H          1 MOL1         0.1009
@<TRIPOS>BOND
    1     1     2    1
    2     1     3    1
    3     1     4    1
    4     1     5    1
    5     5     6    1
    6     5     7    1
    7     7     8    1
    8     7     9    1
    9     7    10    1
   10     5    11    1
   11    11    12    1
   12    11    13    1
   13    11    14    1
   14    14    15    1
   15    14    16    1
   16    14    17    1
   17    17    18    1
   18    17    19    1
   19    17    20    1
@<TRIPOS>SUBSTRUCTURE
       1 MOL1            1 RESIDUE      1      MOL     
@<SCITEGIC>MOL_PROPERTY
VConf Rank
SciTegic.value.IntegerValue
433

@<SCITEGIC>MOL_PROPERTY
Conf_Id
SciTegic.value.IntegerValue
52

@<SCITEGIC>MOL_PROPERTY
Delta U+W
SciTegic.value.DoubleValue
2.995

@<SCITEGIC>MOL_PROPERTY
U+W
SciTegic.value.DoubleValue
-33.282

@<SCITEGIC>MOL_PROPERTY
Grad RMS
SciTegic.value.DoubleValue
0.000000

@<SCITEGIC>MOL_PROPERTY
U
SciTegic.value.DoubleValue
25.224

@<SCITEGIC>MOL_PROPERTY
W
SciTegic.value.DoubleValue
-58.506

@<SCITEGIC>MOL_PROPERTY
W(PB)
SciTegic.value.DoubleValue
-60.411

@<SCITEGIC>MOL_PROPERTY
W(SA)
SciTegic.value.DoubleValue
1.905

@<SCITEGIC>MOL_PROPERTY
Valence
SciTegic.value.DoubleValue
4.945

@<SCITEGIC>MOL_PROPERTY
Coulomb
SciTegic.value.DoubleValue
19.467

@<SCITEGIC>MOL_PROPERTY
VdW
SciTegic.value.DoubleValue
0.813

@<SCITEGIC>MOL_PROPERTY
VdW6
SciTegic.value.DoubleValue
-5.458

@<SCITEGIC>MOL_PROPERTY
VdW12
SciTegic.value.DoubleValue
6.270

@<SCITEGIC>MOL_PROPERTY
Bond
SciTegic.value.DoubleValue
0.200

@<SCITEGIC>MOL_PROPERTY
Angle
SciTegic.value.DoubleValue
1.675

@<SCITEGIC>MOL_PROPERTY
Pdih
SciTegic.value.DoubleValue
3.070

@<SCITEGIC>MOL_PROPERTY
Idih
SciTegic.value.DoubleValue
0.000

@<SCITEGIC>MOL_PROPERTY
Tether
SciTegic.value.DoubleValue
0.000

@<TRIPOS>MOLECULE
guest-s10_confgen4.mol2 : confsearch ligand conformer 434
          20          19           1
SMALL
USER_CHARGES
 
@<TRIPOS>ATOM
       1    N1      18.284737   19.224158   23.404295 N.4        1 MOL1        -0.5937
       2    H1      18.420315   19.948983   24.113256 H          1 MOL1         0.3684
       3    H2      17.432367   18.712811   23.648502 H          1 MOL1         0.3684
       4    H3      18.117518   19.695701   22.512852 H          1 MOL1         0.3684
       5    C1      19.474826   18.307510   23.322480 C.3        1 MOL1         0.1270
       6    H4      19.237183   17.536080   22.583456 H          1 MOL1         0.0960
       7    C2      19.697953   17.620146   24.680238 C.3        1 MOL1        -0.2382
       8    H5      19.956071   18.350412   25.457376 H          1 MOL1         0.1009
       9    H6      20.510462   16.885571   24.617982 H          1 MOL1         0.1009
      10    H7      18.794080   17.086586   24.999083 H          1 MOL1         0.1009
      11    C3      20.762492   19.035441   22.868311 C.3        1 MOL1        -0.1392
      12    H8      20.886608   19.966547   23.436827 H          1 MOL1         0.0998
      13    H9      21.627527   18.409696   23.125688 H          1 MOL1         0.0998
      14    C4      20.844011   19.323887   21.346220 C.3        1 MOL1        -0.1302
      15    H10     20.766344   18.381398   20.786114 H          1 MOL1         0.0998
      16    H11     21.843872   19.724168   21.126949 H          1 MOL1         0.0998
      17    C5      19.792394   20.325985   20.817914 C.3        1 MOL1        -0.2317
      18    H12     20.039614   20.628793   19.792012 H          1 MOL1         0.1009
      19    H13     19.761293   21.234394   21.433661 H          1 MOL1         0.1009
      20    H14     18.790728   19.882003   20.786559 H          1 MOL1         0.1009
@<TRIPOS>BOND
    1     1     2    1
    2     1     3    1
    3     1     4    1
    4     1     5    1
    5     5     6    1
    6     5     7    1
    7     7     8    1
    8     7     9    1
    9     7    10    1
   10     5    11    1
   11    11    12    1
   12    11    13    1
   13    11    14    1
   14    14    15    1
   15    14    16    1
   16    14    17    1
   17    17    18    1
   18    17    19    1
   19    17    20    1
@<TRIPOS>SUBSTRUCTURE
       1 MOL1            1 RESIDUE      1      MOL     
@<SCITEGIC>MOL_PROPERTY
VConf Rank
SciTegic.value.IntegerValue
434

@<SCITEGIC>MOL_PROPERTY
Conf_Id
SciTegic.value.IntegerValue
54

@<SCITEGIC>MOL_PROPERTY
Delta U+W
SciTegic.value.DoubleValue
2.752

@<SCITEGIC>MOL_PROPERTY
U+W
SciTegic.value.DoubleValue
-33.525

@<SCITEGIC>MOL_PROPERTY
Grad RMS
SciTegic.value.DoubleValue
0.000000

@<SCITEGIC>MOL_PROPERTY
U
SciTegic.value.DoubleValue
24.337

@<SCITEGIC>MOL_PROPERTY
W
SciTegic.value.DoubleValue
-57.862

@<SCITEGIC>MOL_PROPERTY
W(PB)
SciTegic.value.DoubleValue
-59.764

@<SCITEGIC>MOL_PROPERTY
W(SA)
SciTegic.value.DoubleValue
1.901

@<SCITEGIC>MOL_PROPERTY
Valence
SciTegic.value.DoubleValue
3.593

@<SCITEGIC>MOL_PROPERTY
Coulomb
SciTegic.value.DoubleValue
20.067

@<SCITEGIC>MOL_PROPERTY
VdW
SciTegic.value.DoubleValue
0.677

@<SCITEGIC>MOL_PROPERTY
VdW6
SciTegic.value.DoubleValue
-5.466

@<SCITEGIC>MOL_PROPERTY
VdW12
SciTegic.value.DoubleValue
6.144

@<SCITEGIC>MOL_PROPERTY
Bond
SciTegic.value.DoubleValue
0.191

@<SCITEGIC>MOL_PROPERTY
Angle
SciTegic.value.DoubleValue
1.557

@<SCITEGIC>MOL_PROPERTY
Pdih
SciTegic.value.DoubleValue
1.845

@<SCITEGIC>MOL_PROPERTY
Idih
SciTegic.value.DoubleValue
0.000

@<SCITEGIC>MOL_PROPERTY
Tether
SciTegic.value.DoubleValue
0.000

@<TRIPOS>MOLECULE
guest-s10_confgen4.mol2 : confsearch ligand conformer 435
          20          19           1
SMALL
USER_CHARGES
 
@<TRIPOS>ATOM
       1    N1      19.283218   18.081595   24.508163 N.4        1 MOL1        -0.5937
       2    H1      19.622257   17.900846   25.456865 H          1 MOL1         0.3684
       3    H2      18.659608   17.309953   24.256387 H          1 MOL1         0.3684
       4    H3      18.719288   18.933792   24.542691 H          1 MOL1         0.3684
       5    C1      20.421082   18.214120   23.532669 C.3        1 MOL1         0.1270
       6    H4      20.970992   17.268878   23.578909 H          1 MOL1         0.0960
       7    C2      21.387255   19.333821   23.958843 C.3        1 MOL1        -0.2382
       8    H5      22.214278   19.428416   23.244310 H          1 MOL1         0.1009
       9    H6      21.821407   19.112274   24.941449 H          1 MOL1         0.1009
      10    H7      20.880121   20.303373   24.028307 H          1 MOL1         0.1009
      11    C3      19.934224   18.389566   22.074163 C.3        1 MOL1        -0.1392
      12    H8      20.807298   18.388920   21.408221 H          1 MOL1         0.0998
      13    H9      19.343655   17.506524   21.796906 H          1 MOL1         0.0998
      14    C4      19.093150   19.665965   21.813885 C.3        1 MOL1        -0.1302
      15    H10     19.685510   20.563481   22.036568 H          1 MOL1         0.0998
      16    H11     18.219766   19.686973   22.479408 H          1 MOL1         0.0998
      17    C5      18.610861   19.737452   20.349094 C.3        1 MOL1        -0.2317
      18    H12     18.019252   20.646476   20.179569 H          1 MOL1         0.1009
      19    H13     17.980602   18.874439   20.097690 H          1 MOL1         0.1009
      20    H14     19.460252   19.754437   19.653774 H          1 MOL1         0.1009
@<TRIPOS>BOND
    1     1     2    1
    2     1     3    1
    3     1     4    1
    4     1     5    1
    5     5     6    1
    6     5     7    1
    7     7     8    1
    8     7     9    1
    9     7    10    1
   10     5    11    1
   11    11    12    1
   12    11    13    1
   13    11    14    1
   14    14    15    1
   15    14    16    1
   16    14    17    1
   17    17    18    1
   18    17    19    1
   19    17    20    1
@<TRIPOS>SUBSTRUCTURE
       1 MOL1            1 RESIDUE      1      MOL     
@<SCITEGIC>MOL_PROPERTY
VConf Rank
SciTegic.value.IntegerValue
435

@<SCITEGIC>MOL_PROPERTY
Conf_Id
SciTegic.value.IntegerValue
63

@<SCITEGIC>MOL_PROPERTY
Delta U+W
SciTegic.value.DoubleValue
0.420

@<SCITEGIC>MOL_PROPERTY
U+W
SciTegic.value.DoubleValue
-35.856

@<SCITEGIC>MOL_PROPERTY
Grad RMS
SciTegic.value.DoubleValue
0.000000

@<SCITEGIC>MOL_PROPERTY
U
SciTegic.value.DoubleValue
22.625

@<SCITEGIC>MOL_PROPERTY
W
SciTegic.value.DoubleValue
-58.481

@<SCITEGIC>MOL_PROPERTY
W(PB)
SciTegic.value.DoubleValue
-60.400

@<SCITEGIC>MOL_PROPERTY
W(SA)
SciTegic.value.DoubleValue
1.919

@<SCITEGIC>MOL_PROPERTY
Valence
SciTegic.value.DoubleValue
2.404

@<SCITEGIC>MOL_PROPERTY
Coulomb
SciTegic.value.DoubleValue
19.464

@<SCITEGIC>MOL_PROPERTY
VdW
SciTegic.value.DoubleValue
0.757

@<SCITEGIC>MOL_PROPERTY
VdW6
SciTegic.value.DoubleValue
-5.074

@<SCITEGIC>MOL_PROPERTY
VdW12
SciTegic.value.DoubleValue
5.830

@<SCITEGIC>MOL_PROPERTY
Bond
SciTegic.value.DoubleValue
0.172

@<SCITEGIC>MOL_PROPERTY
Angle
SciTegic.value.DoubleValue
1.207

@<SCITEGIC>MOL_PROPERTY
Pdih
SciTegic.value.DoubleValue
1.025

@<SCITEGIC>MOL_PROPERTY
Idih
SciTegic.value.DoubleValue
0.000

@<SCITEGIC>MOL_PROPERTY
Tether
SciTegic.value.DoubleValue
0.000

@<TRIPOS>MOLECULE
guest-s10_confgen4.mol2 : confsearch ligand conformer 436
          20          19           1
SMALL
USER_CHARGES
 
@<TRIPOS>ATOM
       1    N1      18.609425   19.204173   24.151417 N.4        1 MOL1        -0.5937
       2    H1      18.428044   18.201687   24.056560 H          1 MOL1         0.3684
       3    H2      17.759946   19.699023   23.868698 H          1 MOL1         0.3684
       4    H3      18.758167   19.395207   25.145863 H          1 MOL1         0.3684
       5    C1      19.794002   19.626102   23.325020 C.3        1 MOL1         0.1270
       6    H4      20.652796   19.056063   23.691978 H          1 MOL1         0.0960
       7    C2      20.091383   21.121028   23.525699 C.3        1 MOL1        -0.2382
       8    H5      20.263666   21.343858   24.585842 H          1 MOL1         0.1009
       9    H6      19.257282   21.742697   23.177050 H          1 MOL1         0.1009
      10    H7      20.991965   21.416808   22.973351 H          1 MOL1         0.1009
      11    C3      19.609269   19.311093   21.823146 C.3        1 MOL1        -0.1392
      12    H8      18.760463   19.887448   21.431766 H          1 MOL1         0.0998
      13    H9      20.494590   19.658108   21.273861 H          1 MOL1         0.0998
      14    C4      19.388612   17.809025   21.511699 C.3        1 MOL1        -0.1302
      15    H10     19.264232   17.688625   20.426371 H          1 MOL1         0.0998
      16    H11     18.449574   17.461213   21.963141 H          1 MOL1         0.0998
      17    C5      20.557240   16.914256   21.983994 C.3        1 MOL1        -0.2317
      18    H12     21.508193   17.243062   21.544955 H          1 MOL1         0.1009
      19    H13     20.391105   15.872596   21.680001 H          1 MOL1         0.1009
      20    H14     20.661405   16.927061   23.076186 H          1 MOL1         0.1009
@<TRIPOS>BOND
    1     1     2    1
    2     1     3    1
    3     1     4    1
    4     1     5    1
    5     5     6    1
    6     5     7    1
    7     7     8    1
    8     7     9    1
    9     7    10    1
   10     5    11    1
   11    11    12    1
   12    11    13    1
   13    11    14    1
   14    14    15    1
   15    14    16    1
   16    14    17    1
   17    17    18    1
   18    17    19    1
   19    17    20    1
@<TRIPOS>SUBSTRUCTURE
       1 MOL1            1 RESIDUE      1      MOL     
@<SCITEGIC>MOL_PROPERTY
VConf Rank
SciTegic.value.IntegerValue
436

@<SCITEGIC>MOL_PROPERTY
Conf_Id
SciTegic.value.IntegerValue
50

@<SCITEGIC>MOL_PROPERTY
Delta U+W
SciTegic.value.DoubleValue
0.466

@<SCITEGIC>MOL_PROPERTY
U+W
SciTegic.value.DoubleValue
-35.811

@<SCITEGIC>MOL_PROPERTY
Grad RMS
SciTegic.value.DoubleValue
0.000000

@<SCITEGIC>MOL_PROPERTY
U
SciTegic.value.DoubleValue
22.369

@<SCITEGIC>MOL_PROPERTY
W
SciTegic.value.DoubleValue
-58.180

@<SCITEGIC>MOL_PROPERTY
W(PB)
SciTegic.value.DoubleValue
-60.103

@<SCITEGIC>MOL_PROPERTY
W(SA)
SciTegic.value.DoubleValue
1.923

@<SCITEGIC>MOL_PROPERTY
Valence
SciTegic.value.DoubleValue
2.168

@<SCITEGIC>MOL_PROPERTY
Coulomb
SciTegic.value.DoubleValue
19.636

@<SCITEGIC>MOL_PROPERTY
VdW
SciTegic.value.DoubleValue
0.566

@<SCITEGIC>MOL_PROPERTY
VdW6
SciTegic.value.DoubleValue
-5.263

@<SCITEGIC>MOL_PROPERTY
VdW12
SciTegic.value.DoubleValue
5.829

@<SCITEGIC>MOL_PROPERTY
Bond
SciTegic.value.DoubleValue
0.162

@<SCITEGIC>MOL_PROPERTY
Angle
SciTegic.value.DoubleValue
1.066

@<SCITEGIC>MOL_PROPERTY
Pdih
SciTegic.value.DoubleValue
0.939

@<SCITEGIC>MOL_PROPERTY
Idih
SciTegic.value.DoubleValue
0.000

@<SCITEGIC>MOL_PROPERTY
Tether
SciTegic.value.DoubleValue
0.000

@<TRIPOS>MOLECULE
guest-s10_confgen4.mol2 : confsearch ligand conformer 437
          20          19           1
SMALL
USER_CHARGES
 
@<TRIPOS>ATOM
       1    N1      18.068822   17.328345   22.271848 N.4        1 MOL1        -0.5937
       2    H1      18.385084   16.889325   21.402805 H          1 MOL1         0.3684
       3    H2      17.213745   17.848644   22.059703 H          1 MOL1         0.3684
       4    H3      17.814382   16.574612   22.915962 H          1 MOL1         0.3684
       5    C1      19.127781   18.221280   22.859940 C.3        1 MOL1         0.1270
       6    H4      19.995683   17.581626   23.047959 H          1 MOL1         0.0960
       7    C2      18.642184   18.801510   24.201392 C.3        1 MOL1        -0.2382
       8    H5      17.741932   19.413465   24.064554 H          1 MOL1         0.1009
       9    H6      19.407731   19.429782   24.669368 H          1 MOL1         0.1009
      10    H7      18.400265   17.996103   24.905610 H          1 MOL1         0.1009
      11    C3      19.555849   19.336828   21.874779 C.3        1 MOL1        -0.1392
      12    H8      19.229717   19.066313   20.861797 H          1 MOL1         0.0998
      13    H9      19.038340   20.276277   22.110644 H          1 MOL1         0.0998
      14    C4      21.086774   19.571217   21.819012 C.3        1 MOL1        -0.1302
      15    H10     21.299039   20.319345   21.042365 H          1 MOL1         0.0998
      16    H11     21.588349   18.647472   21.497766 H          1 MOL1         0.0998
      17    C5      21.701853   20.051104   23.152288 C.3        1 MOL1        -0.2317
      18    H12     21.192897   20.950455   23.522639 H          1 MOL1         0.1009
      19    H13     22.762824   20.298686   23.017812 H          1 MOL1         0.1009
      20    H14     21.642430   19.273657   23.924087 H          1 MOL1         0.1009
@<TRIPOS>BOND
    1     1     2    1
    2     1     3    1
    3     1     4    1
    4     1     5    1
    5     5     6    1
    6     5     7    1
    7     7     8    1
    8     7     9    1
    9     7    10    1
   10     5    11    1
   11    11    12    1
   12    11    13    1
   13    11    14    1
   14    14    15    1
   15    14    16    1
   16    14    17    1
   17    17    18    1
   18    17    19    1
   19    17    20    1
@<TRIPOS>SUBSTRUCTURE
       1 MOL1            1 RESIDUE      1      MOL     
@<SCITEGIC>MOL_PROPERTY
VConf Rank
SciTegic.value.IntegerValue
437

@<SCITEGIC>MOL_PROPERTY
Conf_Id
SciTegic.value.IntegerValue
3

@<SCITEGIC>MOL_PROPERTY
Delta U+W
SciTegic.value.DoubleValue
3.093

@<SCITEGIC>MOL_PROPERTY
U+W
SciTegic.value.DoubleValue
-33.184

@<SCITEGIC>MOL_PROPERTY
Grad RMS
SciTegic.value.DoubleValue
0.000000

@<SCITEGIC>MOL_PROPERTY
U
SciTegic.value.DoubleValue
25.256

@<SCITEGIC>MOL_PROPERTY
W
SciTegic.value.DoubleValue
-58.439

@<SCITEGIC>MOL_PROPERTY
W(PB)
SciTegic.value.DoubleValue
-60.337

@<SCITEGIC>MOL_PROPERTY
W(SA)
SciTegic.value.DoubleValue
1.898

@<SCITEGIC>MOL_PROPERTY
Valence
SciTegic.value.DoubleValue
4.963

@<SCITEGIC>MOL_PROPERTY
Coulomb
SciTegic.value.DoubleValue
19.511

@<SCITEGIC>MOL_PROPERTY
VdW
SciTegic.value.DoubleValue
0.782

@<SCITEGIC>MOL_PROPERTY
VdW6
SciTegic.value.DoubleValue
-5.429

@<SCITEGIC>MOL_PROPERTY
VdW12
SciTegic.value.DoubleValue
6.211

@<SCITEGIC>MOL_PROPERTY
Bond
SciTegic.value.DoubleValue
0.174

@<SCITEGIC>MOL_PROPERTY
Angle
SciTegic.value.DoubleValue
1.377

@<SCITEGIC>MOL_PROPERTY
Pdih
SciTegic.value.DoubleValue
3.412

@<SCITEGIC>MOL_PROPERTY
Idih
SciTegic.value.DoubleValue
0.000

@<SCITEGIC>MOL_PROPERTY
Tether
SciTegic.value.DoubleValue
0.000

@<TRIPOS>MOLECULE
guest-s10_confgen4.mol2 : confsearch ligand conformer 438
          20          19           1
SMALL
USER_CHARGES
 
@<TRIPOS>ATOM
       1    N1      21.177932   17.229693   22.930261 N.4        1 MOL1        -0.5937
       2    H1      21.797119   17.107301   23.736030 H          1 MOL1         0.3684
       3    H2      21.773761   17.357088   22.107711 H          1 MOL1         0.3684
       4    H3      20.665751   16.353005   22.804669 H          1 MOL1         0.3684
       5    C1      20.243815   18.392419   23.124872 C.3        1 MOL1         0.1270
       6    H4      20.876516   19.275734   23.253481 H          1 MOL1         0.0960
       7    C2      19.410077   18.201076   24.404860 C.3        1 MOL1        -0.2382
       8    H5      18.826506   19.099370   24.637344 H          1 MOL1         0.1009
       9    H6      20.061753   18.005971   25.265317 H          1 MOL1         0.1009
      10    H7      18.716732   17.356844   24.304695 H          1 MOL1         0.1009
      11    C3      19.353131   18.609908   21.878354 C.3        1 MOL1        -0.1392
      12    H8      19.997248   18.658697   20.990515 H          1 MOL1         0.0998
      13    H9      18.705882   17.734227   21.736973 H          1 MOL1         0.0998
      14    C4      18.475698   19.887362   21.914788 C.3        1 MOL1        -0.1302
      15    H10     17.725919   19.812713   22.713869 H          1 MOL1         0.0998
      16    H11     17.907940   19.951069   20.975942 H          1 MOL1         0.0998
      17    C5      19.299454   21.183388   22.090555 C.3        1 MOL1        -0.2317
      18    H12     20.058705   21.278626   21.303392 H          1 MOL1         0.1009
      19    H13     19.807443   21.209618   23.062833 H          1 MOL1         0.1009
      20    H14     18.646925   22.064357   22.034742 H          1 MOL1         0.1009
@<TRIPOS>BOND
    1     1     2    1
    2     1     3    1
    3     1     4    1
    4     1     5    1
    5     5     6    1
    6     5     7    1
    7     7     8    1
    8     7     9    1
    9     7    10    1
   10     5    11    1
   11    11    12    1
   12    11    13    1
   13    11    14    1
   14    14    15    1
   15    14    16    1
   16    14    17    1
   17    17    18    1
   18    17    19    1
   19    17    20    1
@<TRIPOS>SUBSTRUCTURE
       1 MOL1            1 RESIDUE      1      MOL     
@<SCITEGIC>MOL_PROPERTY
VConf Rank
SciTegic.value.IntegerValue
438

@<SCITEGIC>MOL_PROPERTY
Conf_Id
SciTegic.value.IntegerValue
64

@<SCITEGIC>MOL_PROPERTY
Delta U+W
SciTegic.value.DoubleValue
0.544

@<SCITEGIC>MOL_PROPERTY
U+W
SciTegic.value.DoubleValue
-35.732

@<SCITEGIC>MOL_PROPERTY
Grad RMS
SciTegic.value.DoubleValue
0.000000

@<SCITEGIC>MOL_PROPERTY
U
SciTegic.value.DoubleValue
22.800

@<SCITEGIC>MOL_PROPERTY
W
SciTegic.value.DoubleValue
-58.532

@<SCITEGIC>MOL_PROPERTY
W(PB)
SciTegic.value.DoubleValue
-60.437

@<SCITEGIC>MOL_PROPERTY
W(SA)
SciTegic.value.DoubleValue
1.905

@<SCITEGIC>MOL_PROPERTY
Valence
SciTegic.value.DoubleValue
2.662

@<SCITEGIC>MOL_PROPERTY
Coulomb
SciTegic.value.DoubleValue
19.485

@<SCITEGIC>MOL_PROPERTY
VdW
SciTegic.value.DoubleValue
0.653

@<SCITEGIC>MOL_PROPERTY
VdW6
SciTegic.value.DoubleValue
-5.460

@<SCITEGIC>MOL_PROPERTY
VdW12
SciTegic.value.DoubleValue
6.113

@<SCITEGIC>MOL_PROPERTY
Bond
SciTegic.value.DoubleValue
0.174

@<SCITEGIC>MOL_PROPERTY
Angle
SciTegic.value.DoubleValue
1.378

@<SCITEGIC>MOL_PROPERTY
Pdih
SciTegic.value.DoubleValue
1.109

@<SCITEGIC>MOL_PROPERTY
Idih
SciTegic.value.DoubleValue
0.000

@<SCITEGIC>MOL_PROPERTY
Tether
SciTegic.value.DoubleValue
0.000

@<TRIPOS>MOLECULE
guest-s10_confgen4.mol2 : confsearch ligand conformer 439
          20          19           1
SMALL
USER_CHARGES
 
@<TRIPOS>ATOM
       1    N1      18.103101   17.994726   23.580446 N.4        1 MOL1        -0.5937
       2    H1      18.636225   17.188320   23.247639 H          1 MOL1         0.3684
       3    H2      17.131471   17.860559   23.287962 H          1 MOL1         0.3684
       4    H3      18.117921   17.971789   24.603634 H          1 MOL1         0.3684
       5    C1      18.665154   19.284951   23.047297 C.3        1 MOL1         0.1270
       6    H4      18.025353   20.077861   23.447188 H          1 MOL1         0.0960
       7    C2      18.557852   19.337650   21.514511 C.3        1 MOL1        -0.2382
       8    H5      19.067329   18.487093   21.046861 H          1 MOL1         0.1009
       9    H6      18.994533   20.264937   21.123632 H          1 MOL1         0.1009
      10    H7      17.506575   19.308201   21.203191 H          1 MOL1         0.1009
      11    C3      20.100387   19.560115   23.562399 C.3        1 MOL1        -0.1392
      12    H8      20.394761   20.582600   23.291540 H          1 MOL1         0.0998
      13    H9      20.061944   19.552764   24.659645 H          1 MOL1         0.0998
      14    C4      21.197515   18.557964   23.107175 C.3        1 MOL1        -0.1302
      15    H10     20.775940   17.554684   22.961975 H          1 MOL1         0.0998
      16    H11     21.933143   18.458657   23.917714 H          1 MOL1         0.0998
      17    C5      21.954904   19.006392   21.835161 C.3        1 MOL1        -0.2317
      18    H12     21.293012   19.085660   20.965912 H          1 MOL1         0.1009
      19    H13     22.743886   18.285418   21.584821 H          1 MOL1         0.1009
      20    H14     22.433607   19.982604   21.986474 H          1 MOL1         0.1009
@<TRIPOS>BOND
    1     1     2    1
    2     1     3    1
    3     1     4    1
    4     1     5    1
    5     5     6    1
    6     5     7    1
    7     7     8    1
    8     7     9    1
    9     7    10    1
   10     5    11    1
   11    11    12    1
   12    11    13    1
   13    11    14    1
   14    14    15    1
   15    14    16    1
   16    14    17    1
   17    17    18    1
   18    17    19    1
   19    17    20    1
@<TRIPOS>SUBSTRUCTURE
       1 MOL1            1 RESIDUE      1      MOL     
@<SCITEGIC>MOL_PROPERTY
VConf Rank
SciTegic.value.IntegerValue
439

@<SCITEGIC>MOL_PROPERTY
Conf_Id
SciTegic.value.IntegerValue
35

@<SCITEGIC>MOL_PROPERTY
Delta U+W
SciTegic.value.DoubleValue
3.004

@<SCITEGIC>MOL_PROPERTY
U+W
SciTegic.value.DoubleValue
-33.272

@<SCITEGIC>MOL_PROPERTY
Grad RMS
SciTegic.value.DoubleValue
0.000000

@<SCITEGIC>MOL_PROPERTY
U
SciTegic.value.DoubleValue
25.367

@<SCITEGIC>MOL_PROPERTY
W
SciTegic.value.DoubleValue
-58.639

@<SCITEGIC>MOL_PROPERTY
W(PB)
SciTegic.value.DoubleValue
-60.512

@<SCITEGIC>MOL_PROPERTY
W(SA)
SciTegic.value.DoubleValue
1.873

@<SCITEGIC>MOL_PROPERTY
Valence
SciTegic.value.DoubleValue
4.943

@<SCITEGIC>MOL_PROPERTY
Coulomb
SciTegic.value.DoubleValue
19.661

@<SCITEGIC>MOL_PROPERTY
VdW
SciTegic.value.DoubleValue
0.764

@<SCITEGIC>MOL_PROPERTY
VdW6
SciTegic.value.DoubleValue
-5.871

@<SCITEGIC>MOL_PROPERTY
VdW12
SciTegic.value.DoubleValue
6.636

@<SCITEGIC>MOL_PROPERTY
Bond
SciTegic.value.DoubleValue
0.230

@<SCITEGIC>MOL_PROPERTY
Angle
SciTegic.value.DoubleValue
1.857

@<SCITEGIC>MOL_PROPERTY
Pdih
SciTegic.value.DoubleValue
2.855

@<SCITEGIC>MOL_PROPERTY
Idih
SciTegic.value.DoubleValue
0.000

@<SCITEGIC>MOL_PROPERTY
Tether
SciTegic.value.DoubleValue
0.000

@<TRIPOS>MOLECULE
guest-s10_confgen4.mol2 : confsearch ligand conformer 440
          20          19           1
SMALL
USER_CHARGES
 
@<TRIPOS>ATOM
       1    N1      18.592903   20.179193   22.201842 N.4        1 MOL1        -0.5937
       2    H1      17.661298   20.491483   22.488529 H          1 MOL1         0.3684
       3    H2      18.747953   20.518409   21.248704 H          1 MOL1         0.3684
       4    H3      19.274594   20.642121   22.805987 H          1 MOL1         0.3684
       5    C1      18.722296   18.682750   22.281720 C.3        1 MOL1         0.1270
       6    H4      17.973980   18.290231   21.586106 H          1 MOL1         0.0960
       7    C2      18.361534   18.162036   23.684296 C.3        1 MOL1        -0.2382
       8    H5      19.014290   18.588918   24.454994 H          1 MOL1         0.1009
       9    H6      18.446919   17.069203   23.727227 H          1 MOL1         0.1009
      10    H7      17.327261   18.424968   23.937506 H          1 MOL1         0.1009
      11    C3      20.100640   18.165623   21.795860 C.3        1 MOL1        -0.1392
      12    H8      19.999243   17.091694   21.591072 H          1 MOL1         0.0998
      13    H9      20.331272   18.625841   20.826208 H          1 MOL1         0.0998
      14    C4      21.310783   18.354053   22.753275 C.3        1 MOL1        -0.1302
      15    H10     22.191370   17.896605   22.280905 H          1 MOL1         0.0998
      16    H11     21.151255   17.792785   23.683953 H          1 MOL1         0.0998
      17    C5      21.648245   19.825450   23.084989 C.3        1 MOL1        -0.2317
      18    H12     21.729043   20.430990   22.172886 H          1 MOL1         0.1009
      19    H13     22.610538   19.885283   23.609949 H          1 MOL1         0.1009
      20    H14     20.895190   20.273910   23.743061 H          1 MOL1         0.1009
@<TRIPOS>BOND
    1     1     2    1
    2     1     3    1
    3     1     4    1
    4     1     5    1
    5     5     6    1
    6     5     7    1
    7     7     8    1
    8     7     9    1
    9     7    10    1
   10     5    11    1
   11    11    12    1
   12    11    13    1
   13    11    14    1
   14    14    15    1
   15    14    16    1
   16    14    17    1
   17    17    18    1
   18    17    19    1
   19    17    20    1
@<TRIPOS>SUBSTRUCTURE
       1 MOL1            1 RESIDUE      1      MOL     
@<SCITEGIC>MOL_PROPERTY
VConf Rank
SciTegic.value.IntegerValue
440

@<SCITEGIC>MOL_PROPERTY
Conf_Id
SciTegic.value.IntegerValue
55

@<SCITEGIC>MOL_PROPERTY
Delta U+W
SciTegic.value.DoubleValue
2.767

@<SCITEGIC>MOL_PROPERTY
U+W
SciTegic.value.DoubleValue
-33.509

@<SCITEGIC>MOL_PROPERTY
Grad RMS
SciTegic.value.DoubleValue
0.000000

@<SCITEGIC>MOL_PROPERTY
U
SciTegic.value.DoubleValue
24.552

@<SCITEGIC>MOL_PROPERTY
W
SciTegic.value.DoubleValue
-58.061

@<SCITEGIC>MOL_PROPERTY
W(PB)
SciTegic.value.DoubleValue
-59.930

@<SCITEGIC>MOL_PROPERTY
W(SA)
SciTegic.value.DoubleValue
1.869

@<SCITEGIC>MOL_PROPERTY
Valence
SciTegic.value.DoubleValue
3.726

@<SCITEGIC>MOL_PROPERTY
Coulomb
SciTegic.value.DoubleValue
20.219

@<SCITEGIC>MOL_PROPERTY
VdW
SciTegic.value.DoubleValue
0.606

@<SCITEGIC>MOL_PROPERTY
VdW6
SciTegic.value.DoubleValue
-6.395

@<SCITEGIC>MOL_PROPERTY
VdW12
SciTegic.value.DoubleValue
7.001

@<SCITEGIC>MOL_PROPERTY
Bond
SciTegic.value.DoubleValue
0.241

@<SCITEGIC>MOL_PROPERTY
Angle
SciTegic.value.DoubleValue
2.098

@<SCITEGIC>MOL_PROPERTY
Pdih
SciTegic.value.DoubleValue
1.387

@<SCITEGIC>MOL_PROPERTY
Idih
SciTegic.value.DoubleValue
0.000

@<SCITEGIC>MOL_PROPERTY
Tether
SciTegic.value.DoubleValue
0.000

@<TRIPOS>MOLECULE
guest-s10_confgen4.mol2 : confsearch ligand conformer 441
          20          19           1
SMALL
USER_CHARGES
 
@<TRIPOS>ATOM
       1    N1      18.766789   17.900645   24.065891 N.4        1 MOL1        -0.5937
       2    H1      19.436117   18.008644   24.831973 H          1 MOL1         0.3684
       3    H2      18.236119   17.043486   24.242881 H          1 MOL1         0.3684
       4    H3      18.108558   18.681913   24.120059 H          1 MOL1         0.3684
       5    C1      19.459714   17.853668   22.730710 C.3        1 MOL1         0.1270
       6    H4      18.677224   17.741976   21.973662 H          1 MOL1         0.0960
       7    C2      20.388207   16.631033   22.646860 C.3        1 MOL1        -0.2382
       8    H5      19.828223   15.704926   22.825767 H          1 MOL1         0.1009
       9    H6      21.193810   16.692104   23.389199 H          1 MOL1         0.1009
      10    H7      20.845299   16.555740   21.652356 H          1 MOL1         0.1009
      11    C3      20.246448   19.147275   22.424472 C.3        1 MOL1        -0.1392
      12    H8      21.024586   19.295675   23.184994 H          1 MOL1         0.0998
      13    H9      20.766233   19.026805   21.464588 H          1 MOL1         0.0998
      14    C4      19.343246   20.401853   22.348454 C.3        1 MOL1        -0.1302
      15    H10     18.854275   20.577075   23.316251 H          1 MOL1         0.0998
      16    H11     18.543280   20.238189   21.612581 H          1 MOL1         0.0998
      17    C5      20.147499   21.660259   21.957436 C.3        1 MOL1        -0.2317
      18    H12     20.936970   21.868291   22.691407 H          1 MOL1         0.1009
      19    H13     19.492335   22.539782   21.909639 H          1 MOL1         0.1009
      20    H14     20.619074   21.538589   20.973543 H          1 MOL1         0.1009
@<TRIPOS>BOND
    1     1     2    1
    2     1     3    1
    3     1     4    1
    4     1     5    1
    5     5     6    1
    6     5     7    1
    7     7     8    1
    8     7     9    1
    9     7    10    1
   10     5    11    1
   11    11    12    1
   12    11    13    1
   13    11    14    1
   14    14    15    1
   15    14    16    1
   16    14    17    1
   17    17    18    1
   18    17    19    1
   19    17    20    1
@<TRIPOS>SUBSTRUCTURE
       1 MOL1            1 RESIDUE      1      MOL     
@<SCITEGIC>MOL_PROPERTY
VConf Rank
SciTegic.value.IntegerValue
441

@<SCITEGIC>MOL_PROPERTY
Conf_Id
SciTegic.value.IntegerValue
74

@<SCITEGIC>MOL_PROPERTY
Delta U+W
SciTegic.value.DoubleValue
0.000

@<SCITEGIC>MOL_PROPERTY
U+W
SciTegic.value.DoubleValue
-36.276

@<SCITEGIC>MOL_PROPERTY
Grad RMS
SciTegic.value.DoubleValue
0.000000

@<SCITEGIC>MOL_PROPERTY
U
SciTegic.value.DoubleValue
22.080

@<SCITEGIC>MOL_PROPERTY
W
SciTegic.value.DoubleValue
-58.356

@<SCITEGIC>MOL_PROPERTY
W(PB)
SciTegic.value.DoubleValue
-60.289

@<SCITEGIC>MOL_PROPERTY
W(SA)
SciTegic.value.DoubleValue
1.932

@<SCITEGIC>MOL_PROPERTY
Valence
SciTegic.value.DoubleValue
1.885

@<SCITEGIC>MOL_PROPERTY
Coulomb
SciTegic.value.DoubleValue
19.559

@<SCITEGIC>MOL_PROPERTY
VdW
SciTegic.value.DoubleValue
0.637

@<SCITEGIC>MOL_PROPERTY
VdW6
SciTegic.value.DoubleValue
-4.482

@<SCITEGIC>MOL_PROPERTY
VdW12
SciTegic.value.DoubleValue
5.119

@<SCITEGIC>MOL_PROPERTY
Bond
SciTegic.value.DoubleValue
0.136

@<SCITEGIC>MOL_PROPERTY
Angle
SciTegic.value.DoubleValue
0.867

@<SCITEGIC>MOL_PROPERTY
Pdih
SciTegic.value.DoubleValue
0.882

@<SCITEGIC>MOL_PROPERTY
Idih
SciTegic.value.DoubleValue
0.000

@<SCITEGIC>MOL_PROPERTY
Tether
SciTegic.value.DoubleValue
0.000

@<TRIPOS>MOLECULE
guest-s10_confgen4.mol2 : confsearch ligand conformer 442
          20          19           1
SMALL
USER_CHARGES
 
@<TRIPOS>ATOM
       1    N1      21.863676   19.279741   23.763298 N.4        1 MOL1        -0.5937
       2    H1      21.795804   20.258557   24.055136 H          1 MOL1         0.3684
       3    H2      22.443697   19.250732   22.921003 H          1 MOL1         0.3684
       4    H3      22.370313   18.779698   24.498794 H          1 MOL1         0.3684
       5    C1      20.507119   18.676710   23.521281 C.3        1 MOL1         0.1270
       6    H4      19.964355   18.748898   24.468942 H          1 MOL1         0.0960
       7    C2      20.642846   17.188328   23.151016 C.3        1 MOL1        -0.2382
       8    H5      21.245812   16.657793   23.898135 H          1 MOL1         0.1009
       9    H6      21.126357   17.064533   22.174046 H          1 MOL1         0.1009
      10    H7      19.664871   16.694825   23.115730 H          1 MOL1         0.1009
      11    C3      19.723044   19.474068   22.453135 C.3        1 MOL1        -0.1392
      12    H8      19.756007   20.538505   22.720621 H          1 MOL1         0.0998
      13    H9      20.225205   19.382578   21.480863 H          1 MOL1         0.0998
      14    C4      18.240953   19.047402   22.317031 C.3        1 MOL1        -0.1302
      15    H10     17.754323   19.078412   23.302069 H          1 MOL1         0.0998
      16    H11     18.173829   18.010790   21.960899 H          1 MOL1         0.0998
      17    C5      17.472674   19.961166   21.338019 C.3        1 MOL1        -0.2317
      18    H12     17.478945   21.003755   21.681830 H          1 MOL1         0.1009
      19    H13     16.425804   19.642521   21.250742 H          1 MOL1         0.1009
      20    H14     17.918825   19.929228   20.335428 H          1 MOL1         0.1009
@<TRIPOS>BOND
    1     1     2    1
    2     1     3    1
    3     1     4    1
    4     1     5    1
    5     5     6    1
    6     5     7    1
    7     7     8    1
    8     7     9    1
    9     7    10    1
   10     5    11    1
   11    11    12    1
   12    11    13    1
   13    11    14    1
   14    14    15    1
   15    14    16    1
   16    14    17    1
   17    17    18    1
   18    17    19    1
   19    17    20    1
@<TRIPOS>SUBSTRUCTURE
       1 MOL1            1 RESIDUE      1      MOL     
@<SCITEGIC>MOL_PROPERTY
VConf Rank
SciTegic.value.IntegerValue
442

@<SCITEGIC>MOL_PROPERTY
Conf_Id
SciTegic.value.IntegerValue
80

@<SCITEGIC>MOL_PROPERTY
Delta U+W
SciTegic.value.DoubleValue
0.460

@<SCITEGIC>MOL_PROPERTY
U+W
SciTegic.value.DoubleValue
-35.817

@<SCITEGIC>MOL_PROPERTY
Grad RMS
SciTegic.value.DoubleValue
0.000000

@<SCITEGIC>MOL_PROPERTY
U
SciTegic.value.DoubleValue
22.495

@<SCITEGIC>MOL_PROPERTY
W
SciTegic.value.DoubleValue
-58.311

@<SCITEGIC>MOL_PROPERTY
W(PB)
SciTegic.value.DoubleValue
-60.259

@<SCITEGIC>MOL_PROPERTY
W(SA)
SciTegic.value.DoubleValue
1.948

@<SCITEGIC>MOL_PROPERTY
Valence
SciTegic.value.DoubleValue
2.419

@<SCITEGIC>MOL_PROPERTY
Coulomb
SciTegic.value.DoubleValue
19.304

@<SCITEGIC>MOL_PROPERTY
VdW
SciTegic.value.DoubleValue
0.772

@<SCITEGIC>MOL_PROPERTY
VdW6
SciTegic.value.DoubleValue
-4.635

@<SCITEGIC>MOL_PROPERTY
VdW12
SciTegic.value.DoubleValue
5.407

@<SCITEGIC>MOL_PROPERTY
Bond
SciTegic.value.DoubleValue
0.149

@<SCITEGIC>MOL_PROPERTY
Angle
SciTegic.value.DoubleValue
1.142

@<SCITEGIC>MOL_PROPERTY
Pdih
SciTegic.value.DoubleValue
1.129

@<SCITEGIC>MOL_PROPERTY
Idih
SciTegic.value.DoubleValue
0.000

@<SCITEGIC>MOL_PROPERTY
Tether
SciTegic.value.DoubleValue
0.000

@<TRIPOS>MOLECULE
guest-s10_confgen4.mol2 : confsearch ligand conformer 443
          20          19           1
SMALL
USER_CHARGES
 
@<TRIPOS>ATOM
       1    N1      20.622274   19.090520   20.498076 N.4        1 MOL1        -0.5937
       2    H1      20.786105   20.070935   20.253622 H          1 MOL1         0.3684
       3    H2      19.754972   18.801012   20.039098 H          1 MOL1         0.3684
       4    H3      21.382501   18.544645   20.083719 H          1 MOL1         0.3684
       5    C1      20.551099   18.893318   21.987638 C.3        1 MOL1         0.1270
       6    H4      21.516056   19.221423   22.386390 H          1 MOL1         0.0960
       7    C2      20.379294   17.401125   22.319453 C.3        1 MOL1        -0.2382
       8    H5      21.125948   16.797710   21.788847 H          1 MOL1         0.1009
       9    H6      19.383562   17.041343   22.032179 H          1 MOL1         0.1009
      10    H7      20.521225   17.218311   23.390640 H          1 MOL1         0.1009
      11    C3      19.446590   19.779797   22.613379 C.3        1 MOL1        -0.1392
      12    H8      19.632529   20.813231   22.292237 H          1 MOL1         0.0998
      13    H9      18.465210   19.511195   22.200493 H          1 MOL1         0.0998
      14    C4      19.397624   19.769093   24.164227 C.3        1 MOL1        -0.1302
      15    H10     19.142092   20.779426   24.513582 H          1 MOL1         0.0998
      16    H11     20.392837   19.551140   24.576554 H          1 MOL1         0.0998
      17    C5      18.349170   18.787928   24.739634 C.3        1 MOL1        -0.2317
      18    H12     17.339938   19.044875   24.392438 H          1 MOL1         0.1009
      19    H13     18.343923   18.831382   25.836478 H          1 MOL1         0.1009
      20    H14     18.550885   17.750651   24.449962 H          1 MOL1         0.1009
@<TRIPOS>BOND
    1     1     2    1
    2     1     3    1
    3     1     4    1
    4     1     5    1
    5     5     6    1
    6     5     7    1
    7     7     8    1
    8     7     9    1
    9     7    10    1
   10     5    11    1
   11    11    12    1
   12    11    13    1
   13    11    14    1
   14    14    15    1
   15    14    16    1
   16    14    17    1
   17    17    18    1
   18    17    19    1
   19    17    20    1
@<TRIPOS>SUBSTRUCTURE
       1 MOL1            1 RESIDUE      1      MOL     
@<SCITEGIC>MOL_PROPERTY
VConf Rank
SciTegic.value.IntegerValue
443

@<SCITEGIC>MOL_PROPERTY
Conf_Id
SciTegic.value.IntegerValue
52

@<SCITEGIC>MOL_PROPERTY
Delta U+W
SciTegic.value.DoubleValue
2.995

@<SCITEGIC>MOL_PROPERTY
U+W
SciTegic.value.DoubleValue
-33.282

@<SCITEGIC>MOL_PROPERTY
Grad RMS
SciTegic.value.DoubleValue
0.000000

@<SCITEGIC>MOL_PROPERTY
U
SciTegic.value.DoubleValue
25.224

@<SCITEGIC>MOL_PROPERTY
W
SciTegic.value.DoubleValue
-58.506

@<SCITEGIC>MOL_PROPERTY
W(PB)
SciTegic.value.DoubleValue
-60.411

@<SCITEGIC>MOL_PROPERTY
W(SA)
SciTegic.value.DoubleValue
1.905

@<SCITEGIC>MOL_PROPERTY
Valence
SciTegic.value.DoubleValue
4.945

@<SCITEGIC>MOL_PROPERTY
Coulomb
SciTegic.value.DoubleValue
19.467

@<SCITEGIC>MOL_PROPERTY
VdW
SciTegic.value.DoubleValue
0.813

@<SCITEGIC>MOL_PROPERTY
VdW6
SciTegic.value.DoubleValue
-5.458

@<SCITEGIC>MOL_PROPERTY
VdW12
SciTegic.value.DoubleValue
6.270

@<SCITEGIC>MOL_PROPERTY
Bond
SciTegic.value.DoubleValue
0.200

@<SCITEGIC>MOL_PROPERTY
Angle
SciTegic.value.DoubleValue
1.675

@<SCITEGIC>MOL_PROPERTY
Pdih
SciTegic.value.DoubleValue
3.070

@<SCITEGIC>MOL_PROPERTY
Idih
SciTegic.value.DoubleValue
0.000

@<SCITEGIC>MOL_PROPERTY
Tether
SciTegic.value.DoubleValue
0.000

@<TRIPOS>MOLECULE
guest-s10_confgen4.mol2 : confsearch ligand conformer 444
          20          19           1
SMALL
USER_CHARGES
 
@<TRIPOS>ATOM
       1    N1      19.829927   19.823126   21.338114 N.4        1 MOL1        -0.5937
       2    H1      20.002563   20.794912   21.606826 H          1 MOL1         0.3684
       3    H2      19.437554   19.832066   20.392804 H          1 MOL1         0.3684
       4    H3      20.736416   19.352875   21.291992 H          1 MOL1         0.3684
       5    C1      18.909201   19.139992   22.312199 C.3        1 MOL1         0.1270
       6    H4      18.734211   18.127797   21.934607 H          1 MOL1         0.0960
       7    C2      17.559454   19.876091   22.358021 C.3        1 MOL1        -0.2382
       8    H5      17.676142   20.895668   22.746231 H          1 MOL1         0.1009
       9    H6      16.845977   19.345227   23.000501 H          1 MOL1         0.1009
      10    H7      17.117371   19.940207   21.356130 H          1 MOL1         0.1009
      11    C3      19.512801   19.031203   23.732785 C.3        1 MOL1        -0.1392
      12    H8      19.932786   19.999217   24.036325 H          1 MOL1         0.0998
      13    H9      18.701580   18.820792   24.442526 H          1 MOL1         0.0998
      14    C4      20.572488   17.911390   23.905091 C.3        1 MOL1        -0.1302
      15    H10     20.129992   16.939650   23.644413 H          1 MOL1         0.0998
      16    H11     20.833451   17.848403   24.970904 H          1 MOL1         0.0998
      17    C5      21.873832   18.118891   23.097220 C.3        1 MOL1        -0.2317
      18    H12     22.640514   17.404245   23.423972 H          1 MOL1         0.1009
      19    H13     22.278083   19.129125   23.243254 H          1 MOL1         0.1009
      20    H14     21.716049   17.949393   22.025859 H          1 MOL1         0.1009
@<TRIPOS>BOND
    1     1     2    1
    2     1     3    1
    3     1     4    1
    4     1     5    1
    5     5     6    1
    6     5     7    1
    7     7     8    1
    8     7     9    1
    9     7    10    1
   10     5    11    1
   11    11    12    1
   12    11    13    1
   13    11    14    1
   14    14    15    1
   15    14    16    1
   16    14    17    1
   17    17    18    1
   18    17    19    1
   19    17    20    1
@<TRIPOS>SUBSTRUCTURE
       1 MOL1            1 RESIDUE      1      MOL     
@<SCITEGIC>MOL_PROPERTY
VConf Rank
SciTegic.value.IntegerValue
444

@<SCITEGIC>MOL_PROPERTY
Conf_Id
SciTegic.value.IntegerValue
54

@<SCITEGIC>MOL_PROPERTY
Delta U+W
SciTegic.value.DoubleValue
2.752

@<SCITEGIC>MOL_PROPERTY
U+W
SciTegic.value.DoubleValue
-33.525

@<SCITEGIC>MOL_PROPERTY
Grad RMS
SciTegic.value.DoubleValue
0.000000

@<SCITEGIC>MOL_PROPERTY
U
SciTegic.value.DoubleValue
24.337

@<SCITEGIC>MOL_PROPERTY
W
SciTegic.value.DoubleValue
-57.862

@<SCITEGIC>MOL_PROPERTY
W(PB)
SciTegic.value.DoubleValue
-59.764

@<SCITEGIC>MOL_PROPERTY
W(SA)
SciTegic.value.DoubleValue
1.901

@<SCITEGIC>MOL_PROPERTY
Valence
SciTegic.value.DoubleValue
3.593

@<SCITEGIC>MOL_PROPERTY
Coulomb
SciTegic.value.DoubleValue
20.067

@<SCITEGIC>MOL_PROPERTY
VdW
SciTegic.value.DoubleValue
0.677

@<SCITEGIC>MOL_PROPERTY
VdW6
SciTegic.value.DoubleValue
-5.466

@<SCITEGIC>MOL_PROPERTY
VdW12
SciTegic.value.DoubleValue
6.144

@<SCITEGIC>MOL_PROPERTY
Bond
SciTegic.value.DoubleValue
0.191

@<SCITEGIC>MOL_PROPERTY
Angle
SciTegic.value.DoubleValue
1.557

@<SCITEGIC>MOL_PROPERTY
Pdih
SciTegic.value.DoubleValue
1.845

@<SCITEGIC>MOL_PROPERTY
Idih
SciTegic.value.DoubleValue
0.000

@<SCITEGIC>MOL_PROPERTY
Tether
SciTegic.value.DoubleValue
0.000

@<TRIPOS>MOLECULE
guest-s10_confgen4.mol2 : confsearch ligand conformer 445
          20          19           1
SMALL
USER_CHARGES
 
@<TRIPOS>ATOM
       1    N1      19.076445   19.565445   24.549599 N.4        1 MOL1        -0.5937
       2    H1      19.365675   19.922392   25.464252 H          1 MOL1         0.3684
       3    H2      18.222372   19.019769   24.692807 H          1 MOL1         0.3684
       4    H3      18.832418   20.371937   23.970401 H          1 MOL1         0.3684
       5    C1      20.160722   18.738997   23.913036 C.3        1 MOL1         0.1270
       6    H4      20.362951   17.917997   24.608079 H          1 MOL1         0.0960
       7    C2      21.459692   19.551027   23.764286 C.3        1 MOL1        -0.2382
       8    H5      22.247010   18.945671   23.298295 H          1 MOL1         0.1009
       9    H6      21.825886   19.872050   24.747105 H          1 MOL1         0.1009
      10    H7      21.309628   20.449194   23.153698 H          1 MOL1         0.1009
      11    C3      19.714076   18.105309   22.573634 C.3        1 MOL1        -0.1392
      12    H8      20.514377   17.446989   22.210497 H          1 MOL1         0.0998
      13    H9      18.852927   17.452767   22.768617 H          1 MOL1         0.0998
      14    C4      19.341860   19.119688   21.461503 C.3        1 MOL1        -0.1302
      15    H10     20.207787   19.748669   21.215402 H          1 MOL1         0.0998
      16    H11     18.548082   19.792788   21.812236 H          1 MOL1         0.0998
      17    C5      18.864446   18.404494   20.179356 C.3        1 MOL1        -0.2317
      18    H12     18.606828   19.134601   19.401125 H          1 MOL1         0.1009
      19    H13     17.973480   17.793837   20.375566 H          1 MOL1         0.1009
      20    H14     19.647415   17.747684   19.778376 H          1 MOL1         0.1009
@<TRIPOS>BOND
    1     1     2    1
    2     1     3    1
    3     1     4    1
    4     1     5    1
    5     5     6    1
    6     5     7    1
    7     7     8    1
    8     7     9    1
    9     7    10    1
   10     5    11    1
   11    11    12    1
   12    11    13    1
   13    11    14    1
   14    14    15    1
   15    14    16    1
   16    14    17    1
   17    17    18    1
   18    17    19    1
   19    17    20    1
@<TRIPOS>SUBSTRUCTURE
       1 MOL1            1 RESIDUE      1      MOL     
@<SCITEGIC>MOL_PROPERTY
VConf Rank
SciTegic.value.IntegerValue
445

@<SCITEGIC>MOL_PROPERTY
Conf_Id
SciTegic.value.IntegerValue
63

@<SCITEGIC>MOL_PROPERTY
Delta U+W
SciTegic.value.DoubleValue
0.420

@<SCITEGIC>MOL_PROPERTY
U+W
SciTegic.value.DoubleValue
-35.856

@<SCITEGIC>MOL_PROPERTY
Grad RMS
SciTegic.value.DoubleValue
0.000000

@<SCITEGIC>MOL_PROPERTY
U
SciTegic.value.DoubleValue
22.625

@<SCITEGIC>MOL_PROPERTY
W
SciTegic.value.DoubleValue
-58.481

@<SCITEGIC>MOL_PROPERTY
W(PB)
SciTegic.value.DoubleValue
-60.400

@<SCITEGIC>MOL_PROPERTY
W(SA)
SciTegic.value.DoubleValue
1.919

@<SCITEGIC>MOL_PROPERTY
Valence
SciTegic.value.DoubleValue
2.404

@<SCITEGIC>MOL_PROPERTY
Coulomb
SciTegic.value.DoubleValue
19.464

@<SCITEGIC>MOL_PROPERTY
VdW
SciTegic.value.DoubleValue
0.757

@<SCITEGIC>MOL_PROPERTY
VdW6
SciTegic.value.DoubleValue
-5.074

@<SCITEGIC>MOL_PROPERTY
VdW12
SciTegic.value.DoubleValue
5.830

@<SCITEGIC>MOL_PROPERTY
Bond
SciTegic.value.DoubleValue
0.172

@<SCITEGIC>MOL_PROPERTY
Angle
SciTegic.value.DoubleValue
1.207

@<SCITEGIC>MOL_PROPERTY
Pdih
SciTegic.value.DoubleValue
1.025

@<SCITEGIC>MOL_PROPERTY
Idih
SciTegic.value.DoubleValue
0.000

@<SCITEGIC>MOL_PROPERTY
Tether
SciTegic.value.DoubleValue
0.000

@<TRIPOS>MOLECULE
guest-s10_confgen4.mol2 : confsearch ligand conformer 446
          20          19           1
SMALL
USER_CHARGES
 
@<TRIPOS>ATOM
       1    N1      20.908197   20.238634   22.998170 N.4        1 MOL1        -0.5937
       2    H1      21.546949   19.457288   23.166601 H          1 MOL1         0.3684
       3    H2      20.761211   20.714471   23.891700 H          1 MOL1         0.3684
       4    H3      21.386584   20.896063   22.376499 H          1 MOL1         0.3684
       5    C1      19.608736   19.764633   22.405800 C.3        1 MOL1         0.1270
       6    H4      19.854740   19.274217   21.459173 H          1 MOL1         0.0960
       7    C2      18.684392   20.954831   22.101617 C.3        1 MOL1        -0.2382
       8    H5      19.176743   21.666653   21.427719 H          1 MOL1         0.1009
       9    H6      18.408066   21.488473   23.019563 H          1 MOL1         0.1009
      10    H7      17.762422   20.617112   21.612190 H          1 MOL1         0.1009
      11    C3      18.886383   18.739487   23.309273 C.3        1 MOL1        -0.1392
      12    H8      18.616129   19.218372   24.259781 H          1 MOL1         0.0998
      13    H9      17.940687   18.447842   22.833321 H          1 MOL1         0.0998
      14    C4      19.710177   17.459957   23.602639 C.3        1 MOL1        -0.1302
      15    H10     19.117350   16.800080   24.251500 H          1 MOL1         0.0998
      16    H11     20.613646   17.712310   24.174154 H          1 MOL1         0.0998
      17    C5      20.101468   16.684781   22.323826 C.3        1 MOL1        -0.2317
      18    H12     19.213199   16.421031   21.735104 H          1 MOL1         0.1009
      19    H13     20.619824   15.752428   22.582851 H          1 MOL1         0.1009
      20    H14     20.774456   17.270471   21.685118 H          1 MOL1         0.1009
@<TRIPOS>BOND
    1     1     2    1
    2     1     3    1
    3     1     4    1
    4     1     5    1
    5     5     6    1
    6     5     7    1
    7     7     8    1
    8     7     9    1
    9     7    10    1
   10     5    11    1
   11    11    12    1
   12    11    13    1
   13    11    14    1
   14    14    15    1
   15    14    16    1
   16    14    17    1
   17    17    18    1
   18    17    19    1
   19    17    20    1
@<TRIPOS>SUBSTRUCTURE
       1 MOL1            1 RESIDUE      1      MOL     
@<SCITEGIC>MOL_PROPERTY
VConf Rank
SciTegic.value.IntegerValue
446

@<SCITEGIC>MOL_PROPERTY
Conf_Id
SciTegic.value.IntegerValue
50

@<SCITEGIC>MOL_PROPERTY
Delta U+W
SciTegic.value.DoubleValue
0.466

@<SCITEGIC>MOL_PROPERTY
U+W
SciTegic.value.DoubleValue
-35.811

@<SCITEGIC>MOL_PROPERTY
Grad RMS
SciTegic.value.DoubleValue
0.000000

@<SCITEGIC>MOL_PROPERTY
U
SciTegic.value.DoubleValue
22.369

@<SCITEGIC>MOL_PROPERTY
W
SciTegic.value.DoubleValue
-58.180

@<SCITEGIC>MOL_PROPERTY
W(PB)
SciTegic.value.DoubleValue
-60.103

@<SCITEGIC>MOL_PROPERTY
W(SA)
SciTegic.value.DoubleValue
1.923

@<SCITEGIC>MOL_PROPERTY
Valence
SciTegic.value.DoubleValue
2.168

@<SCITEGIC>MOL_PROPERTY
Coulomb
SciTegic.value.DoubleValue
19.636

@<SCITEGIC>MOL_PROPERTY
VdW
SciTegic.value.DoubleValue
0.566

@<SCITEGIC>MOL_PROPERTY
VdW6
SciTegic.value.DoubleValue
-5.263

@<SCITEGIC>MOL_PROPERTY
VdW12
SciTegic.value.DoubleValue
5.829

@<SCITEGIC>MOL_PROPERTY
Bond
SciTegic.value.DoubleValue
0.162

@<SCITEGIC>MOL_PROPERTY
Angle
SciTegic.value.DoubleValue
1.066

@<SCITEGIC>MOL_PROPERTY
Pdih
SciTegic.value.DoubleValue
0.939

@<SCITEGIC>MOL_PROPERTY
Idih
SciTegic.value.DoubleValue
0.000

@<SCITEGIC>MOL_PROPERTY
Tether
SciTegic.value.DoubleValue
0.000

@<TRIPOS>MOLECULE
guest-s10_confgen4.mol2 : confsearch ligand conformer 447
          20          19           1
SMALL
USER_CHARGES
 
@<TRIPOS>ATOM
       1    N1      19.967605   21.138733   23.229782 N.4        1 MOL1        -0.5937
       2    H1      20.662371   21.462451   22.551177 H          1 MOL1         0.3684
       3    H2      20.394753   21.195823   24.157768 H          1 MOL1         0.3684
       4    H3      19.192130   21.806560   23.210244 H          1 MOL1         0.3684
       5    C1      19.499518   19.742130   22.921604 C.3        1 MOL1         0.1270
       6    H4      19.065107   19.780942   21.917839 H          1 MOL1         0.0960
       7    C2      18.403062   19.322053   23.918239 C.3        1 MOL1        -0.2382
       8    H5      18.785056   19.316049   24.946690 H          1 MOL1         0.1009
       9    H6      18.019208   18.320433   23.696419 H          1 MOL1         0.1009
      10    H7      17.555694   20.017251   23.875860 H          1 MOL1         0.1009
      11    C3      20.672146   18.730833   22.900304 C.3        1 MOL1        -0.1392
      12    H8      21.618789   19.280015   22.811197 H          1 MOL1         0.0998
      13    H9      20.731836   18.192456   23.855605 H          1 MOL1         0.0998
      14    C4      20.610938   17.723739   21.723955 C.3        1 MOL1        -0.1302
      15    H10     21.517465   17.102739   21.746306 H          1 MOL1         0.0998
      16    H11     20.639116   18.270206   20.770718 H          1 MOL1         0.0998
      17    C5      19.374255   16.798379   21.747633 C.3        1 MOL1        -0.2317
      18    H12     19.293660   16.268897   22.705851 H          1 MOL1         0.1009
      19    H13     19.444887   16.043806   20.953484 H          1 MOL1         0.1009
      20    H14     18.448086   17.362552   21.581654 H          1 MOL1         0.1009
@<TRIPOS>BOND
    1     1     2    1
    2     1     3    1
    3     1     4    1
    4     1     5    1
    5     5     6    1
    6     5     7    1
    7     7     8    1
    8     7     9    1
    9     7    10    1
   10     5    11    1
   11    11    12    1
   12    11    13    1
   13    11    14    1
   14    14    15    1
   15    14    16    1
   16    14    17    1
   17    17    18    1
   18    17    19    1
   19    17    20    1
@<TRIPOS>SUBSTRUCTURE
       1 MOL1            1 RESIDUE      1      MOL     
@<SCITEGIC>MOL_PROPERTY
VConf Rank
SciTegic.value.IntegerValue
447

@<SCITEGIC>MOL_PROPERTY
Conf_Id
SciTegic.value.IntegerValue
3

@<SCITEGIC>MOL_PROPERTY
Delta U+W
SciTegic.value.DoubleValue
3.093

@<SCITEGIC>MOL_PROPERTY
U+W
SciTegic.value.DoubleValue
-33.184

@<SCITEGIC>MOL_PROPERTY
Grad RMS
SciTegic.value.DoubleValue
0.000000

@<SCITEGIC>MOL_PROPERTY
U
SciTegic.value.DoubleValue
25.256

@<SCITEGIC>MOL_PROPERTY
W
SciTegic.value.DoubleValue
-58.439

@<SCITEGIC>MOL_PROPERTY
W(PB)
SciTegic.value.DoubleValue
-60.337

@<SCITEGIC>MOL_PROPERTY
W(SA)
SciTegic.value.DoubleValue
1.898

@<SCITEGIC>MOL_PROPERTY
Valence
SciTegic.value.DoubleValue
4.963

@<SCITEGIC>MOL_PROPERTY
Coulomb
SciTegic.value.DoubleValue
19.511

@<SCITEGIC>MOL_PROPERTY
VdW
SciTegic.value.DoubleValue
0.782

@<SCITEGIC>MOL_PROPERTY
VdW6
SciTegic.value.DoubleValue
-5.429

@<SCITEGIC>MOL_PROPERTY
VdW12
SciTegic.value.DoubleValue
6.211

@<SCITEGIC>MOL_PROPERTY
Bond
SciTegic.value.DoubleValue
0.174

@<SCITEGIC>MOL_PROPERTY
Angle
SciTegic.value.DoubleValue
1.377

@<SCITEGIC>MOL_PROPERTY
Pdih
SciTegic.value.DoubleValue
3.412

@<SCITEGIC>MOL_PROPERTY
Idih
SciTegic.value.DoubleValue
0.000

@<SCITEGIC>MOL_PROPERTY
Tether
SciTegic.value.DoubleValue
0.000

@<TRIPOS>MOLECULE
guest-s10_confgen4.mol2 : confsearch ligand conformer 448
          20          19           1
SMALL
USER_CHARGES
 
@<TRIPOS>ATOM
       1    N1      17.459929   18.895208   23.299679 N.4        1 MOL1        -0.5937
       2    H1      16.844631   18.110924   23.067423 H          1 MOL1         0.3684
       3    H2      17.086032   19.722923   22.827535 H          1 MOL1         0.3684
       4    H3      17.381026   19.055373   24.307054 H          1 MOL1         0.3684
       5    C1      18.881656   18.619015   22.893735 C.3        1 MOL1         0.1270
       6    H4      18.865733   18.458160   21.811622 H          1 MOL1         0.0960
       7    C2      19.391089   17.332698   23.568991 C.3        1 MOL1        -0.2382
       8    H5      20.372647   17.040382   23.178312 H          1 MOL1         0.1009
       9    H6      18.704830   16.498362   23.379079 H          1 MOL1         0.1009
      10    H7      19.477637   17.461754   24.654966 H          1 MOL1         0.1009
      11    C3      19.794777   19.832305   23.191336 C.3        1 MOL1        -0.1392
      12    H8      19.339433   20.730409   22.753618 H          1 MOL1         0.0998
      13    H9      19.827590   20.005186   24.275204 H          1 MOL1         0.0998
      14    C4      21.243736   19.709251   22.654233 C.3        1 MOL1        -0.1302
      15    H10     21.774869   18.898777   23.171246 H          1 MOL1         0.0998
      16    H11     21.789746   20.630623   22.900780 H          1 MOL1         0.0998
      17    C5      21.306445   19.483832   21.126358 C.3        1 MOL1        -0.2317
      18    H12     20.778821   20.281533   20.587430 H          1 MOL1         0.1009
      19    H13     20.859314   18.523024   20.841777 H          1 MOL1         0.1009
      20    H14     22.348365   19.478725   20.780822 H          1 MOL1         0.1009
@<TRIPOS>BOND
    1     1     2    1
    2     1     3    1
    3     1     4    1
    4     1     5    1
    5     5     6    1
    6     5     7    1
    7     7     8    1
    8     7     9    1
    9     7    10    1
   10     5    11    1
   11    11    12    1
   12    11    13    1
   13    11    14    1
   14    14    15    1
   15    14    16    1
   16    14    17    1
   17    17    18    1
   18    17    19    1
   19    17    20    1
@<TRIPOS>SUBSTRUCTURE
       1 MOL1            1 RESIDUE      1      MOL     
@<SCITEGIC>MOL_PROPERTY
VConf Rank
SciTegic.value.IntegerValue
448

@<SCITEGIC>MOL_PROPERTY
Conf_Id
SciTegic.value.IntegerValue
64

@<SCITEGIC>MOL_PROPERTY
Delta U+W
SciTegic.value.DoubleValue
0.544

@<SCITEGIC>MOL_PROPERTY
U+W
SciTegic.value.DoubleValue
-35.732

@<SCITEGIC>MOL_PROPERTY
Grad RMS
SciTegic.value.DoubleValue
0.000000

@<SCITEGIC>MOL_PROPERTY
U
SciTegic.value.DoubleValue
22.800

@<SCITEGIC>MOL_PROPERTY
W
SciTegic.value.DoubleValue
-58.532

@<SCITEGIC>MOL_PROPERTY
W(PB)
SciTegic.value.DoubleValue
-60.437

@<SCITEGIC>MOL_PROPERTY
W(SA)
SciTegic.value.DoubleValue
1.905

@<SCITEGIC>MOL_PROPERTY
Valence
SciTegic.value.DoubleValue
2.662

@<SCITEGIC>MOL_PROPERTY
Coulomb
SciTegic.value.DoubleValue
19.485

@<SCITEGIC>MOL_PROPERTY
VdW
SciTegic.value.DoubleValue
0.653

@<SCITEGIC>MOL_PROPERTY
VdW6
SciTegic.value.DoubleValue
-5.460

@<SCITEGIC>MOL_PROPERTY
VdW12
SciTegic.value.DoubleValue
6.113

@<SCITEGIC>MOL_PROPERTY
Bond
SciTegic.value.DoubleValue
0.174

@<SCITEGIC>MOL_PROPERTY
Angle
SciTegic.value.DoubleValue
1.378

@<SCITEGIC>MOL_PROPERTY
Pdih
SciTegic.value.DoubleValue
1.109

@<SCITEGIC>MOL_PROPERTY
Idih
SciTegic.value.DoubleValue
0.000

@<SCITEGIC>MOL_PROPERTY
Tether
SciTegic.value.DoubleValue
0.000

@<TRIPOS>MOLECULE
guest-s10_confgen4.mol2 : confsearch ligand conformer 449
          20          19           1
SMALL
USER_CHARGES
 
@<TRIPOS>ATOM
       1    N1      19.416497   17.077413   21.734192 N.4        1 MOL1        -0.5937
       2    H1      20.124481   17.494970   21.126181 H          1 MOL1         0.3684
       3    H2      18.665216   16.727954   21.133302 H          1 MOL1         0.3684
       4    H3      19.842738   16.266099   22.189986 H          1 MOL1         0.3684
       5    C1      18.899695   18.069867   22.740563 C.3        1 MOL1         0.1270
       6    H4      18.147575   17.535120   23.329057 H          1 MOL1         0.0960
       7    C2      18.188695   19.239952   22.041204 C.3        1 MOL1        -0.2382
       8    H5      18.850894   19.743024   21.326976 H          1 MOL1         0.1009
       9    H6      17.838185   19.978137   22.773027 H          1 MOL1         0.1009
      10    H7      17.313438   18.879754   21.486992 H          1 MOL1         0.1009
      11    C3      19.999275   18.534504   23.728478 C.3        1 MOL1        -0.1392
      12    H8      19.538884   19.113550   24.539800 H          1 MOL1         0.0998
      13    H9      20.407013   17.636595   24.211169 H          1 MOL1         0.0998
      14    C4      21.180693   19.335757   23.114091 C.3        1 MOL1        -0.1302
      15    H10     21.373606   19.019022   22.080726 H          1 MOL1         0.0998
      16    H11     22.093131   19.092646   23.676529 H          1 MOL1         0.0998
      17    C5      20.984653   20.868996   23.173169 C.3        1 MOL1        -0.2317
      18    H12     20.114214   21.197361   22.594817 H          1 MOL1         0.1009
      19    H13     21.864724   21.383760   22.766403 H          1 MOL1         0.1009
      20    H14     20.851009   21.208464   24.208516 H          1 MOL1         0.1009
@<TRIPOS>BOND
    1     1     2    1
    2     1     3    1
    3     1     4    1
    4     1     5    1
    5     5     6    1
    6     5     7    1
    7     7     8    1
    8     7     9    1
    9     7    10    1
   10     5    11    1
   11    11    12    1
   12    11    13    1
   13    11    14    1
   14    14    15    1
   15    14    16    1
   16    14    17    1
   17    17    18    1
   18    17    19    1
   19    17    20    1
@<TRIPOS>SUBSTRUCTURE
       1 MOL1            1 RESIDUE      1      MOL     
@<SCITEGIC>MOL_PROPERTY
VConf Rank
SciTegic.value.IntegerValue
449

@<SCITEGIC>MOL_PROPERTY
Conf_Id
SciTegic.value.IntegerValue
35

@<SCITEGIC>MOL_PROPERTY
Delta U+W
SciTegic.value.DoubleValue
3.004

@<SCITEGIC>MOL_PROPERTY
U+W
SciTegic.value.DoubleValue
-33.272

@<SCITEGIC>MOL_PROPERTY
Grad RMS
SciTegic.value.DoubleValue
0.000000

@<SCITEGIC>MOL_PROPERTY
U
SciTegic.value.DoubleValue
25.367

@<SCITEGIC>MOL_PROPERTY
W
SciTegic.value.DoubleValue
-58.639

@<SCITEGIC>MOL_PROPERTY
W(PB)
SciTegic.value.DoubleValue
-60.512

@<SCITEGIC>MOL_PROPERTY
W(SA)
SciTegic.value.DoubleValue
1.873

@<SCITEGIC>MOL_PROPERTY
Valence
SciTegic.value.DoubleValue
4.943

@<SCITEGIC>MOL_PROPERTY
Coulomb
SciTegic.value.DoubleValue
19.661

@<SCITEGIC>MOL_PROPERTY
VdW
SciTegic.value.DoubleValue
0.764

@<SCITEGIC>MOL_PROPERTY
VdW6
SciTegic.value.DoubleValue
-5.871

@<SCITEGIC>MOL_PROPERTY
VdW12
SciTegic.value.DoubleValue
6.636

@<SCITEGIC>MOL_PROPERTY
Bond
SciTegic.value.DoubleValue
0.230

@<SCITEGIC>MOL_PROPERTY
Angle
SciTegic.value.DoubleValue
1.857

@<SCITEGIC>MOL_PROPERTY
Pdih
SciTegic.value.DoubleValue
2.855

@<SCITEGIC>MOL_PROPERTY
Idih
SciTegic.value.DoubleValue
0.000

@<SCITEGIC>MOL_PROPERTY
Tether
SciTegic.value.DoubleValue
0.000

@<TRIPOS>MOLECULE
guest-s10_confgen4.mol2 : confsearch ligand conformer 450
          20          19           1
SMALL
USER_CHARGES
 
@<TRIPOS>ATOM
       1    N1      19.668574   20.652884   23.268333 N.4        1 MOL1        -0.5937
       2    H1      19.529552   21.153280   24.150307 H          1 MOL1         0.3684
       3    H2      19.450338   21.305155   22.510377 H          1 MOL1         0.3684
       4    H3      20.661154   20.421357   23.196388 H          1 MOL1         0.3684
       5    C1      18.814482   19.416956   23.194349 C.3        1 MOL1         0.1270
       6    H4      17.781914   19.775002   23.253780 H          1 MOL1         0.0960
       7    C2      19.050934   18.497687   24.405772 C.3        1 MOL1        -0.2382
       8    H5      20.095674   18.170696   24.468150 H          1 MOL1         0.1009
       9    H6      18.413935   17.606456   24.347826 H          1 MOL1         0.1009
      10    H7      18.806961   19.020724   25.338444 H          1 MOL1         0.1009
      11    C3      18.950918   18.664358   21.845907 C.3        1 MOL1        -0.1392
      12    H8      18.091261   17.987439   21.754738 H          1 MOL1         0.0998
      13    H9      18.842180   19.384427   21.024387 H          1 MOL1         0.0998
      14    C4      20.240992   17.825663   21.624785 C.3        1 MOL1        -0.1302
      15    H10     20.157680   17.326088   20.649435 H          1 MOL1         0.0998
      16    H11     20.301130   17.016742   22.365502 H          1 MOL1         0.0998
      17    C5      21.552680   18.643074   21.640142 C.3        1 MOL1        -0.2317
      18    H12     21.489259   19.510655   20.970500 H          1 MOL1         0.1009
      19    H13     22.391402   18.021586   21.300334 H          1 MOL1         0.1009
      20    H14     21.799590   18.991316   22.649612 H          1 MOL1         0.1009
@<TRIPOS>BOND
    1     1     2    1
    2     1     3    1
    3     1     4    1
    4     1     5    1
    5     5     6    1
    6     5     7    1
    7     7     8    1
    8     7     9    1
    9     7    10    1
   10     5    11    1
   11    11    12    1
   12    11    13    1
   13    11    14    1
   14    14    15    1
   15    14    16    1
   16    14    17    1
   17    17    18    1
   18    17    19    1
   19    17    20    1
@<TRIPOS>SUBSTRUCTURE
       1 MOL1            1 RESIDUE      1      MOL     
@<SCITEGIC>MOL_PROPERTY
VConf Rank
SciTegic.value.IntegerValue
450

@<SCITEGIC>MOL_PROPERTY
Conf_Id
SciTegic.value.IntegerValue
55

@<SCITEGIC>MOL_PROPERTY
Delta U+W
SciTegic.value.DoubleValue
2.767

@<SCITEGIC>MOL_PROPERTY
U+W
SciTegic.value.DoubleValue
-33.509

@<SCITEGIC>MOL_PROPERTY
Grad RMS
SciTegic.value.DoubleValue
0.000000

@<SCITEGIC>MOL_PROPERTY
U
SciTegic.value.DoubleValue
24.552

@<SCITEGIC>MOL_PROPERTY
W
SciTegic.value.DoubleValue
-58.061

@<SCITEGIC>MOL_PROPERTY
W(PB)
SciTegic.value.DoubleValue
-59.930

@<SCITEGIC>MOL_PROPERTY
W(SA)
SciTegic.value.DoubleValue
1.869

@<SCITEGIC>MOL_PROPERTY
Valence
SciTegic.value.DoubleValue
3.726

@<SCITEGIC>MOL_PROPERTY
Coulomb
SciTegic.value.DoubleValue
20.219

@<SCITEGIC>MOL_PROPERTY
VdW
SciTegic.value.DoubleValue
0.606

@<SCITEGIC>MOL_PROPERTY
VdW6
SciTegic.value.DoubleValue
-6.395

@<SCITEGIC>MOL_PROPERTY
VdW12
SciTegic.value.DoubleValue
7.001

@<SCITEGIC>MOL_PROPERTY
Bond
SciTegic.value.DoubleValue
0.241

@<SCITEGIC>MOL_PROPERTY
Angle
SciTegic.value.DoubleValue
2.098

@<SCITEGIC>MOL_PROPERTY
Pdih
SciTegic.value.DoubleValue
1.387

@<SCITEGIC>MOL_PROPERTY
Idih
SciTegic.value.DoubleValue
0.000

@<SCITEGIC>MOL_PROPERTY
Tether
SciTegic.value.DoubleValue
0.000

@<TRIPOS>MOLECULE
guest-s10_confgen4.mol2 : confsearch ligand conformer 451
          20          19           1
SMALL
USER_CHARGES
 
@<TRIPOS>ATOM
       1    N1      18.260305   17.938542   23.522389 N.4        1 MOL1        -0.5937
       2    H1      18.763891   17.593039   24.343105 H          1 MOL1         0.3684
       3    H2      17.487564   17.291526   23.343788 H          1 MOL1         0.3684
       4    H3      17.848894   18.841464   23.771493 H          1 MOL1         0.3684
       5    C1      19.167839   18.055811   22.327529 C.3        1 MOL1         0.1270
       6    H4      18.555150   18.432607   21.502590 H          1 MOL1         0.0960
       7    C2      19.716097   16.675956   21.928302 C.3        1 MOL1        -0.2382
       8    H5      18.896244   15.976071   21.725163 H          1 MOL1         0.1009
       9    H6      20.339366   16.250335   22.724654 H          1 MOL1         0.1009
      10    H7      20.325422   16.746510   21.018696 H          1 MOL1         0.1009
      11    C3      20.328680   19.048283   22.559042 C.3        1 MOL1        -0.1392
      12    H8      20.946803   18.704897   23.399236 H          1 MOL1         0.0998
      13    H9      20.977287   19.047564   21.672828 H          1 MOL1         0.0998
      14    C4      19.845395   20.494916   22.822117 C.3        1 MOL1        -0.1302
      15    H10     19.239366   20.532400   23.737404 H          1 MOL1         0.0998
      16    H11     19.197542   20.824615   21.997601 H          1 MOL1         0.0998
      17    C5      21.030027   21.474595   22.964166 C.3        1 MOL1        -0.2317
      18    H12     21.680767   21.188772   23.800885 H          1 MOL1         0.1009
      19    H13     20.669477   22.494393   23.151517 H          1 MOL1         0.1009
      20    H14     21.637890   21.495628   22.050222 H          1 MOL1         0.1009
@<TRIPOS>BOND
    1     1     2    1
    2     1     3    1
    3     1     4    1
    4     1     5    1
    5     5     6    1
    6     5     7    1
    7     7     8    1
    8     7     9    1
    9     7    10    1
   10     5    11    1
   11    11    12    1
   12    11    13    1
   13    11    14    1
   14    14    15    1
   15    14    16    1
   16    14    17    1
   17    17    18    1
   18    17    19    1
   19    17    20    1
@<TRIPOS>SUBSTRUCTURE
       1 MOL1            1 RESIDUE      1      MOL     
@<SCITEGIC>MOL_PROPERTY
VConf Rank
SciTegic.value.IntegerValue
451

@<SCITEGIC>MOL_PROPERTY
Conf_Id
SciTegic.value.IntegerValue
74

@<SCITEGIC>MOL_PROPERTY
Delta U+W
SciTegic.value.DoubleValue
0.000

@<SCITEGIC>MOL_PROPERTY
U+W
SciTegic.value.DoubleValue
-36.276

@<SCITEGIC>MOL_PROPERTY
Grad RMS
SciTegic.value.DoubleValue
0.000000

@<SCITEGIC>MOL_PROPERTY
U
SciTegic.value.DoubleValue
22.080

@<SCITEGIC>MOL_PROPERTY
W
SciTegic.value.DoubleValue
-58.356

@<SCITEGIC>MOL_PROPERTY
W(PB)
SciTegic.value.DoubleValue
-60.289

@<SCITEGIC>MOL_PROPERTY
W(SA)
SciTegic.value.DoubleValue
1.932

@<SCITEGIC>MOL_PROPERTY
Valence
SciTegic.value.DoubleValue
1.885

@<SCITEGIC>MOL_PROPERTY
Coulomb
SciTegic.value.DoubleValue
19.559

@<SCITEGIC>MOL_PROPERTY
VdW
SciTegic.value.DoubleValue
0.637

@<SCITEGIC>MOL_PROPERTY
VdW6
SciTegic.value.DoubleValue
-4.482

@<SCITEGIC>MOL_PROPERTY
VdW12
SciTegic.value.DoubleValue
5.119

@<SCITEGIC>MOL_PROPERTY
Bond
SciTegic.value.DoubleValue
0.136

@<SCITEGIC>MOL_PROPERTY
Angle
SciTegic.value.DoubleValue
0.867

@<SCITEGIC>MOL_PROPERTY
Pdih
SciTegic.value.DoubleValue
0.882

@<SCITEGIC>MOL_PROPERTY
Idih
SciTegic.value.DoubleValue
0.000

@<SCITEGIC>MOL_PROPERTY
Tether
SciTegic.value.DoubleValue
0.000

@<TRIPOS>MOLECULE
guest-s10_confgen4.mol2 : confsearch ligand conformer 452
          20          19           1
SMALL
USER_CHARGES
 
@<TRIPOS>ATOM
       1    N1      18.782780   20.975363   21.924503 N.4        1 MOL1        -0.5937
       2    H1      19.214083   21.664437   22.546606 H          1 MOL1         0.3684
       3    H2      17.825800   20.823001   22.252683 H          1 MOL1         0.3684
       4    H3      18.721602   21.402786   20.996470 H          1 MOL1         0.3684
       5    C1      19.565928   19.691660   21.889103 C.3        1 MOL1         0.1270
       6    H4      20.565640   19.950558   21.526594 H          1 MOL1         0.0960
       7    C2      18.928515   18.704679   20.893928 C.3        1 MOL1        -0.2382
       8    H5      18.793052   19.177888   19.913651 H          1 MOL1         0.1009
       9    H6      17.946578   18.364540   21.245617 H          1 MOL1         0.1009
      10    H7      19.563497   17.824280   20.742541 H          1 MOL1         0.1009
      11    C3      19.707193   19.083440   23.303883 C.3        1 MOL1        -0.1392
      12    H8      20.063676   19.867429   23.985017 H          1 MOL1         0.0998
      13    H9      18.720339   18.775556   23.674253 H          1 MOL1         0.0998
      14    C4      20.687726   17.887366   23.375451 C.3        1 MOL1        -0.1302
      15    H10     21.657428   18.176809   22.946534 H          1 MOL1         0.0998
      16    H11     20.310927   17.049030   22.774521 H          1 MOL1         0.0998
      17    C5      20.894092   17.406005   24.827824 C.3        1 MOL1        -0.2317
      18    H12     21.312075   18.204945   25.454101 H          1 MOL1         0.1009
      19    H13     21.588332   16.556238   24.859672 H          1 MOL1         0.1009
      20    H14     19.945197   17.082228   25.275067 H          1 MOL1         0.1009
@<TRIPOS>BOND
    1     1     2    1
    2     1     3    1
    3     1     4    1
    4     1     5    1
    5     5     6    1
    6     5     7    1
    7     7     8    1
    8     7     9    1
    9     7    10    1
   10     5    11    1
   11    11    12    1
   12    11    13    1
   13    11    14    1
   14    14    15    1
   15    14    16    1
   16    14    17    1
   17    17    18    1
   18    17    19    1
   19    17    20    1
@<TRIPOS>SUBSTRUCTURE
       1 MOL1            1 RESIDUE      1      MOL     
@<SCITEGIC>MOL_PROPERTY
VConf Rank
SciTegic.value.IntegerValue
452

@<SCITEGIC>MOL_PROPERTY
Conf_Id
SciTegic.value.IntegerValue
80

@<SCITEGIC>MOL_PROPERTY
Delta U+W
SciTegic.value.DoubleValue
0.460

@<SCITEGIC>MOL_PROPERTY
U+W
SciTegic.value.DoubleValue
-35.817

@<SCITEGIC>MOL_PROPERTY
Grad RMS
SciTegic.value.DoubleValue
0.000000

@<SCITEGIC>MOL_PROPERTY
U
SciTegic.value.DoubleValue
22.495

@<SCITEGIC>MOL_PROPERTY
W
SciTegic.value.DoubleValue
-58.311

@<SCITEGIC>MOL_PROPERTY
W(PB)
SciTegic.value.DoubleValue
-60.259

@<SCITEGIC>MOL_PROPERTY
W(SA)
SciTegic.value.DoubleValue
1.948

@<SCITEGIC>MOL_PROPERTY
Valence
SciTegic.value.DoubleValue
2.419

@<SCITEGIC>MOL_PROPERTY
Coulomb
SciTegic.value.DoubleValue
19.304

@<SCITEGIC>MOL_PROPERTY
VdW
SciTegic.value.DoubleValue
0.772

@<SCITEGIC>MOL_PROPERTY
VdW6
SciTegic.value.DoubleValue
-4.635

@<SCITEGIC>MOL_PROPERTY
VdW12
SciTegic.value.DoubleValue
5.407

@<SCITEGIC>MOL_PROPERTY
Bond
SciTegic.value.DoubleValue
0.149

@<SCITEGIC>MOL_PROPERTY
Angle
SciTegic.value.DoubleValue
1.142

@<SCITEGIC>MOL_PROPERTY
Pdih
SciTegic.value.DoubleValue
1.129

@<SCITEGIC>MOL_PROPERTY
Idih
SciTegic.value.DoubleValue
0.000

@<SCITEGIC>MOL_PROPERTY
Tether
SciTegic.value.DoubleValue
0.000

@<TRIPOS>MOLECULE
guest-s10_confgen4.mol2 : confsearch ligand conformer 453
          20          19           1
SMALL
USER_CHARGES
 
@<TRIPOS>ATOM
       1    N1      18.494644   20.810042   22.038251 N.4        1 MOL1        -0.5937
       2    H1      18.521677   21.544653   22.750590 H          1 MOL1         0.3684
       3    H2      17.584065   20.348876   22.107969 H          1 MOL1         0.3684
       4    H3      18.532355   21.272308   21.125835 H          1 MOL1         0.3684
       5    C1      19.623880   19.830617   22.206487 C.3        1 MOL1         0.1270
       6    H4      20.547893   20.409351   22.111265 H          1 MOL1         0.0960
       7    C2      19.595486   18.786354   21.077343 C.3        1 MOL1        -0.2382
       8    H5      19.524418   19.276001   20.098396 H          1 MOL1         0.1009
       9    H6      18.738982   18.109044   21.182729 H          1 MOL1         0.1009
      10    H7      20.514437   18.189274   21.071649 H          1 MOL1         0.1009
      11    C3      19.600364   19.192338   23.616942 C.3        1 MOL1        -0.1392
      12    H8      19.585582   20.010970   24.348594 H          1 MOL1         0.0998
      13    H9      18.663232   18.640358   23.768041 H          1 MOL1         0.0998
      14    C4      20.816109   18.286388   23.946882 C.3        1 MOL1        -0.1302
      15    H10     21.080241   18.426147   25.004625 H          1 MOL1         0.0998
      16    H11     21.697234   18.604951   23.372337 H          1 MOL1         0.0998
      17    C5      20.540627   16.781067   23.720719 C.3        1 MOL1        -0.2317
      18    H12     19.708761   16.436236   24.348578 H          1 MOL1         0.1009
      19    H13     21.424217   16.185234   23.983846 H          1 MOL1         0.1009
      20    H14     20.289630   16.558852   22.677568 H          1 MOL1         0.1009
@<TRIPOS>BOND
    1     1     2    1
    2     1     3    1
    3     1     4    1
    4     1     5    1
    5     5     6    1
    6     5     7    1
    7     7     8    1
    8     7     9    1
    9     7    10    1
   10     5    11    1
   11    11    12    1
   12    11    13    1
   13    11    14    1
   14    14    15    1
   15    14    16    1
   16    14    17    1
   17    17    18    1
   18    17    19    1
   19    17    20    1
@<TRIPOS>SUBSTRUCTURE
       1 MOL1            1 RESIDUE      1      MOL     
@<SCITEGIC>MOL_PROPERTY
VConf Rank
SciTegic.value.IntegerValue
453

@<SCITEGIC>MOL_PROPERTY
Conf_Id
SciTegic.value.IntegerValue
52

@<SCITEGIC>MOL_PROPERTY
Delta U+W
SciTegic.value.DoubleValue
2.995

@<SCITEGIC>MOL_PROPERTY
U+W
SciTegic.value.DoubleValue
-33.282

@<SCITEGIC>MOL_PROPERTY
Grad RMS
SciTegic.value.DoubleValue
0.000000

@<SCITEGIC>MOL_PROPERTY
U
SciTegic.value.DoubleValue
25.224

@<SCITEGIC>MOL_PROPERTY
W
SciTegic.value.DoubleValue
-58.506

@<SCITEGIC>MOL_PROPERTY
W(PB)
SciTegic.value.DoubleValue
-60.411

@<SCITEGIC>MOL_PROPERTY
W(SA)
SciTegic.value.DoubleValue
1.905

@<SCITEGIC>MOL_PROPERTY
Valence
SciTegic.value.DoubleValue
4.945

@<SCITEGIC>MOL_PROPERTY
Coulomb
SciTegic.value.DoubleValue
19.467

@<SCITEGIC>MOL_PROPERTY
VdW
SciTegic.value.DoubleValue
0.813

@<SCITEGIC>MOL_PROPERTY
VdW6
SciTegic.value.DoubleValue
-5.458

@<SCITEGIC>MOL_PROPERTY
VdW12
SciTegic.value.DoubleValue
6.270

@<SCITEGIC>MOL_PROPERTY
Bond
SciTegic.value.DoubleValue
0.200

@<SCITEGIC>MOL_PROPERTY
Angle
SciTegic.value.DoubleValue
1.675

@<SCITEGIC>MOL_PROPERTY
Pdih
SciTegic.value.DoubleValue
3.070

@<SCITEGIC>MOL_PROPERTY
Idih
SciTegic.value.DoubleValue
0.000

@<SCITEGIC>MOL_PROPERTY
Tether
SciTegic.value.DoubleValue
0.000

@<TRIPOS>MOLECULE
guest-s10_confgen4.mol2 : confsearch ligand conformer 454
          20          19           1
SMALL
USER_CHARGES
 
@<TRIPOS>ATOM
       1    N1      20.755687   18.428763   21.609613 N.4        1 MOL1        -0.5937
       2    H1      21.658199   18.866464   21.810280 H          1 MOL1         0.3684
       3    H2      20.774399   18.122613   20.633105 H          1 MOL1         0.3684
       4    H3      20.684301   17.593152   22.194116 H          1 MOL1         0.3684
       5    C1      19.616577   19.376337   21.869965 C.3        1 MOL1         0.1270
       6    H4      18.695033   18.857478   21.588402 H          1 MOL1         0.0960
       7    C2      19.759352   20.621050   20.977740 C.3        1 MOL1        -0.2382
       8    H5      20.663430   21.189118   21.230325 H          1 MOL1         0.1009
       9    H6      18.894429   21.286120   21.092785 H          1 MOL1         0.1009
      10    H7      19.818726   20.336458   19.919998 H          1 MOL1         0.1009
      11    C3      19.507254   19.788501   23.357380 C.3        1 MOL1        -0.1392
      12    H8      20.495257   20.077299   23.739505 H          1 MOL1         0.0998
      13    H9      18.884266   20.690332   23.425737 H          1 MOL1         0.0998
      14    C4      18.867788   18.720262   24.282883 C.3        1 MOL1        -0.1302
      15    H10     17.860467   18.471488   23.920321 H          1 MOL1         0.0998
      16    H11     18.729095   19.167840   25.277098 H          1 MOL1         0.0998
      17    C5      19.692798   17.423145   24.444294 C.3        1 MOL1        -0.2317
      18    H12     19.282433   16.812158   25.258901 H          1 MOL1         0.1009
      19    H13     20.739926   17.643483   24.689833 H          1 MOL1         0.1009
      20    H14     19.660973   16.808209   23.537497 H          1 MOL1         0.1009
@<TRIPOS>BOND
    1     1     2    1
    2     1     3    1
    3     1     4    1
    4     1     5    1
    5     5     6    1
    6     5     7    1
    7     7     8    1
    8     7     9    1
    9     7    10    1
   10     5    11    1
   11    11    12    1
   12    11    13    1
   13    11    14    1
   14    14    15    1
   15    14    16    1
   16    14    17    1
   17    17    18    1
   18    17    19    1
   19    17    20    1
@<TRIPOS>SUBSTRUCTURE
       1 MOL1            1 RESIDUE      1      MOL     
@<SCITEGIC>MOL_PROPERTY
VConf Rank
SciTegic.value.IntegerValue
454

@<SCITEGIC>MOL_PROPERTY
Conf_Id
SciTegic.value.IntegerValue
54

@<SCITEGIC>MOL_PROPERTY
Delta U+W
SciTegic.value.DoubleValue
2.752

@<SCITEGIC>MOL_PROPERTY
U+W
SciTegic.value.DoubleValue
-33.525

@<SCITEGIC>MOL_PROPERTY
Grad RMS
SciTegic.value.DoubleValue
0.000000

@<SCITEGIC>MOL_PROPERTY
U
SciTegic.value.DoubleValue
24.337

@<SCITEGIC>MOL_PROPERTY
W
SciTegic.value.DoubleValue
-57.862

@<SCITEGIC>MOL_PROPERTY
W(PB)
SciTegic.value.DoubleValue
-59.764

@<SCITEGIC>MOL_PROPERTY
W(SA)
SciTegic.value.DoubleValue
1.901

@<SCITEGIC>MOL_PROPERTY
Valence
SciTegic.value.DoubleValue
3.593

@<SCITEGIC>MOL_PROPERTY
Coulomb
SciTegic.value.DoubleValue
20.067

@<SCITEGIC>MOL_PROPERTY
VdW
SciTegic.value.DoubleValue
0.677

@<SCITEGIC>MOL_PROPERTY
VdW6
SciTegic.value.DoubleValue
-5.466

@<SCITEGIC>MOL_PROPERTY
VdW12
SciTegic.value.DoubleValue
6.144

@<SCITEGIC>MOL_PROPERTY
Bond
SciTegic.value.DoubleValue
0.191

@<SCITEGIC>MOL_PROPERTY
Angle
SciTegic.value.DoubleValue
1.557

@<SCITEGIC>MOL_PROPERTY
Pdih
SciTegic.value.DoubleValue
1.845

@<SCITEGIC>MOL_PROPERTY
Idih
SciTegic.value.DoubleValue
0.000

@<SCITEGIC>MOL_PROPERTY
Tether
SciTegic.value.DoubleValue
0.000

@<TRIPOS>MOLECULE
guest-s10_confgen4.mol2 : confsearch ligand conformer 455
          20          19           1
SMALL
USER_CHARGES
 
@<TRIPOS>ATOM
       1    N1      21.445771   19.529223   23.738638 N.4        1 MOL1        -0.5937
       2    H1      22.154661   19.217579   24.407971 H          1 MOL1         0.3684
       3    H2      21.325424   20.537049   23.870979 H          1 MOL1         0.3684
       4    H3      21.827294   19.385746   22.800926 H          1 MOL1         0.3684
       5    C1      20.149521   18.788199   23.924399 C.3        1 MOL1         0.1270
       6    H4      19.831887   18.987136   24.952773 H          1 MOL1         0.0960
       7    C2      20.356624   17.269127   23.788854 C.3        1 MOL1        -0.2382
       8    H5      19.409164   16.732697   23.923146 H          1 MOL1         0.1009
       9    H6      21.054089   16.907422   24.554228 H          1 MOL1         0.1009
      10    H7      20.767689   17.001062   22.808441 H          1 MOL1         0.1009
      11    C3      19.030182   19.308410   22.990850 C.3        1 MOL1        -0.1392
      12    H8      18.094318   18.790641   23.239466 H          1 MOL1         0.0998
      13    H9      18.856121   20.368939   23.215322 H          1 MOL1         0.0998
      14    C4      19.315614   19.149719   21.475036 C.3        1 MOL1        -0.1302
      15    H10     19.441554   18.088772   21.220981 H          1 MOL1         0.0998
      16    H11     20.254511   19.654588   21.210952 H          1 MOL1         0.0998
      17    C5      18.171980   19.735180   20.619077 C.3        1 MOL1        -0.2317
      18    H12     18.386934   19.613730   19.549446 H          1 MOL1         0.1009
      19    H13     18.039670   20.807107   20.815768 H          1 MOL1         0.1009
      20    H14     17.221069   19.228976   20.830617 H          1 MOL1         0.1009
@<TRIPOS>BOND
    1     1     2    1
    2     1     3    1
    3     1     4    1
    4     1     5    1
    5     5     6    1
    6     5     7    1
    7     7     8    1
    8     7     9    1
    9     7    10    1
   10     5    11    1
   11    11    12    1
   12    11    13    1
   13    11    14    1
   14    14    15    1
   15    14    16    1
   16    14    17    1
   17    17    18    1
   18    17    19    1
   19    17    20    1
@<TRIPOS>SUBSTRUCTURE
       1 MOL1            1 RESIDUE      1      MOL     
@<SCITEGIC>MOL_PROPERTY
VConf Rank
SciTegic.value.IntegerValue
455

@<SCITEGIC>MOL_PROPERTY
Conf_Id
SciTegic.value.IntegerValue
63

@<SCITEGIC>MOL_PROPERTY
Delta U+W
SciTegic.value.DoubleValue
0.420

@<SCITEGIC>MOL_PROPERTY
U+W
SciTegic.value.DoubleValue
-35.856

@<SCITEGIC>MOL_PROPERTY
Grad RMS
SciTegic.value.DoubleValue
0.000000

@<SCITEGIC>MOL_PROPERTY
U
SciTegic.value.DoubleValue
22.625

@<SCITEGIC>MOL_PROPERTY
W
SciTegic.value.DoubleValue
-58.481

@<SCITEGIC>MOL_PROPERTY
W(PB)
SciTegic.value.DoubleValue
-60.400

@<SCITEGIC>MOL_PROPERTY
W(SA)
SciTegic.value.DoubleValue
1.919

@<SCITEGIC>MOL_PROPERTY
Valence
SciTegic.value.DoubleValue
2.404

@<SCITEGIC>MOL_PROPERTY
Coulomb
SciTegic.value.DoubleValue
19.464

@<SCITEGIC>MOL_PROPERTY
VdW
SciTegic.value.DoubleValue
0.757

@<SCITEGIC>MOL_PROPERTY
VdW6
SciTegic.value.DoubleValue
-5.074

@<SCITEGIC>MOL_PROPERTY
VdW12
SciTegic.value.DoubleValue
5.830

@<SCITEGIC>MOL_PROPERTY
Bond
SciTegic.value.DoubleValue
0.172

@<SCITEGIC>MOL_PROPERTY
Angle
SciTegic.value.DoubleValue
1.207

@<SCITEGIC>MOL_PROPERTY
Pdih
SciTegic.value.DoubleValue
1.025

@<SCITEGIC>MOL_PROPERTY
Idih
SciTegic.value.DoubleValue
0.000

@<SCITEGIC>MOL_PROPERTY
Tether
SciTegic.value.DoubleValue
0.000

@<TRIPOS>MOLECULE
guest-s10_confgen4.mol2 : confsearch ligand conformer 456
          20          19           1
SMALL
USER_CHARGES
 
@<TRIPOS>ATOM
       1    N1      19.313405   18.634063   21.062692 N.4        1 MOL1        -0.5937
       2    H1      18.713822   17.895571   21.439526 H          1 MOL1         0.3684
       3    H2      20.110569   18.181804   20.608364 H          1 MOL1         0.3684
       4    H3      18.781048   19.118617   20.335131 H          1 MOL1         0.3684
       5    C1      19.759421   19.581071   22.143628 C.3        1 MOL1         0.1270
       6    H4      18.852942   20.019633   22.571517 H          1 MOL1         0.0960
       7    C2      20.608030   20.718727   21.552769 C.3        1 MOL1        -0.2382
       8    H5      20.049889   21.256918   20.776840 H          1 MOL1         0.1009
       9    H6      21.532169   20.333650   21.103951 H          1 MOL1         0.1009
      10    H7      20.881775   21.444248   22.328852 H          1 MOL1         0.1009
      11    C3      20.531956   18.865187   23.274858 C.3        1 MOL1        -0.1392
      12    H8      21.455083   18.431628   22.867799 H          1 MOL1         0.0998
      13    H9      20.845169   19.608896   24.019655 H          1 MOL1         0.0998
      14    C4      19.723426   17.754232   23.991764 C.3        1 MOL1        -0.1302
      15    H10     20.355417   17.305245   24.770802 H          1 MOL1         0.0998
      16    H11     19.487725   16.942715   23.290015 H          1 MOL1         0.0998
      17    C5      18.421796   18.275944   24.642107 C.3        1 MOL1        -0.2317
      18    H12     18.632422   19.089117   25.348907 H          1 MOL1         0.1009
      19    H13     17.920265   17.472327   25.196845 H          1 MOL1         0.1009
      20    H14     17.715026   18.649539   23.890576 H          1 MOL1         0.1009
@<TRIPOS>BOND
    1     1     2    1
    2     1     3    1
    3     1     4    1
    4     1     5    1
    5     5     6    1
    6     5     7    1
    7     7     8    1
    8     7     9    1
    9     7    10    1
   10     5    11    1
   11    11    12    1
   12    11    13    1
   13    11    14    1
   14    14    15    1
   15    14    16    1
   16    14    17    1
   17    17    18    1
   18    17    19    1
   19    17    20    1
@<TRIPOS>SUBSTRUCTURE
       1 MOL1            1 RESIDUE      1      MOL     
@<SCITEGIC>MOL_PROPERTY
VConf Rank
SciTegic.value.IntegerValue
456

@<SCITEGIC>MOL_PROPERTY
Conf_Id
SciTegic.value.IntegerValue
50

@<SCITEGIC>MOL_PROPERTY
Delta U+W
SciTegic.value.DoubleValue
0.466

@<SCITEGIC>MOL_PROPERTY
U+W
SciTegic.value.DoubleValue
-35.811

@<SCITEGIC>MOL_PROPERTY
Grad RMS
SciTegic.value.DoubleValue
0.000000

@<SCITEGIC>MOL_PROPERTY
U
SciTegic.value.DoubleValue
22.369

@<SCITEGIC>MOL_PROPERTY
W
SciTegic.value.DoubleValue
-58.180

@<SCITEGIC>MOL_PROPERTY
W(PB)
SciTegic.value.DoubleValue
-60.103

@<SCITEGIC>MOL_PROPERTY
W(SA)
SciTegic.value.DoubleValue
1.923

@<SCITEGIC>MOL_PROPERTY
Valence
SciTegic.value.DoubleValue
2.168

@<SCITEGIC>MOL_PROPERTY
Coulomb
SciTegic.value.DoubleValue
19.636

@<SCITEGIC>MOL_PROPERTY
VdW
SciTegic.value.DoubleValue
0.566

@<SCITEGIC>MOL_PROPERTY
VdW6
SciTegic.value.DoubleValue
-5.263

@<SCITEGIC>MOL_PROPERTY
VdW12
SciTegic.value.DoubleValue
5.829

@<SCITEGIC>MOL_PROPERTY
Bond
SciTegic.value.DoubleValue
0.162

@<SCITEGIC>MOL_PROPERTY
Angle
SciTegic.value.DoubleValue
1.066

@<SCITEGIC>MOL_PROPERTY
Pdih
SciTegic.value.DoubleValue
0.939

@<SCITEGIC>MOL_PROPERTY
Idih
SciTegic.value.DoubleValue
0.000

@<SCITEGIC>MOL_PROPERTY
Tether
SciTegic.value.DoubleValue
0.000

@<TRIPOS>MOLECULE
guest-s10_confgen4.mol2 : confsearch ligand conformer 457
          20          19           1
SMALL
USER_CHARGES
 
@<TRIPOS>ATOM
       1    N1      18.882053   16.759414   23.104112 N.4        1 MOL1        -0.5937
       2    H1      17.873974   16.883545   23.232039 H          1 MOL1         0.3684
       3    H2      19.267503   16.437485   23.995551 H          1 MOL1         0.3684
       4    H3      19.009762   16.002896   22.426538 H          1 MOL1         0.3684
       5    C1      19.543510   18.029771   22.642327 C.3        1 MOL1         0.1270
       6    H4      19.066820   18.293875   21.693233 H          1 MOL1         0.0960
       7    C2      21.042380   17.781598   22.389812 C.3        1 MOL1        -0.2382
       8    H5      21.551354   17.467244   23.309482 H          1 MOL1         0.1009
       9    H6      21.543234   18.682666   22.019663 H          1 MOL1         0.1009
      10    H7      21.182391   16.994083   21.639249 H          1 MOL1         0.1009
      11    C3      19.315400   19.194884   23.636666 C.3        1 MOL1        -0.1392
      12    H8      18.479834   18.940952   24.302264 H          1 MOL1         0.0998
      13    H9      20.188348   19.316625   24.291765 H          1 MOL1         0.0998
      14    C4      18.968578   20.542779   22.954996 C.3        1 MOL1        -0.1302
      15    H10     18.748663   21.284370   23.735773 H          1 MOL1         0.0998
      16    H11     18.044191   20.431827   22.370805 H          1 MOL1         0.0998
      17    C5      20.086670   21.096869   22.044452 C.3        1 MOL1        -0.2317
      18    H12     21.036497   21.179433   22.588547 H          1 MOL1         0.1009
      19    H13     19.822556   22.097696   21.678897 H          1 MOL1         0.1009
      20    H14     20.241963   20.458033   21.166158 H          1 MOL1         0.1009
@<TRIPOS>BOND
    1     1     2    1
    2     1     3    1
    3     1     4    1
    4     1     5    1
    5     5     6    1
    6     5     7    1
    7     7     8    1
    8     7     9    1
    9     7    10    1
   10     5    11    1
   11    11    12    1
   12    11    13    1
   13    11    14    1
   14    14    15    1
   15    14    16    1
   16    14    17    1
   17    17    18    1
   18    17    19    1
   19    17    20    1
@<TRIPOS>SUBSTRUCTURE
       1 MOL1            1 RESIDUE      1      MOL     
@<SCITEGIC>MOL_PROPERTY
VConf Rank
SciTegic.value.IntegerValue
457

@<SCITEGIC>MOL_PROPERTY
Conf_Id
SciTegic.value.IntegerValue
3

@<SCITEGIC>MOL_PROPERTY
Delta U+W
SciTegic.value.DoubleValue
3.093

@<SCITEGIC>MOL_PROPERTY
U+W
SciTegic.value.DoubleValue
-33.184

@<SCITEGIC>MOL_PROPERTY
Grad RMS
SciTegic.value.DoubleValue
0.000000

@<SCITEGIC>MOL_PROPERTY
U
SciTegic.value.DoubleValue
25.256

@<SCITEGIC>MOL_PROPERTY
W
SciTegic.value.DoubleValue
-58.439

@<SCITEGIC>MOL_PROPERTY
W(PB)
SciTegic.value.DoubleValue
-60.337

@<SCITEGIC>MOL_PROPERTY
W(SA)
SciTegic.value.DoubleValue
1.898

@<SCITEGIC>MOL_PROPERTY
Valence
SciTegic.value.DoubleValue
4.963

@<SCITEGIC>MOL_PROPERTY
Coulomb
SciTegic.value.DoubleValue
19.511

@<SCITEGIC>MOL_PROPERTY
VdW
SciTegic.value.DoubleValue
0.782

@<SCITEGIC>MOL_PROPERTY
VdW6
SciTegic.value.DoubleValue
-5.429

@<SCITEGIC>MOL_PROPERTY
VdW12
SciTegic.value.DoubleValue
6.211

@<SCITEGIC>MOL_PROPERTY
Bond
SciTegic.value.DoubleValue
0.174

@<SCITEGIC>MOL_PROPERTY
Angle
SciTegic.value.DoubleValue
1.377

@<SCITEGIC>MOL_PROPERTY
Pdih
SciTegic.value.DoubleValue
3.412

@<SCITEGIC>MOL_PROPERTY
Idih
SciTegic.value.DoubleValue
0.000

@<SCITEGIC>MOL_PROPERTY
Tether
SciTegic.value.DoubleValue
0.000

@<TRIPOS>MOLECULE
guest-s10_confgen4.mol2 : confsearch ligand conformer 458
          20          19           1
SMALL
USER_CHARGES
 
@<TRIPOS>ATOM
       1    N1      18.528261   17.183800   21.866263 N.4        1 MOL1        -0.5937
       2    H1      18.851557   16.667158   21.043952 H          1 MOL1         0.3684
       3    H2      17.619899   17.591804   21.629110 H          1 MOL1         0.3684
       4    H3      18.372087   16.501081   22.612044 H          1 MOL1         0.3684
       5    C1      19.519227   18.237027   22.279882 C.3        1 MOL1         0.1270
       6    H4      19.623248   18.912468   21.425448 H          1 MOL1         0.0960
       7    C2      20.891000   17.599066   22.565093 C.3        1 MOL1        -0.2382
       8    H5      21.658382   18.363879   22.731589 H          1 MOL1         0.1009
       9    H6      21.219033   16.990466   21.713545 H          1 MOL1         0.1009
      10    H7      20.851929   16.952534   23.450507 H          1 MOL1         0.1009
      11    C3      18.996884   19.054893   23.485154 C.3        1 MOL1        -0.1392
      12    H8      17.986057   19.415513   23.253402 H          1 MOL1         0.0998
      13    H9      18.891889   18.393224   24.355157 H          1 MOL1         0.0998
      14    C4      19.870880   20.273341   23.878369 C.3        1 MOL1        -0.1302
      15    H10     20.850506   19.938011   24.244649 H          1 MOL1         0.0998
      16    H11     19.395115   20.789237   24.724145 H          1 MOL1         0.0998
      17    C5      20.062285   21.280266   22.721383 C.3        1 MOL1        -0.2317
      18    H12     19.094842   21.628039   22.336329 H          1 MOL1         0.1009
      19    H13     20.623790   20.836723   21.889490 H          1 MOL1         0.1009
      20    H14     20.621435   22.159936   23.065692 H          1 MOL1         0.1009
@<TRIPOS>BOND
    1     1     2    1
    2     1     3    1
    3     1     4    1
    4     1     5    1
    5     5     6    1
    6     5     7    1
    7     7     8    1
    8     7     9    1
    9     7    10    1
   10     5    11    1
   11    11    12    1
   12    11    13    1
   13    11    14    1
   14    14    15    1
   15    14    16    1
   16    14    17    1
   17    17    18    1
   18    17    19    1
   19    17    20    1
@<TRIPOS>SUBSTRUCTURE
       1 MOL1            1 RESIDUE      1      MOL     
@<SCITEGIC>MOL_PROPERTY
VConf Rank
SciTegic.value.IntegerValue
458

@<SCITEGIC>MOL_PROPERTY
Conf_Id
SciTegic.value.IntegerValue
64

@<SCITEGIC>MOL_PROPERTY
Delta U+W
SciTegic.value.DoubleValue
0.544

@<SCITEGIC>MOL_PROPERTY
U+W
SciTegic.value.DoubleValue
-35.732

@<SCITEGIC>MOL_PROPERTY
Grad RMS
SciTegic.value.DoubleValue
0.000000

@<SCITEGIC>MOL_PROPERTY
U
SciTegic.value.DoubleValue
22.800

@<SCITEGIC>MOL_PROPERTY
W
SciTegic.value.DoubleValue
-58.532

@<SCITEGIC>MOL_PROPERTY
W(PB)
SciTegic.value.DoubleValue
-60.437

@<SCITEGIC>MOL_PROPERTY
W(SA)
SciTegic.value.DoubleValue
1.905

@<SCITEGIC>MOL_PROPERTY
Valence
SciTegic.value.DoubleValue
2.662

@<SCITEGIC>MOL_PROPERTY
Coulomb
SciTegic.value.DoubleValue
19.485

@<SCITEGIC>MOL_PROPERTY
VdW
SciTegic.value.DoubleValue
0.653

@<SCITEGIC>MOL_PROPERTY
VdW6
SciTegic.value.DoubleValue
-5.460

@<SCITEGIC>MOL_PROPERTY
VdW12
SciTegic.value.DoubleValue
6.113

@<SCITEGIC>MOL_PROPERTY
Bond
SciTegic.value.DoubleValue
0.174

@<SCITEGIC>MOL_PROPERTY
Angle
SciTegic.value.DoubleValue
1.378

@<SCITEGIC>MOL_PROPERTY
Pdih
SciTegic.value.DoubleValue
1.109

@<SCITEGIC>MOL_PROPERTY
Idih
SciTegic.value.DoubleValue
0.000

@<SCITEGIC>MOL_PROPERTY
Tether
SciTegic.value.DoubleValue
0.000

@<TRIPOS>MOLECULE
guest-s10_confgen4.mol2 : confsearch ligand conformer 459
          20          19           1
SMALL
USER_CHARGES
 
@<TRIPOS>ATOM
       1    N1      18.486036   17.271327   22.461193 N.4        1 MOL1        -0.5937
       2    H1      17.829885   18.055260   22.474905 H          1 MOL1         0.3684
       3    H2      18.121790   16.556745   23.097048 H          1 MOL1         0.3684
       4    H3      18.470787   16.874356   21.517879 H          1 MOL1         0.3684
       5    C1      19.871585   17.705466   22.856933 C.3        1 MOL1         0.1270
       6    H4      20.489278   16.802563   22.822492 H          1 MOL1         0.0960
       7    C2      19.891824   18.220613   24.305359 C.3        1 MOL1        -0.2382
       8    H5      19.186684   19.047881   24.447184 H          1 MOL1         0.1009
       9    H6      20.895444   18.564810   24.583951 H          1 MOL1         0.1009
      10    H7      19.610076   17.420161   25.000245 H          1 MOL1         0.1009
      11    C3      20.484642   18.710533   21.849490 C.3        1 MOL1        -0.1392
      12    H8      21.546961   18.858978   22.083878 H          1 MOL1         0.0998
      13    H9      20.472002   18.232841   20.860990 H          1 MOL1         0.0998
      14    C4      19.773297   20.087418   21.733725 C.3        1 MOL1        -0.1302
      15    H10     18.697710   19.990679   21.931546 H          1 MOL1         0.0998
      16    H11     19.856042   20.433190   20.693736 H          1 MOL1         0.0998
      17    C5      20.385958   21.178104   22.643559 C.3        1 MOL1        -0.2317
      18    H12     20.301243   20.925969   23.706210 H          1 MOL1         0.1009
      19    H13     19.874383   22.137082   22.489877 H          1 MOL1         0.1009
      20    H14     21.448988   21.328970   22.414977 H          1 MOL1         0.1009
@<TRIPOS>BOND
    1     1     2    1
    2     1     3    1
    3     1     4    1
    4     1     5    1
    5     5     6    1
    6     5     7    1
    7     7     8    1
    8     7     9    1
    9     7    10    1
   10     5    11    1
   11    11    12    1
   12    11    13    1
   13    11    14    1
   14    14    15    1
   15    14    16    1
   16    14    17    1
   17    17    18    1
   18    17    19    1
   19    17    20    1
@<TRIPOS>SUBSTRUCTURE
       1 MOL1            1 RESIDUE      1      MOL     
@<SCITEGIC>MOL_PROPERTY
VConf Rank
SciTegic.value.IntegerValue
459

@<SCITEGIC>MOL_PROPERTY
Conf_Id
SciTegic.value.IntegerValue
35

@<SCITEGIC>MOL_PROPERTY
Delta U+W
SciTegic.value.DoubleValue
3.004

@<SCITEGIC>MOL_PROPERTY
U+W
SciTegic.value.DoubleValue
-33.272

@<SCITEGIC>MOL_PROPERTY
Grad RMS
SciTegic.value.DoubleValue
0.000000

@<SCITEGIC>MOL_PROPERTY
U
SciTegic.value.DoubleValue
25.367

@<SCITEGIC>MOL_PROPERTY
W
SciTegic.value.DoubleValue
-58.639

@<SCITEGIC>MOL_PROPERTY
W(PB)
SciTegic.value.DoubleValue
-60.512

@<SCITEGIC>MOL_PROPERTY
W(SA)
SciTegic.value.DoubleValue
1.873

@<SCITEGIC>MOL_PROPERTY
Valence
SciTegic.value.DoubleValue
4.943

@<SCITEGIC>MOL_PROPERTY
Coulomb
SciTegic.value.DoubleValue
19.661

@<SCITEGIC>MOL_PROPERTY
VdW
SciTegic.value.DoubleValue
0.764

@<SCITEGIC>MOL_PROPERTY
VdW6
SciTegic.value.DoubleValue
-5.871

@<SCITEGIC>MOL_PROPERTY
VdW12
SciTegic.value.DoubleValue
6.636

@<SCITEGIC>MOL_PROPERTY
Bond
SciTegic.value.DoubleValue
0.230

@<SCITEGIC>MOL_PROPERTY
Angle
SciTegic.value.DoubleValue
1.857

@<SCITEGIC>MOL_PROPERTY
Pdih
SciTegic.value.DoubleValue
2.855

@<SCITEGIC>MOL_PROPERTY
Idih
SciTegic.value.DoubleValue
0.000

@<SCITEGIC>MOL_PROPERTY
Tether
SciTegic.value.DoubleValue
0.000

@<TRIPOS>MOLECULE
guest-s10_confgen4.mol2 : confsearch ligand conformer 460
          20          19           1
SMALL
USER_CHARGES
 
@<TRIPOS>ATOM
       1    N1      19.923083   19.179921   20.931874 N.4        1 MOL1        -0.5937
       2    H1      20.538765   19.639203   20.255413 H          1 MOL1         0.3684
       3    H2      19.038061   18.986137   20.455676 H          1 MOL1         0.3684
       4    H3      20.343841   18.280668   21.173337 H          1 MOL1         0.3684
       5    C1      19.715585   20.029955   22.155331 C.3        1 MOL1         0.1270
       6    H4      19.242032   20.947736   21.792904 H          1 MOL1         0.0960
       7    C2      21.056838   20.428804   22.796011 C.3        1 MOL1        -0.2382
       8    H5      21.636571   19.549910   23.102196 H          1 MOL1         0.1009
       9    H6      20.893832   21.058705   23.679229 H          1 MOL1         0.1009
      10    H7      21.666130   21.001993   22.086656 H          1 MOL1         0.1009
      11    C3      18.738189   19.394831   23.177402 C.3        1 MOL1        -0.1392
      12    H8      18.406599   20.189808   23.858285 H          1 MOL1         0.0998
      13    H9      17.833056   19.068984   22.648463 H          1 MOL1         0.0998
      14    C4      19.275781   18.221435   24.043849 C.3        1 MOL1        -0.1302
      15    H10     18.479663   17.920994   24.739374 H          1 MOL1         0.0998
      16    H11     20.105539   18.564243   24.676791 H          1 MOL1         0.0998
      17    C5      19.714391   16.975152   23.241775 C.3        1 MOL1        -0.2317
      18    H12     18.934261   16.660529   22.536402 H          1 MOL1         0.1009
      19    H13     19.906680   16.134607   23.921244 H          1 MOL1         0.1009
      20    H14     20.641713   17.157928   22.686858 H          1 MOL1         0.1009
@<TRIPOS>BOND
    1     1     2    1
    2     1     3    1
    3     1     4    1
    4     1     5    1
    5     5     6    1
    6     5     7    1
    7     7     8    1
    8     7     9    1
    9     7    10    1
   10     5    11    1
   11    11    12    1
   12    11    13    1
   13    11    14    1
   14    14    15    1
   15    14    16    1
   16    14    17    1
   17    17    18    1
   18    17    19    1
   19    17    20    1
@<TRIPOS>SUBSTRUCTURE
       1 MOL1            1 RESIDUE      1      MOL     
@<SCITEGIC>MOL_PROPERTY
VConf Rank
SciTegic.value.IntegerValue
460

@<SCITEGIC>MOL_PROPERTY
Conf_Id
SciTegic.value.IntegerValue
55

@<SCITEGIC>MOL_PROPERTY
Delta U+W
SciTegic.value.DoubleValue
2.767

@<SCITEGIC>MOL_PROPERTY
U+W
SciTegic.value.DoubleValue
-33.509

@<SCITEGIC>MOL_PROPERTY
Grad RMS
SciTegic.value.DoubleValue
0.000000

@<SCITEGIC>MOL_PROPERTY
U
SciTegic.value.DoubleValue
24.552

@<SCITEGIC>MOL_PROPERTY
W
SciTegic.value.DoubleValue
-58.061

@<SCITEGIC>MOL_PROPERTY
W(PB)
SciTegic.value.DoubleValue
-59.930

@<SCITEGIC>MOL_PROPERTY
W(SA)
SciTegic.value.DoubleValue
1.869

@<SCITEGIC>MOL_PROPERTY
Valence
SciTegic.value.DoubleValue
3.726

@<SCITEGIC>MOL_PROPERTY
Coulomb
SciTegic.value.DoubleValue
20.219

@<SCITEGIC>MOL_PROPERTY
VdW
SciTegic.value.DoubleValue
0.606

@<SCITEGIC>MOL_PROPERTY
VdW6
SciTegic.value.DoubleValue
-6.395

@<SCITEGIC>MOL_PROPERTY
VdW12
SciTegic.value.DoubleValue
7.001

@<SCITEGIC>MOL_PROPERTY
Bond
SciTegic.value.DoubleValue
0.241

@<SCITEGIC>MOL_PROPERTY
Angle
SciTegic.value.DoubleValue
2.098

@<SCITEGIC>MOL_PROPERTY
Pdih
SciTegic.value.DoubleValue
1.387

@<SCITEGIC>MOL_PROPERTY
Idih
SciTegic.value.DoubleValue
0.000

@<SCITEGIC>MOL_PROPERTY
Tether
SciTegic.value.DoubleValue
0.000

@<TRIPOS>MOLECULE
guest-s10_confgen4.mol2 : confsearch ligand conformer 461
          20          19           1
SMALL
USER_CHARGES
 
@<TRIPOS>ATOM
       1    N1      18.088057   19.115262   21.662734 N.4        1 MOL1        -0.5937
       2    H1      18.012208   20.135170   21.686812 H          1 MOL1         0.3684
       3    H2      17.147086   18.742821   21.509377 H          1 MOL1         0.3684
       4    H3      18.649676   18.867796   20.844244 H          1 MOL1         0.3684
       5    C1      18.693412   18.577208   22.931238 C.3        1 MOL1         0.1270
       6    H4      18.741379   17.489403   22.820479 H          1 MOL1         0.0960
       7    C2      17.795268   18.898835   24.137001 C.3        1 MOL1        -0.2382
       8    H5      16.785881   18.496106   23.987968 H          1 MOL1         0.1009
       9    H6      17.711632   19.981686   24.292663 H          1 MOL1         0.1009
      10    H7      18.198819   18.452191   25.054222 H          1 MOL1         0.1009
      11    C3      20.126085   19.101283   23.174019 C.3        1 MOL1        -0.1392
      12    H8      20.109084   20.195490   23.265323 H          1 MOL1         0.0998
      13    H9      20.487066   18.712788   24.135700 H          1 MOL1         0.0998
      14    C4      21.119890   18.684429   22.063117 C.3        1 MOL1        -0.1302
      15    H10     20.810972   19.108833   21.098298 H          1 MOL1         0.0998
      16    H11     21.109479   17.591317   21.948057 H          1 MOL1         0.0998
      17    C5      22.557005   19.151184   22.379575 C.3        1 MOL1        -0.2317
      18    H12     22.606244   20.244132   22.470662 H          1 MOL1         0.1009
      19    H13     23.247492   18.848646   21.581588 H          1 MOL1         0.1009
      20    H14     22.917272   18.713346   23.319648 H          1 MOL1         0.1009
@<TRIPOS>BOND
    1     1     2    1
    2     1     3    1
    3     1     4    1
    4     1     5    1
    5     5     6    1
    6     5     7    1
    7     7     8    1
    8     7     9    1
    9     7    10    1
   10     5    11    1
   11    11    12    1
   12    11    13    1
   13    11    14    1
   14    14    15    1
   15    14    16    1
   16    14    17    1
   17    17    18    1
   18    17    19    1
   19    17    20    1
@<TRIPOS>SUBSTRUCTURE
       1 MOL1            1 RESIDUE      1      MOL     
@<SCITEGIC>MOL_PROPERTY
VConf Rank
SciTegic.value.IntegerValue
461

@<SCITEGIC>MOL_PROPERTY
Conf_Id
SciTegic.value.IntegerValue
74

@<SCITEGIC>MOL_PROPERTY
Delta U+W
SciTegic.value.DoubleValue
0.000

@<SCITEGIC>MOL_PROPERTY
U+W
SciTegic.value.DoubleValue
-36.276

@<SCITEGIC>MOL_PROPERTY
Grad RMS
SciTegic.value.DoubleValue
0.000000

@<SCITEGIC>MOL_PROPERTY
U
SciTegic.value.DoubleValue
22.080

@<SCITEGIC>MOL_PROPERTY
W
SciTegic.value.DoubleValue
-58.356

@<SCITEGIC>MOL_PROPERTY
W(PB)
SciTegic.value.DoubleValue
-60.289

@<SCITEGIC>MOL_PROPERTY
W(SA)
SciTegic.value.DoubleValue
1.932

@<SCITEGIC>MOL_PROPERTY
Valence
SciTegic.value.DoubleValue
1.885

@<SCITEGIC>MOL_PROPERTY
Coulomb
SciTegic.value.DoubleValue
19.559

@<SCITEGIC>MOL_PROPERTY
VdW
SciTegic.value.DoubleValue
0.637

@<SCITEGIC>MOL_PROPERTY
VdW6
SciTegic.value.DoubleValue
-4.482

@<SCITEGIC>MOL_PROPERTY
VdW12
SciTegic.value.DoubleValue
5.119

@<SCITEGIC>MOL_PROPERTY
Bond
SciTegic.value.DoubleValue
0.136

@<SCITEGIC>MOL_PROPERTY
Angle
SciTegic.value.DoubleValue
0.867

@<SCITEGIC>MOL_PROPERTY
Pdih
SciTegic.value.DoubleValue
0.882

@<SCITEGIC>MOL_PROPERTY
Idih
SciTegic.value.DoubleValue
0.000

@<SCITEGIC>MOL_PROPERTY
Tether
SciTegic.value.DoubleValue
0.000

@<TRIPOS>MOLECULE
guest-s10_confgen4.mol2 : confsearch ligand conformer 462
          20          19           1
SMALL
USER_CHARGES
 
@<TRIPOS>ATOM
       1    N1      19.457716   20.196874   24.731095 N.4        1 MOL1        -0.5937
       2    H1      18.707896   19.680280   25.198812 H          1 MOL1         0.3684
       3    H2      19.040684   21.034403   24.317144 H          1 MOL1         0.3684
       4    H3      20.108452   20.508285   25.457211 H          1 MOL1         0.3684
       5    C1      20.150422   19.354590   23.695150 C.3        1 MOL1         0.1270
       6    H4      20.564029   18.491527   24.226109 H          1 MOL1         0.0960
       7    C2      21.314059   20.138391   23.060797 C.3        1 MOL1        -0.2382
       8    H5      21.979217   20.537501   23.836360 H          1 MOL1         0.1009
       9    H6      20.945902   20.980980   22.462397 H          1 MOL1         0.1009
      10    H7      21.921916   19.496268   22.413176 H          1 MOL1         0.1009
      11    C3      19.150301   18.836479   22.635524 C.3        1 MOL1        -0.1392
      12    H8      18.295412   18.385084   23.156168 H          1 MOL1         0.0998
      13    H9      18.751604   19.681692   22.058893 H          1 MOL1         0.0998
      14    C4      19.749958   17.783814   21.671433 C.3        1 MOL1        -0.1302
      15    H10     20.205237   16.967856   22.250228 H          1 MOL1         0.0998
      16    H11     20.550633   18.231840   21.068033 H          1 MOL1         0.0998
      17    C5      18.678079   17.202807   20.724232 C.3        1 MOL1        -0.2317
      18    H12     17.878231   16.706016   21.288750 H          1 MOL1         0.1009
      19    H13     19.120699   16.461777   20.045962 H          1 MOL1         0.1009
      20    H14     18.224010   17.991773   20.110545 H          1 MOL1         0.1009
@<TRIPOS>BOND
    1     1     2    1
    2     1     3    1
    3     1     4    1
    4     1     5    1
    5     5     6    1
    6     5     7    1
    7     7     8    1
    8     7     9    1
    9     7    10    1
   10     5    11    1
   11    11    12    1
   12    11    13    1
   13    11    14    1
   14    14    15    1
   15    14    16    1
   16    14    17    1
   17    17    18    1
   18    17    19    1
   19    17    20    1
@<TRIPOS>SUBSTRUCTURE
       1 MOL1            1 RESIDUE      1      MOL     
@<SCITEGIC>MOL_PROPERTY
VConf Rank
SciTegic.value.IntegerValue
462

@<SCITEGIC>MOL_PROPERTY
Conf_Id
SciTegic.value.IntegerValue
80

@<SCITEGIC>MOL_PROPERTY
Delta U+W
SciTegic.value.DoubleValue
0.460

@<SCITEGIC>MOL_PROPERTY
U+W
SciTegic.value.DoubleValue
-35.817

@<SCITEGIC>MOL_PROPERTY
Grad RMS
SciTegic.value.DoubleValue
0.000000

@<SCITEGIC>MOL_PROPERTY
U
SciTegic.value.DoubleValue
22.495

@<SCITEGIC>MOL_PROPERTY
W
SciTegic.value.DoubleValue
-58.311

@<SCITEGIC>MOL_PROPERTY
W(PB)
SciTegic.value.DoubleValue
-60.259

@<SCITEGIC>MOL_PROPERTY
W(SA)
SciTegic.value.DoubleValue
1.948

@<SCITEGIC>MOL_PROPERTY
Valence
SciTegic.value.DoubleValue
2.419

@<SCITEGIC>MOL_PROPERTY
Coulomb
SciTegic.value.DoubleValue
19.304

@<SCITEGIC>MOL_PROPERTY
VdW
SciTegic.value.DoubleValue
0.772

@<SCITEGIC>MOL_PROPERTY
VdW6
SciTegic.value.DoubleValue
-4.635

@<SCITEGIC>MOL_PROPERTY
VdW12
SciTegic.value.DoubleValue
5.407

@<SCITEGIC>MOL_PROPERTY
Bond
SciTegic.value.DoubleValue
0.149

@<SCITEGIC>MOL_PROPERTY
Angle
SciTegic.value.DoubleValue
1.142

@<SCITEGIC>MOL_PROPERTY
Pdih
SciTegic.value.DoubleValue
1.129

@<SCITEGIC>MOL_PROPERTY
Idih
SciTegic.value.DoubleValue
0.000

@<SCITEGIC>MOL_PROPERTY
Tether
SciTegic.value.DoubleValue
0.000

@<TRIPOS>MOLECULE
guest-s10_confgen4.mol2 : confsearch ligand conformer 463
          20          19           1
SMALL
USER_CHARGES
 
@<TRIPOS>ATOM
       1    N1      20.138313   21.216428   22.298091 N.4        1 MOL1        -0.5937
       2    H1      21.069673   21.371315   21.902630 H          1 MOL1         0.3684
       3    H2      20.176310   21.482675   23.285187 H          1 MOL1         0.3684
       4    H3      19.500102   21.866872   21.832017 H          1 MOL1         0.3684
       5    C1      19.692138   19.790009   22.127774 C.3        1 MOL1         0.1270
       6    H4      19.676429   19.600724   21.049941 H          1 MOL1         0.0960
       7    C2      18.261864   19.611847   22.665203 C.3        1 MOL1        -0.2382
       8    H5      17.594399   20.377901   22.251927 H          1 MOL1         0.1009
       9    H6      18.234805   19.690266   23.759082 H          1 MOL1         0.1009
      10    H7      17.851738   18.638047   22.374486 H          1 MOL1         0.1009
      11    C3      20.703396   18.810714   22.772503 C.3        1 MOL1        -0.1392
      12    H8      21.693508   19.038269   22.355863 H          1 MOL1         0.0998
      13    H9      20.782386   19.002312   23.850826 H          1 MOL1         0.0998
      14    C4      20.416611   17.307866   22.513956 C.3        1 MOL1        -0.1302
      15    H10     21.375012   16.785752   22.383647 H          1 MOL1         0.0998
      16    H11     19.873308   17.179804   21.567178 H          1 MOL1         0.0998
      17    C5      19.653821   16.619539   23.670412 C.3        1 MOL1        -0.2317
      18    H12     20.225561   16.676745   24.605804 H          1 MOL1         0.1009
      19    H13     19.491641   15.557534   23.444965 H          1 MOL1         0.1009
      20    H14     18.672819   17.074443   23.847156 H          1 MOL1         0.1009
@<TRIPOS>BOND
    1     1     2    1
    2     1     3    1
    3     1     4    1
    4     1     5    1
    5     5     6    1
    6     5     7    1
    7     7     8    1
    8     7     9    1
    9     7    10    1
   10     5    11    1
   11    11    12    1
   12    11    13    1
   13    11    14    1
   14    14    15    1
   15    14    16    1
   16    14    17    1
   17    17    18    1
   18    17    19    1
   19    17    20    1
@<TRIPOS>SUBSTRUCTURE
       1 MOL1            1 RESIDUE      1      MOL     
@<SCITEGIC>MOL_PROPERTY
VConf Rank
SciTegic.value.IntegerValue
463

@<SCITEGIC>MOL_PROPERTY
Conf_Id
SciTegic.value.IntegerValue
52

@<SCITEGIC>MOL_PROPERTY
Delta U+W
SciTegic.value.DoubleValue
2.995

@<SCITEGIC>MOL_PROPERTY
U+W
SciTegic.value.DoubleValue
-33.282

@<SCITEGIC>MOL_PROPERTY
Grad RMS
SciTegic.value.DoubleValue
0.000000

@<SCITEGIC>MOL_PROPERTY
U
SciTegic.value.DoubleValue
25.224

@<SCITEGIC>MOL_PROPERTY
W
SciTegic.value.DoubleValue
-58.506

@<SCITEGIC>MOL_PROPERTY
W(PB)
SciTegic.value.DoubleValue
-60.411

@<SCITEGIC>MOL_PROPERTY
W(SA)
SciTegic.value.DoubleValue
1.905

@<SCITEGIC>MOL_PROPERTY
Valence
SciTegic.value.DoubleValue
4.945

@<SCITEGIC>MOL_PROPERTY
Coulomb
SciTegic.value.DoubleValue
19.467

@<SCITEGIC>MOL_PROPERTY
VdW
SciTegic.value.DoubleValue
0.813

@<SCITEGIC>MOL_PROPERTY
VdW6
SciTegic.value.DoubleValue
-5.458

@<SCITEGIC>MOL_PROPERTY
VdW12
SciTegic.value.DoubleValue
6.270

@<SCITEGIC>MOL_PROPERTY
Bond
SciTegic.value.DoubleValue
0.200

@<SCITEGIC>MOL_PROPERTY
Angle
SciTegic.value.DoubleValue
1.675

@<SCITEGIC>MOL_PROPERTY
Pdih
SciTegic.value.DoubleValue
3.070

@<SCITEGIC>MOL_PROPERTY
Idih
SciTegic.value.DoubleValue
0.000

@<SCITEGIC>MOL_PROPERTY
Tether
SciTegic.value.DoubleValue
0.000

@<TRIPOS>MOLECULE
guest-s10_confgen4.mol2 : confsearch ligand conformer 464
          20          19           1
SMALL
USER_CHARGES
 
@<TRIPOS>ATOM
       1    N1      18.746510   19.448563   23.940705 N.4        1 MOL1        -0.5937
       2    H1      19.306092   19.365903   24.793003 H          1 MOL1         0.3684
       3    H2      17.761515   19.411629   24.216507 H          1 MOL1         0.3684
       4    H3      18.922823   20.375648   23.547751 H          1 MOL1         0.3684
       5    C1      19.085371   18.363987   22.954743 C.3        1 MOL1         0.1270
       6    H4      18.417547   18.488403   22.096684 H          1 MOL1         0.0960
       7    C2      18.812000   16.985975   23.580930 C.3        1 MOL1        -0.2382
       8    H5      19.469260   16.802795   24.440181 H          1 MOL1         0.1009
       9    H6      18.974397   16.184687   22.849349 H          1 MOL1         0.1009
      10    H7      17.772568   16.914168   23.924093 H          1 MOL1         0.1009
      11    C3      20.545735   18.447052   22.450091 C.3        1 MOL1        -0.1392
      12    H8      21.228341   18.581797   23.299483 H          1 MOL1         0.0998
      13    H9      20.815490   17.482772   21.999004 H          1 MOL1         0.0998
      14    C4      20.802656   19.540023   21.379572 C.3        1 MOL1        -0.1302
      15    H10     20.148670   19.370167   20.512689 H          1 MOL1         0.0998
      16    H11     21.831006   19.421903   21.010017 H          1 MOL1         0.0998
      17    C5      20.629410   20.992304   21.879645 C.3        1 MOL1        -0.2317
      18    H12     21.019962   21.698368   21.135178 H          1 MOL1         0.1009
      19    H13     21.177306   21.160578   22.816026 H          1 MOL1         0.1009
      20    H14     19.573734   21.243549   22.034123 H          1 MOL1         0.1009
@<TRIPOS>BOND
    1     1     2    1
    2     1     3    1
    3     1     4    1
    4     1     5    1
    5     5     6    1
    6     5     7    1
    7     7     8    1
    8     7     9    1
    9     7    10    1
   10     5    11    1
   11    11    12    1
   12    11    13    1
   13    11    14    1
   14    14    15    1
   15    14    16    1
   16    14    17    1
   17    17    18    1
   18    17    19    1
   19    17    20    1
@<TRIPOS>SUBSTRUCTURE
       1 MOL1            1 RESIDUE      1      MOL     
@<SCITEGIC>MOL_PROPERTY
VConf Rank
SciTegic.value.IntegerValue
464

@<SCITEGIC>MOL_PROPERTY
Conf_Id
SciTegic.value.IntegerValue
54

@<SCITEGIC>MOL_PROPERTY
Delta U+W
SciTegic.value.DoubleValue
2.752

@<SCITEGIC>MOL_PROPERTY
U+W
SciTegic.value.DoubleValue
-33.525

@<SCITEGIC>MOL_PROPERTY
Grad RMS
SciTegic.value.DoubleValue
0.000000

@<SCITEGIC>MOL_PROPERTY
U
SciTegic.value.DoubleValue
24.337

@<SCITEGIC>MOL_PROPERTY
W
SciTegic.value.DoubleValue
-57.862

@<SCITEGIC>MOL_PROPERTY
W(PB)
SciTegic.value.DoubleValue
-59.764

@<SCITEGIC>MOL_PROPERTY
W(SA)
SciTegic.value.DoubleValue
1.901

@<SCITEGIC>MOL_PROPERTY
Valence
SciTegic.value.DoubleValue
3.593

@<SCITEGIC>MOL_PROPERTY
Coulomb
SciTegic.value.DoubleValue
20.067

@<SCITEGIC>MOL_PROPERTY
VdW
SciTegic.value.DoubleValue
0.677

@<SCITEGIC>MOL_PROPERTY
VdW6
SciTegic.value.DoubleValue
-5.466

@<SCITEGIC>MOL_PROPERTY
VdW12
SciTegic.value.DoubleValue
6.144

@<SCITEGIC>MOL_PROPERTY
Bond
SciTegic.value.DoubleValue
0.191

@<SCITEGIC>MOL_PROPERTY
Angle
SciTegic.value.DoubleValue
1.557

@<SCITEGIC>MOL_PROPERTY
Pdih
SciTegic.value.DoubleValue
1.845

@<SCITEGIC>MOL_PROPERTY
Idih
SciTegic.value.DoubleValue
0.000

@<SCITEGIC>MOL_PROPERTY
Tether
SciTegic.value.DoubleValue
0.000

@<TRIPOS>MOLECULE
guest-s10_confgen4.mol2 : confsearch ligand conformer 465
          20          19           1
SMALL
USER_CHARGES
 
@<TRIPOS>ATOM
       1    N1      20.153550   18.195909   20.816992 N.4        1 MOL1        -0.5937
       2    H1      20.460225   17.364465   20.304835 H          1 MOL1         0.3684
       3    H2      20.452957   19.012552   20.277398 H          1 MOL1         0.3684
       4    H3      19.131119   18.190219   20.824113 H          1 MOL1         0.3684
       5    C1      20.713223   18.220039   22.213441 C.3        1 MOL1         0.1270
       6    H4      21.802134   18.207024   22.103324 H          1 MOL1         0.0960
       7    C2      20.310924   16.955013   22.992355 C.3        1 MOL1        -0.2382
       8    H5      20.719326   16.977250   24.010287 H          1 MOL1         0.1009
       9    H6      20.703398   16.058600   22.496879 H          1 MOL1         0.1009
      10    H7      19.221808   16.849354   23.060940 H          1 MOL1         0.1009
      11    C3      20.345826   19.514989   22.977100 C.3        1 MOL1        -0.1392
      12    H8      20.857207   19.508767   23.948793 H          1 MOL1         0.0998
      13    H9      20.756872   20.371139   22.426231 H          1 MOL1         0.0998
      14    C4      18.827160   19.735225   23.199570 C.3        1 MOL1        -0.1302
      15    H10     18.406997   18.913285   23.794458 H          1 MOL1         0.0998
      16    H11     18.298750   19.734708   22.236791 H          1 MOL1         0.0998
      17    C5      18.548664   21.069117   23.925174 C.3        1 MOL1        -0.2317
      18    H12     17.470685   21.210025   24.077405 H          1 MOL1         0.1009
      19    H13     18.920043   21.921719   23.341765 H          1 MOL1         0.1009
      20    H14     19.033208   21.091905   24.910020 H          1 MOL1         0.1009
@<TRIPOS>BOND
    1     1     2    1
    2     1     3    1
    3     1     4    1
    4     1     5    1
    5     5     6    1
    6     5     7    1
    7     7     8    1
    8     7     9    1
    9     7    10    1
   10     5    11    1
   11    11    12    1
   12    11    13    1
   13    11    14    1
   14    14    15    1
   15    14    16    1
   16    14    17    1
   17    17    18    1
   18    17    19    1
   19    17    20    1
@<TRIPOS>SUBSTRUCTURE
       1 MOL1            1 RESIDUE      1      MOL     
@<SCITEGIC>MOL_PROPERTY
VConf Rank
SciTegic.value.IntegerValue
465

@<SCITEGIC>MOL_PROPERTY
Conf_Id
SciTegic.value.IntegerValue
63

@<SCITEGIC>MOL_PROPERTY
Delta U+W
SciTegic.value.DoubleValue
0.420

@<SCITEGIC>MOL_PROPERTY
U+W
SciTegic.value.DoubleValue
-35.856

@<SCITEGIC>MOL_PROPERTY
Grad RMS
SciTegic.value.DoubleValue
0.000000

@<SCITEGIC>MOL_PROPERTY
U
SciTegic.value.DoubleValue
22.625

@<SCITEGIC>MOL_PROPERTY
W
SciTegic.value.DoubleValue
-58.481

@<SCITEGIC>MOL_PROPERTY
W(PB)
SciTegic.value.DoubleValue
-60.400

@<SCITEGIC>MOL_PROPERTY
W(SA)
SciTegic.value.DoubleValue
1.919

@<SCITEGIC>MOL_PROPERTY
Valence
SciTegic.value.DoubleValue
2.404

@<SCITEGIC>MOL_PROPERTY
Coulomb
SciTegic.value.DoubleValue
19.464

@<SCITEGIC>MOL_PROPERTY
VdW
SciTegic.value.DoubleValue
0.757

@<SCITEGIC>MOL_PROPERTY
VdW6
SciTegic.value.DoubleValue
-5.074

@<SCITEGIC>MOL_PROPERTY
VdW12
SciTegic.value.DoubleValue
5.830

@<SCITEGIC>MOL_PROPERTY
Bond
SciTegic.value.DoubleValue
0.172

@<SCITEGIC>MOL_PROPERTY
Angle
SciTegic.value.DoubleValue
1.207

@<SCITEGIC>MOL_PROPERTY
Pdih
SciTegic.value.DoubleValue
1.025

@<SCITEGIC>MOL_PROPERTY
Idih
SciTegic.value.DoubleValue
0.000

@<SCITEGIC>MOL_PROPERTY
Tether
SciTegic.value.DoubleValue
0.000

@<TRIPOS>MOLECULE
guest-s10_confgen4.mol2 : confsearch ligand conformer 466
          20          19           1
SMALL
USER_CHARGES
 
@<TRIPOS>ATOM
       1    N1      21.016506   19.694916   21.836856 N.4        1 MOL1        -0.5937
       2    H1      20.422860   19.520465   21.021977 H          1 MOL1         0.3684
       3    H2      21.805582   19.045786   21.787758 H          1 MOL1         0.3684
       4    H3      21.393184   20.641992   21.743574 H          1 MOL1         0.3684
       5    C1      20.246736   19.530807   23.119314 C.3        1 MOL1         0.1270
       6    H4      19.429846   20.258155   23.091310 H          1 MOL1         0.0960
       7    C2      21.135003   19.855852   24.331272 C.3        1 MOL1        -0.2382
       8    H5      21.540636   20.872091   24.254092 H          1 MOL1         0.1009
       9    H6      21.977137   19.156584   24.406019 H          1 MOL1         0.1009
      10    H7      20.559122   19.797818   25.263268 H          1 MOL1         0.1009
      11    C3      19.633992   18.119257   23.264412 C.3        1 MOL1        -0.1392
      12    H8      20.440222   17.375171   23.310917 H          1 MOL1         0.0998
      13    H9      19.103770   18.056940   24.224052 H          1 MOL1         0.0998
      14    C4      18.652732   17.733008   22.128701 C.3        1 MOL1        -0.1302
      15    H10     18.276610   16.717805   22.317902 H          1 MOL1         0.0998
      16    H11     19.183467   17.683709   21.168255 H          1 MOL1         0.0998
      17    C5      17.451156   18.698358   22.011725 C.3        1 MOL1        -0.2317
      18    H12     16.904105   18.764133   22.961245 H          1 MOL1         0.1009
      19    H13     16.748745   18.346791   21.244856 H          1 MOL1         0.1009
      20    H14     17.769945   19.709492   21.729096 H          1 MOL1         0.1009
@<TRIPOS>BOND
    1     1     2    1
    2     1     3    1
    3     1     4    1
    4     1     5    1
    5     5     6    1
    6     5     7    1
    7     7     8    1
    8     7     9    1
    9     7    10    1
   10     5    11    1
   11    11    12    1
   12    11    13    1
   13    11    14    1
   14    14    15    1
   15    14    16    1
   16    14    17    1
   17    17    18    1
   18    17    19    1
   19    17    20    1
@<TRIPOS>SUBSTRUCTURE
       1 MOL1            1 RESIDUE      1      MOL     
@<SCITEGIC>MOL_PROPERTY
VConf Rank
SciTegic.value.IntegerValue
466

@<SCITEGIC>MOL_PROPERTY
Conf_Id
SciTegic.value.IntegerValue
50

@<SCITEGIC>MOL_PROPERTY
Delta U+W
SciTegic.value.DoubleValue
0.466

@<SCITEGIC>MOL_PROPERTY
U+W
SciTegic.value.DoubleValue
-35.811

@<SCITEGIC>MOL_PROPERTY
Grad RMS
SciTegic.value.DoubleValue
0.000000

@<SCITEGIC>MOL_PROPERTY
U
SciTegic.value.DoubleValue
22.369

@<SCITEGIC>MOL_PROPERTY
W
SciTegic.value.DoubleValue
-58.180

@<SCITEGIC>MOL_PROPERTY
W(PB)
SciTegic.value.DoubleValue
-60.103

@<SCITEGIC>MOL_PROPERTY
W(SA)
SciTegic.value.DoubleValue
1.923

@<SCITEGIC>MOL_PROPERTY
Valence
SciTegic.value.DoubleValue
2.168

@<SCITEGIC>MOL_PROPERTY
Coulomb
SciTegic.value.DoubleValue
19.636

@<SCITEGIC>MOL_PROPERTY
VdW
SciTegic.value.DoubleValue
0.566

@<SCITEGIC>MOL_PROPERTY
VdW6
SciTegic.value.DoubleValue
-5.263

@<SCITEGIC>MOL_PROPERTY
VdW12
SciTegic.value.DoubleValue
5.829

@<SCITEGIC>MOL_PROPERTY
Bond
SciTegic.value.DoubleValue
0.162

@<SCITEGIC>MOL_PROPERTY
Angle
SciTegic.value.DoubleValue
1.066

@<SCITEGIC>MOL_PROPERTY
Pdih
SciTegic.value.DoubleValue
0.939

@<SCITEGIC>MOL_PROPERTY
Idih
SciTegic.value.DoubleValue
0.000

@<SCITEGIC>MOL_PROPERTY
Tether
SciTegic.value.DoubleValue
0.000

@<TRIPOS>MOLECULE
guest-s10_confgen4.mol2 : confsearch ligand conformer 467
          20          19           1
SMALL
USER_CHARGES
 
@<TRIPOS>ATOM
       1    N1      19.929480   18.940969   20.464056 N.4        1 MOL1        -0.5937
       2    H1      20.135298   19.919507   20.244744 H          1 MOL1         0.3684
       3    H2      19.010441   18.724537   20.069850 H          1 MOL1         0.3684
       4    H3      20.616579   18.368696   19.965925 H          1 MOL1         0.3684
       5    C1      19.969700   18.684060   21.946271 C.3        1 MOL1         0.1270
       6    H4      20.980913   18.945194   22.273410 H          1 MOL1         0.0960
       7    C2      19.730056   17.189111   22.228517 C.3        1 MOL1        -0.2382
       8    H5      18.741905   16.873000   21.871730 H          1 MOL1         0.1009
       9    H6      19.787559   16.967002   23.299568 H          1 MOL1         0.1009
      10    H7      20.485057   16.574732   21.722909 H          1 MOL1         0.1009
      11    C3      18.967976   19.579995   22.715739 C.3        1 MOL1        -0.1392
      12    H8      18.663831   20.415024   22.070839 H          1 MOL1         0.0998
      13    H9      18.046103   19.024667   22.934308 H          1 MOL1         0.0998
      14    C4      19.544275   20.189956   24.018662 C.3        1 MOL1        -0.1302
      15    H10     18.794176   20.867235   24.450609 H          1 MOL1         0.0998
      16    H11     20.416077   20.814414   23.777634 H          1 MOL1         0.0998
      17    C5      19.941764   19.144572   25.084218 C.3        1 MOL1        -0.2317
      18    H12     19.102426   18.476223   25.316272 H          1 MOL1         0.1009
      19    H13     20.240897   19.641761   26.016079 H          1 MOL1         0.1009
      20    H14     20.791168   18.535391   24.750991 H          1 MOL1         0.1009
@<TRIPOS>BOND
    1     1     2    1
    2     1     3    1
    3     1     4    1
    4     1     5    1
    5     5     6    1
    6     5     7    1
    7     7     8    1
    8     7     9    1
    9     7    10    1
   10     5    11    1
   11    11    12    1
   12    11    13    1
   13    11    14    1
   14    14    15    1
   15    14    16    1
   16    14    17    1
   17    17    18    1
   18    17    19    1
   19    17    20    1
@<TRIPOS>SUBSTRUCTURE
       1 MOL1            1 RESIDUE      1      MOL     
@<SCITEGIC>MOL_PROPERTY
VConf Rank
SciTegic.value.IntegerValue
467

@<SCITEGIC>MOL_PROPERTY
Conf_Id
SciTegic.value.IntegerValue
3

@<SCITEGIC>MOL_PROPERTY
Delta U+W
SciTegic.value.DoubleValue
3.093

@<SCITEGIC>MOL_PROPERTY
U+W
SciTegic.value.DoubleValue
-33.184

@<SCITEGIC>MOL_PROPERTY
Grad RMS
SciTegic.value.DoubleValue
0.000000

@<SCITEGIC>MOL_PROPERTY
U
SciTegic.value.DoubleValue
25.256

@<SCITEGIC>MOL_PROPERTY
W
SciTegic.value.DoubleValue
-58.439

@<SCITEGIC>MOL_PROPERTY
W(PB)
SciTegic.value.DoubleValue
-60.337

@<SCITEGIC>MOL_PROPERTY
W(SA)
SciTegic.value.DoubleValue
1.898

@<SCITEGIC>MOL_PROPERTY
Valence
SciTegic.value.DoubleValue
4.963

@<SCITEGIC>MOL_PROPERTY
Coulomb
SciTegic.value.DoubleValue
19.511

@<SCITEGIC>MOL_PROPERTY
VdW
SciTegic.value.DoubleValue
0.782

@<SCITEGIC>MOL_PROPERTY
VdW6
SciTegic.value.DoubleValue
-5.429

@<SCITEGIC>MOL_PROPERTY
VdW12
SciTegic.value.DoubleValue
6.211

@<SCITEGIC>MOL_PROPERTY
Bond
SciTegic.value.DoubleValue
0.174

@<SCITEGIC>MOL_PROPERTY
Angle
SciTegic.value.DoubleValue
1.377

@<SCITEGIC>MOL_PROPERTY
Pdih
SciTegic.value.DoubleValue
3.412

@<SCITEGIC>MOL_PROPERTY
Idih
SciTegic.value.DoubleValue
0.000

@<SCITEGIC>MOL_PROPERTY
Tether
SciTegic.value.DoubleValue
0.000

@<TRIPOS>MOLECULE
guest-s10_confgen4.mol2 : confsearch ligand conformer 468
          20          19           1
SMALL
USER_CHARGES
 
@<TRIPOS>ATOM
       1    N1      17.672871   20.027160   22.814191 N.4        1 MOL1        -0.5937
       2    H1      16.825432   19.657491   22.375070 H          1 MOL1         0.3684
       3    H2      17.879335   20.923809   22.365611 H          1 MOL1         0.3684
       4    H3      17.448568   20.219166   23.793735 H          1 MOL1         0.3684
       5    C1      18.822692   19.065615   22.688804 C.3        1 MOL1         0.1270
       6    H4      18.984854   18.919838   21.616633 H          1 MOL1         0.0960
       7    C2      18.455634   17.707510   23.314042 C.3        1 MOL1        -0.2382
       8    H5      19.225333   16.954406   23.109271 H          1 MOL1         0.1009
       9    H6      17.514111   17.331036   22.895789 H          1 MOL1         0.1009
      10    H7      18.336013   17.790248   24.401393 H          1 MOL1         0.1009
      11    C3      20.115769   19.656196   23.300026 C.3        1 MOL1        -0.1392
      12    H8      20.280653   20.655185   22.875339 H          1 MOL1         0.0998
      13    H9      19.973270   19.803854   24.378742 H          1 MOL1         0.0998
      14    C4      21.394833   18.811282   23.069332 C.3        1 MOL1        -0.1302
      15    H10     21.317968   17.850781   23.596403 H          1 MOL1         0.0998
      16    H11     22.248520   19.334451   23.522490 H          1 MOL1         0.0998
      17    C5      21.695968   18.563925   21.573577 C.3        1 MOL1        -0.2317
      18    H12     21.774631   19.511327   21.024578 H          1 MOL1         0.1009
      19    H13     20.914579   17.956287   21.100004 H          1 MOL1         0.1009
      20    H14     22.647272   18.028898   21.456171 H          1 MOL1         0.1009
@<TRIPOS>BOND
    1     1     2    1
    2     1     3    1
    3     1     4    1
    4     1     5    1
    5     5     6    1
    6     5     7    1
    7     7     8    1
    8     7     9    1
    9     7    10    1
   10     5    11    1
   11    11    12    1
   12    11    13    1
   13    11    14    1
   14    14    15    1
   15    14    16    1
   16    14    17    1
   17    17    18    1
   18    17    19    1
   19    17    20    1
@<TRIPOS>SUBSTRUCTURE
       1 MOL1            1 RESIDUE      1      MOL     
@<SCITEGIC>MOL_PROPERTY
VConf Rank
SciTegic.value.IntegerValue
468

@<SCITEGIC>MOL_PROPERTY
Conf_Id
SciTegic.value.IntegerValue
64

@<SCITEGIC>MOL_PROPERTY
Delta U+W
SciTegic.value.DoubleValue
0.544

@<SCITEGIC>MOL_PROPERTY
U+W
SciTegic.value.DoubleValue
-35.732

@<SCITEGIC>MOL_PROPERTY
Grad RMS
SciTegic.value.DoubleValue
0.000000

@<SCITEGIC>MOL_PROPERTY
U
SciTegic.value.DoubleValue
22.800

@<SCITEGIC>MOL_PROPERTY
W
SciTegic.value.DoubleValue
-58.532

@<SCITEGIC>MOL_PROPERTY
W(PB)
SciTegic.value.DoubleValue
-60.437

@<SCITEGIC>MOL_PROPERTY
W(SA)
SciTegic.value.DoubleValue
1.905

@<SCITEGIC>MOL_PROPERTY
Valence
SciTegic.value.DoubleValue
2.662

@<SCITEGIC>MOL_PROPERTY
Coulomb
SciTegic.value.DoubleValue
19.485

@<SCITEGIC>MOL_PROPERTY
VdW
SciTegic.value.DoubleValue
0.653

@<SCITEGIC>MOL_PROPERTY
VdW6
SciTegic.value.DoubleValue
-5.460

@<SCITEGIC>MOL_PROPERTY
VdW12
SciTegic.value.DoubleValue
6.113

@<SCITEGIC>MOL_PROPERTY
Bond
SciTegic.value.DoubleValue
0.174

@<SCITEGIC>MOL_PROPERTY
Angle
SciTegic.value.DoubleValue
1.378

@<SCITEGIC>MOL_PROPERTY
Pdih
SciTegic.value.DoubleValue
1.109

@<SCITEGIC>MOL_PROPERTY
Idih
SciTegic.value.DoubleValue
0.000

@<SCITEGIC>MOL_PROPERTY
Tether
SciTegic.value.DoubleValue
0.000

@<TRIPOS>MOLECULE
guest-s10_confgen4.mol2 : confsearch ligand conformer 469
          20          19           1
SMALL
USER_CHARGES
 
@<TRIPOS>ATOM
       1    N1      21.835424   18.835331   22.199641 N.4        1 MOL1        -0.5937
       2    H1      21.451486   18.069819   21.641201 H          1 MOL1         0.3684
       3    H2      22.668139   18.478435   22.675901 H          1 MOL1         0.3684
       4    H3      22.145700   19.563491   21.550664 H          1 MOL1         0.3684
       5    C1      20.823733   19.362738   23.181046 C.3        1 MOL1         0.1270
       6    H4      21.329603   20.161951   23.731788 H          1 MOL1         0.0960
       7    C2      20.432083   18.279884   24.199752 C.3        1 MOL1        -0.2382
       8    H5      20.039234   17.384909   23.703367 H          1 MOL1         0.1009
       9    H6      19.672633   18.655107   24.896732 H          1 MOL1         0.1009
      10    H7      21.304905   17.976767   24.790745 H          1 MOL1         0.1009
      11    C3      19.599716   20.003001   22.479061 C.3        1 MOL1        -0.1392
      12    H8      18.983306   20.522934   23.224182 H          1 MOL1         0.0998
      13    H9      19.977736   20.792747   21.816577 H          1 MOL1         0.0998
      14    C4      18.711962   19.044936   21.636904 C.3        1 MOL1        -0.1302
      15    H10     19.310549   18.229129   21.210836 H          1 MOL1         0.0998
      16    H11     18.316207   19.605299   20.778211 H          1 MOL1         0.0998
      17    C5      17.508354   18.469417   22.419753 C.3        1 MOL1        -0.2317
      18    H12     17.823545   17.856671   23.271325 H          1 MOL1         0.1009
      19    H13     16.893951   17.836178   21.766697 H          1 MOL1         0.1009
      20    H14     16.866350   19.274202   22.800797 H          1 MOL1         0.1009
@<TRIPOS>BOND
    1     1     2    1
    2     1     3    1
    3     1     4    1
    4     1     5    1
    5     5     6    1
    6     5     7    1
    7     7     8    1
    8     7     9    1
    9     7    10    1
   10     5    11    1
   11    11    12    1
   12    11    13    1
   13    11    14    1
   14    14    15    1
   15    14    16    1
   16    14    17    1
   17    17    18    1
   18    17    19    1
   19    17    20    1
@<TRIPOS>SUBSTRUCTURE
       1 MOL1            1 RESIDUE      1      MOL     
@<SCITEGIC>MOL_PROPERTY
VConf Rank
SciTegic.value.IntegerValue
469

@<SCITEGIC>MOL_PROPERTY
Conf_Id
SciTegic.value.IntegerValue
35

@<SCITEGIC>MOL_PROPERTY
Delta U+W
SciTegic.value.DoubleValue
3.004

@<SCITEGIC>MOL_PROPERTY
U+W
SciTegic.value.DoubleValue
-33.272

@<SCITEGIC>MOL_PROPERTY
Grad RMS
SciTegic.value.DoubleValue
0.000000

@<SCITEGIC>MOL_PROPERTY
U
SciTegic.value.DoubleValue
25.367

@<SCITEGIC>MOL_PROPERTY
W
SciTegic.value.DoubleValue
-58.639

@<SCITEGIC>MOL_PROPERTY
W(PB)
SciTegic.value.DoubleValue
-60.512

@<SCITEGIC>MOL_PROPERTY
W(SA)
SciTegic.value.DoubleValue
1.873

@<SCITEGIC>MOL_PROPERTY
Valence
SciTegic.value.DoubleValue
4.943

@<SCITEGIC>MOL_PROPERTY
Coulomb
SciTegic.value.DoubleValue
19.661

@<SCITEGIC>MOL_PROPERTY
VdW
SciTegic.value.DoubleValue
0.764

@<SCITEGIC>MOL_PROPERTY
VdW6
SciTegic.value.DoubleValue
-5.871

@<SCITEGIC>MOL_PROPERTY
VdW12
SciTegic.value.DoubleValue
6.636

@<SCITEGIC>MOL_PROPERTY
Bond
SciTegic.value.DoubleValue
0.230

@<SCITEGIC>MOL_PROPERTY
Angle
SciTegic.value.DoubleValue
1.857

@<SCITEGIC>MOL_PROPERTY
Pdih
SciTegic.value.DoubleValue
2.855

@<SCITEGIC>MOL_PROPERTY
Idih
SciTegic.value.DoubleValue
0.000

@<SCITEGIC>MOL_PROPERTY
Tether
SciTegic.value.DoubleValue
0.000

@<TRIPOS>MOLECULE
guest-s10_confgen4.mol2 : confsearch ligand conformer 470
          20          19           1
SMALL
USER_CHARGES
 
@<TRIPOS>ATOM
       1    N1      20.398523   17.400965   23.301249 N.4        1 MOL1        -0.5937
       2    H1      21.094654   16.696003   23.044282 H          1 MOL1         0.3684
       3    H2      19.741761   16.958347   23.949582 H          1 MOL1         0.3684
       4    H3      20.881659   18.141497   23.813293 H          1 MOL1         0.3684
       5    C1      19.693178   17.947291   22.090266 C.3        1 MOL1         0.1270
       6    H4      19.192787   17.087177   21.634482 H          1 MOL1         0.0960
       7    C2      20.693744   18.495384   21.057322 C.3        1 MOL1        -0.2382
       8    H5      21.303538   19.305540   21.474566 H          1 MOL1         0.1009
       9    H6      20.169271   18.879125   20.173529 H          1 MOL1         0.1009
      10    H7      21.373413   17.702382   20.722409 H          1 MOL1         0.1009
      11    C3      18.586697   18.973991   22.443676 C.3        1 MOL1        -0.1392
      12    H8      17.934253   19.074550   21.566324 H          1 MOL1         0.0998
      13    H9      17.949928   18.552864   23.232596 H          1 MOL1         0.0998
      14    C4      19.044082   20.399919   22.860959 C.3        1 MOL1        -0.1302
      15    H10     18.144782   21.008326   23.031028 H          1 MOL1         0.0998
      16    H11     19.576446   20.886882   22.032655 H          1 MOL1         0.0998
      17    C5      19.912528   20.451051   24.138499 C.3        1 MOL1        -0.2317
      18    H12     19.443110   19.896889   24.961720 H          1 MOL1         0.1009
      19    H13     20.041779   21.490084   24.468459 H          1 MOL1         0.1009
      20    H14     20.914476   20.043278   23.962175 H          1 MOL1         0.1009
@<TRIPOS>BOND
    1     1     2    1
    2     1     3    1
    3     1     4    1
    4     1     5    1
    5     5     6    1
    6     5     7    1
    7     7     8    1
    8     7     9    1
    9     7    10    1
   10     5    11    1
   11    11    12    1
   12    11    13    1
   13    11    14    1
   14    14    15    1
   15    14    16    1
   16    14    17    1
   17    17    18    1
   18    17    19    1
   19    17    20    1
@<TRIPOS>SUBSTRUCTURE
       1 MOL1            1 RESIDUE      1      MOL     
@<SCITEGIC>MOL_PROPERTY
VConf Rank
SciTegic.value.IntegerValue
470

@<SCITEGIC>MOL_PROPERTY
Conf_Id
SciTegic.value.IntegerValue
55

@<SCITEGIC>MOL_PROPERTY
Delta U+W
SciTegic.value.DoubleValue
2.767

@<SCITEGIC>MOL_PROPERTY
U+W
SciTegic.value.DoubleValue
-33.509

@<SCITEGIC>MOL_PROPERTY
Grad RMS
SciTegic.value.DoubleValue
0.000000

@<SCITEGIC>MOL_PROPERTY
U
SciTegic.value.DoubleValue
24.552

@<SCITEGIC>MOL_PROPERTY
W
SciTegic.value.DoubleValue
-58.061

@<SCITEGIC>MOL_PROPERTY
W(PB)
SciTegic.value.DoubleValue
-59.930

@<SCITEGIC>MOL_PROPERTY
W(SA)
SciTegic.value.DoubleValue
1.869

@<SCITEGIC>MOL_PROPERTY
Valence
SciTegic.value.DoubleValue
3.726

@<SCITEGIC>MOL_PROPERTY
Coulomb
SciTegic.value.DoubleValue
20.219

@<SCITEGIC>MOL_PROPERTY
VdW
SciTegic.value.DoubleValue
0.606

@<SCITEGIC>MOL_PROPERTY
VdW6
SciTegic.value.DoubleValue
-6.395

@<SCITEGIC>MOL_PROPERTY
VdW12
SciTegic.value.DoubleValue
7.001

@<SCITEGIC>MOL_PROPERTY
Bond
SciTegic.value.DoubleValue
0.241

@<SCITEGIC>MOL_PROPERTY
Angle
SciTegic.value.DoubleValue
2.098

@<SCITEGIC>MOL_PROPERTY
Pdih
SciTegic.value.DoubleValue
1.387

@<SCITEGIC>MOL_PROPERTY
Idih
SciTegic.value.DoubleValue
0.000

@<SCITEGIC>MOL_PROPERTY
Tether
SciTegic.value.DoubleValue
0.000

@<TRIPOS>MOLECULE
guest-s10_confgen4.mol2 : confsearch ligand conformer 471
          20          19           1
SMALL
USER_CHARGES
 
@<TRIPOS>ATOM
       1    N1      20.558406   20.344371   23.857202 N.4        1 MOL1        -0.5937
       2    H1      20.449978   19.862667   24.753165 H          1 MOL1         0.3684
       3    H2      20.612986   21.347232   24.054558 H          1 MOL1         0.3684
       4    H3      21.459784   20.062860   23.463693 H          1 MOL1         0.3684
       5    C1      19.423742   20.028341   22.920333 C.3        1 MOL1         0.1270
       6    H4      19.619142   20.576088   21.993144 H          1 MOL1         0.0960
       7    C2      18.089663   20.525605   23.500791 C.3        1 MOL1        -0.2382
       8    H5      18.133150   21.601960   23.707749 H          1 MOL1         0.1009
       9    H6      17.845527   20.007276   24.436487 H          1 MOL1         0.1009
      10    H7      17.268920   20.356596   22.792657 H          1 MOL1         0.1009
      11    C3      19.334604   18.523681   22.582397 C.3        1 MOL1        -0.1392
      12    H8      19.162057   17.947843   23.501393 H          1 MOL1         0.0998
      13    H9      18.460034   18.356290   21.939609 H          1 MOL1         0.0998
      14    C4      20.594508   17.989636   21.859239 C.3        1 MOL1        -0.1302
      15    H10     21.476428   18.094230   22.505539 H          1 MOL1         0.0998
      16    H11     20.786838   18.589730   20.958606 H          1 MOL1         0.0998
      17    C5      20.437317   16.506411   21.460946 C.3        1 MOL1        -0.2317
      18    H12     20.273824   15.875435   22.344345 H          1 MOL1         0.1009
      19    H13     21.339474   16.144159   20.951072 H          1 MOL1         0.1009
      20    H14     19.587623   16.367515   20.779799 H          1 MOL1         0.1009
@<TRIPOS>BOND
    1     1     2    1
    2     1     3    1
    3     1     4    1
    4     1     5    1
    5     5     6    1
    6     5     7    1
    7     7     8    1
    8     7     9    1
    9     7    10    1
   10     5    11    1
   11    11    12    1
   12    11    13    1
   13    11    14    1
   14    14    15    1
   15    14    16    1
   16    14    17    1
   17    17    18    1
   18    17    19    1
   19    17    20    1
@<TRIPOS>SUBSTRUCTURE
       1 MOL1            1 RESIDUE      1      MOL     
@<SCITEGIC>MOL_PROPERTY
VConf Rank
SciTegic.value.IntegerValue
471

@<SCITEGIC>MOL_PROPERTY
Conf_Id
SciTegic.value.IntegerValue
74

@<SCITEGIC>MOL_PROPERTY
Delta U+W
SciTegic.value.DoubleValue
0.000

@<SCITEGIC>MOL_PROPERTY
U+W
SciTegic.value.DoubleValue
-36.276

@<SCITEGIC>MOL_PROPERTY
Grad RMS
SciTegic.value.DoubleValue
0.000000

@<SCITEGIC>MOL_PROPERTY
U
SciTegic.value.DoubleValue
22.080

@<SCITEGIC>MOL_PROPERTY
W
SciTegic.value.DoubleValue
-58.356

@<SCITEGIC>MOL_PROPERTY
W(PB)
SciTegic.value.DoubleValue
-60.289

@<SCITEGIC>MOL_PROPERTY
W(SA)
SciTegic.value.DoubleValue
1.932

@<SCITEGIC>MOL_PROPERTY
Valence
SciTegic.value.DoubleValue
1.885

@<SCITEGIC>MOL_PROPERTY
Coulomb
SciTegic.value.DoubleValue
19.559

@<SCITEGIC>MOL_PROPERTY
VdW
SciTegic.value.DoubleValue
0.637

@<SCITEGIC>MOL_PROPERTY
VdW6
SciTegic.value.DoubleValue
-4.482

@<SCITEGIC>MOL_PROPERTY
VdW12
SciTegic.value.DoubleValue
5.119

@<SCITEGIC>MOL_PROPERTY
Bond
SciTegic.value.DoubleValue
0.136

@<SCITEGIC>MOL_PROPERTY
Angle
SciTegic.value.DoubleValue
0.867

@<SCITEGIC>MOL_PROPERTY
Pdih
SciTegic.value.DoubleValue
0.882

@<SCITEGIC>MOL_PROPERTY
Idih
SciTegic.value.DoubleValue
0.000

@<SCITEGIC>MOL_PROPERTY
Tether
SciTegic.value.DoubleValue
0.000

@<TRIPOS>MOLECULE
guest-s10_confgen4.mol2 : confsearch ligand conformer 472
          20          19           1
SMALL
USER_CHARGES
 
@<TRIPOS>ATOM
       1    N1      20.174495   16.781257   21.772795 N.4        1 MOL1        -0.5937
       2    H1      20.311081   16.208277   22.609990 H          1 MOL1         0.3684
       3    H2      21.099461   16.979999   21.383353 H          1 MOL1         0.3684
       4    H3      19.674701   16.204780   21.090475 H          1 MOL1         0.3684
       5    C1      19.421502   18.046136   22.081904 C.3        1 MOL1         0.1270
       6    H4      18.452940   17.736905   22.487031 H          1 MOL1         0.0960
       7    C2      19.174649   18.849355   20.791670 C.3        1 MOL1        -0.2382
       8    H5      18.703118   18.218549   20.028148 H          1 MOL1         0.1009
       9    H6      20.114407   19.237001   20.379159 H          1 MOL1         0.1009
      10    H7      18.502515   19.696295   20.970977 H          1 MOL1         0.1009
      11    C3      20.151176   18.882503   23.158730 C.3        1 MOL1        -0.1392
      12    H8      20.392263   18.225293   24.004670 H          1 MOL1         0.0998
      13    H9      21.109885   19.241428   22.761367 H          1 MOL1         0.0998
      14    C4      19.324277   20.080080   23.687132 C.3        1 MOL1        -0.1302
      15    H10     18.339547   19.729471   24.026913 H          1 MOL1         0.0998
      16    H11     19.144178   20.804111   22.881374 H          1 MOL1         0.0998
      17    C5      20.041088   20.798048   24.850913 C.3        1 MOL1        -0.2317
      18    H12     20.201779   20.117351   25.697121 H          1 MOL1         0.1009
      19    H13     19.443350   21.645701   25.210469 H          1 MOL1         0.1009
      20    H14     21.018045   21.185698   24.533828 H          1 MOL1         0.1009
@<TRIPOS>BOND
    1     1     2    1
    2     1     3    1
    3     1     4    1
    4     1     5    1
    5     5     6    1
    6     5     7    1
    7     7     8    1
    8     7     9    1
    9     7    10    1
   10     5    11    1
   11    11    12    1
   12    11    13    1
   13    11    14    1
   14    14    15    1
   15    14    16    1
   16    14    17    1
   17    17    18    1
   18    17    19    1
   19    17    20    1
@<TRIPOS>SUBSTRUCTURE
       1 MOL1            1 RESIDUE      1      MOL     
@<SCITEGIC>MOL_PROPERTY
VConf Rank
SciTegic.value.IntegerValue
472

@<SCITEGIC>MOL_PROPERTY
Conf_Id
SciTegic.value.IntegerValue
80

@<SCITEGIC>MOL_PROPERTY
Delta U+W
SciTegic.value.DoubleValue
0.460

@<SCITEGIC>MOL_PROPERTY
U+W
SciTegic.value.DoubleValue
-35.817

@<SCITEGIC>MOL_PROPERTY
Grad RMS
SciTegic.value.DoubleValue
0.000000

@<SCITEGIC>MOL_PROPERTY
U
SciTegic.value.DoubleValue
22.495

@<SCITEGIC>MOL_PROPERTY
W
SciTegic.value.DoubleValue
-58.311

@<SCITEGIC>MOL_PROPERTY
W(PB)
SciTegic.value.DoubleValue
-60.259

@<SCITEGIC>MOL_PROPERTY
W(SA)
SciTegic.value.DoubleValue
1.948

@<SCITEGIC>MOL_PROPERTY
Valence
SciTegic.value.DoubleValue
2.419

@<SCITEGIC>MOL_PROPERTY
Coulomb
SciTegic.value.DoubleValue
19.304

@<SCITEGIC>MOL_PROPERTY
VdW
SciTegic.value.DoubleValue
0.772

@<SCITEGIC>MOL_PROPERTY
VdW6
SciTegic.value.DoubleValue
-4.635

@<SCITEGIC>MOL_PROPERTY
VdW12
SciTegic.value.DoubleValue
5.407

@<SCITEGIC>MOL_PROPERTY
Bond
SciTegic.value.DoubleValue
0.149

@<SCITEGIC>MOL_PROPERTY
Angle
SciTegic.value.DoubleValue
1.142

@<SCITEGIC>MOL_PROPERTY
Pdih
SciTegic.value.DoubleValue
1.129

@<SCITEGIC>MOL_PROPERTY
Idih
SciTegic.value.DoubleValue
0.000

@<SCITEGIC>MOL_PROPERTY
Tether
SciTegic.value.DoubleValue
0.000

@<TRIPOS>MOLECULE
guest-s10_confgen4.mol2 : confsearch ligand conformer 473
          20          19           1
SMALL
USER_CHARGES
 
@<TRIPOS>ATOM
       1    N1      19.829532   16.497253   22.975517 N.4        1 MOL1        -0.5937
       2    H1      20.746892   16.126705   22.712920 H          1 MOL1         0.3684
       3    H2      19.189280   16.308271   22.200242 H          1 MOL1         0.3684
       4    H3      19.502863   15.953906   23.779057 H          1 MOL1         0.3684
       5    C1      19.893426   17.966164   23.293271 C.3        1 MOL1         0.1270
       6    H4      20.591030   18.068295   24.130359 H          1 MOL1         0.0960
       7    C2      18.515763   18.471368   23.754868 C.3        1 MOL1        -0.2382
       8    H5      18.110257   17.825268   24.543070 H          1 MOL1         0.1009
       9    H6      17.798803   18.487370   22.924708 H          1 MOL1         0.1009
      10    H7      18.588170   19.481574   24.173496 H          1 MOL1         0.1009
      11    C3      20.458743   18.769516   22.096451 C.3        1 MOL1        -0.1392
      12    H8      21.418622   18.314493   21.818462 H          1 MOL1         0.0998
      13    H9      19.808151   18.652402   21.219670 H          1 MOL1         0.0998
      14    C4      20.713697   20.273863   22.378553 C.3        1 MOL1        -0.1302
      15    H10     21.626568   20.579866   21.848322 H          1 MOL1         0.0998
      16    H11     20.918651   20.433081   23.446547 H          1 MOL1         0.0998
      17    C5      19.560683   21.191748   21.908363 C.3        1 MOL1        -0.2317
      18    H12     19.398939   21.095059   20.826880 H          1 MOL1         0.1009
      19    H13     19.798004   22.243244   22.115768 H          1 MOL1         0.1009
      20    H14     18.615759   20.959613   22.412125 H          1 MOL1         0.1009
@<TRIPOS>BOND
    1     1     2    1
    2     1     3    1
    3     1     4    1
    4     1     5    1
    5     5     6    1
    6     5     7    1
    7     7     8    1
    8     7     9    1
    9     7    10    1
   10     5    11    1
   11    11    12    1
   12    11    13    1
   13    11    14    1
   14    14    15    1
   15    14    16    1
   16    14    17    1
   17    17    18    1
   18    17    19    1
   19    17    20    1
@<TRIPOS>SUBSTRUCTURE
       1 MOL1            1 RESIDUE      1      MOL     
@<SCITEGIC>MOL_PROPERTY
VConf Rank
SciTegic.value.IntegerValue
473

@<SCITEGIC>MOL_PROPERTY
Conf_Id
SciTegic.value.IntegerValue
52

@<SCITEGIC>MOL_PROPERTY
Delta U+W
SciTegic.value.DoubleValue
2.995

@<SCITEGIC>MOL_PROPERTY
U+W
SciTegic.value.DoubleValue
-33.282

@<SCITEGIC>MOL_PROPERTY
Grad RMS
SciTegic.value.DoubleValue
0.000000

@<SCITEGIC>MOL_PROPERTY
U
SciTegic.value.DoubleValue
25.224

@<SCITEGIC>MOL_PROPERTY
W
SciTegic.value.DoubleValue
-58.506

@<SCITEGIC>MOL_PROPERTY
W(PB)
SciTegic.value.DoubleValue
-60.411

@<SCITEGIC>MOL_PROPERTY
W(SA)
SciTegic.value.DoubleValue
1.905

@<SCITEGIC>MOL_PROPERTY
Valence
SciTegic.value.DoubleValue
4.945

@<SCITEGIC>MOL_PROPERTY
Coulomb
SciTegic.value.DoubleValue
19.467

@<SCITEGIC>MOL_PROPERTY
VdW
SciTegic.value.DoubleValue
0.813

@<SCITEGIC>MOL_PROPERTY
VdW6
SciTegic.value.DoubleValue
-5.458

@<SCITEGIC>MOL_PROPERTY
VdW12
SciTegic.value.DoubleValue
6.270

@<SCITEGIC>MOL_PROPERTY
Bond
SciTegic.value.DoubleValue
0.200

@<SCITEGIC>MOL_PROPERTY
Angle
SciTegic.value.DoubleValue
1.675

@<SCITEGIC>MOL_PROPERTY
Pdih
SciTegic.value.DoubleValue
3.070

@<SCITEGIC>MOL_PROPERTY
Idih
SciTegic.value.DoubleValue
0.000

@<SCITEGIC>MOL_PROPERTY
Tether
SciTegic.value.DoubleValue
0.000

@<TRIPOS>MOLECULE
guest-s10_confgen4.mol2 : confsearch ligand conformer 474
          20          19           1
SMALL
USER_CHARGES
 
@<TRIPOS>ATOM
       1    N1      19.263476   19.358444   21.233983 N.4        1 MOL1        -0.5937
       2    H1      18.718079   18.542862   20.944595 H          1 MOL1         0.3684
       3    H2      19.561174   19.844816   20.384004 H          1 MOL1         0.3684
       4    H3      18.633775   19.982655   21.742729 H          1 MOL1         0.3684
       5    C1      20.439576   18.958753   22.082680 C.3        1 MOL1         0.1270
       6    H4      20.997621   19.872162   22.310724 H          1 MOL1         0.0960
       7    C2      21.360932   18.018335   21.287396 C.3        1 MOL1        -0.2382
       8    H5      20.853340   17.076186   21.045396 H          1 MOL1         0.1009
       9    H6      22.266425   17.781583   21.859826 H          1 MOL1         0.1009
      10    H7      21.677518   18.487352   20.347645 H          1 MOL1         0.1009
      11    C3      20.019207   18.299836   23.418103 C.3        1 MOL1        -0.1392
      12    H8      19.252920   17.535420   23.233584 H          1 MOL1         0.0998
      13    H9      20.883987   17.763551   23.831188 H          1 MOL1         0.0998
      14    C4      19.533328   19.291295   24.507845 C.3        1 MOL1        -0.1302
      15    H10     20.324074   20.024495   24.720385 H          1 MOL1         0.0998
      16    H11     19.384340   18.728745   25.440243 H          1 MOL1         0.0998
      17    C5      18.219287   20.032684   24.171922 C.3        1 MOL1        -0.2317
      18    H12     17.839698   20.552536   25.061278 H          1 MOL1         0.1009
      19    H13     17.440605   19.334465   23.838063 H          1 MOL1         0.1009
      20    H14     18.371030   20.794095   23.398186 H          1 MOL1         0.1009
@<TRIPOS>BOND
    1     1     2    1
    2     1     3    1
    3     1     4    1
    4     1     5    1
    5     5     6    1
    6     5     7    1
    7     7     8    1
    8     7     9    1
    9     7    10    1
   10     5    11    1
   11    11    12    1
   12    11    13    1
   13    11    14    1
   14    14    15    1
   15    14    16    1
   16    14    17    1
   17    17    18    1
   18    17    19    1
   19    17    20    1
@<TRIPOS>SUBSTRUCTURE
       1 MOL1            1 RESIDUE      1      MOL     
@<SCITEGIC>MOL_PROPERTY
VConf Rank
SciTegic.value.IntegerValue
474

@<SCITEGIC>MOL_PROPERTY
Conf_Id
SciTegic.value.IntegerValue
54

@<SCITEGIC>MOL_PROPERTY
Delta U+W
SciTegic.value.DoubleValue
2.752

@<SCITEGIC>MOL_PROPERTY
U+W
SciTegic.value.DoubleValue
-33.525

@<SCITEGIC>MOL_PROPERTY
Grad RMS
SciTegic.value.DoubleValue
0.000000

@<SCITEGIC>MOL_PROPERTY
U
SciTegic.value.DoubleValue
24.337

@<SCITEGIC>MOL_PROPERTY
W
SciTegic.value.DoubleValue
-57.862

@<SCITEGIC>MOL_PROPERTY
W(PB)
SciTegic.value.DoubleValue
-59.764

@<SCITEGIC>MOL_PROPERTY
W(SA)
SciTegic.value.DoubleValue
1.901

@<SCITEGIC>MOL_PROPERTY
Valence
SciTegic.value.DoubleValue
3.593

@<SCITEGIC>MOL_PROPERTY
Coulomb
SciTegic.value.DoubleValue
20.067

@<SCITEGIC>MOL_PROPERTY
VdW
SciTegic.value.DoubleValue
0.677

@<SCITEGIC>MOL_PROPERTY
VdW6
SciTegic.value.DoubleValue
-5.466

@<SCITEGIC>MOL_PROPERTY
VdW12
SciTegic.value.DoubleValue
6.144

@<SCITEGIC>MOL_PROPERTY
Bond
SciTegic.value.DoubleValue
0.191

@<SCITEGIC>MOL_PROPERTY
Angle
SciTegic.value.DoubleValue
1.557

@<SCITEGIC>MOL_PROPERTY
Pdih
SciTegic.value.DoubleValue
1.845

@<SCITEGIC>MOL_PROPERTY
Idih
SciTegic.value.DoubleValue
0.000

@<SCITEGIC>MOL_PROPERTY
Tether
SciTegic.value.DoubleValue
0.000

@<TRIPOS>MOLECULE
guest-s10_confgen4.mol2 : confsearch ligand conformer 475
          20          19           1
SMALL
USER_CHARGES
 
@<TRIPOS>ATOM
       1    N1      19.936096   20.813262   23.581630 N.4        1 MOL1        -0.5937
       2    H1      19.595295   21.778234   23.563244 H          1 MOL1         0.3684
       3    H2      20.905333   20.839721   23.909640 H          1 MOL1         0.3684
       4    H3      19.388091   20.309261   24.282431 H          1 MOL1         0.3684
       5    C1      19.827635   20.165082   22.228121 C.3        1 MOL1         0.1270
       6    H4      20.427285   20.779651   21.549338 H          1 MOL1         0.0960
       7    C2      18.376080   20.191415   21.717106 C.3        1 MOL1        -0.2382
       8    H5      18.300928   19.716454   20.731086 H          1 MOL1         0.1009
       9    H6      18.024176   21.225264   21.615095 H          1 MOL1         0.1009
      10    H7      17.694918   19.672399   22.401710 H          1 MOL1         0.1009
      11    C3      20.427115   18.738511   22.204197 C.3        1 MOL1        -0.1392
      12    H8      20.397977   18.360741   21.173577 H          1 MOL1         0.0998
      13    H9      21.490178   18.804358   22.470593 H          1 MOL1         0.0998
      14    C4      19.729973   17.719698   23.142471 C.3        1 MOL1        -0.1302
      15    H10     18.675820   17.600927   22.858451 H          1 MOL1         0.0998
      16    H11     19.742049   18.087188   24.177346 H          1 MOL1         0.0998
      17    C5      20.418922   16.339102   23.091169 C.3        1 MOL1        -0.2317
      18    H12     19.913588   15.628544   23.758110 H          1 MOL1         0.1009
      19    H13     21.468052   16.408688   23.406929 H          1 MOL1         0.1009
      20    H14     20.394565   15.922802   22.075627 H          1 MOL1         0.1009
@<TRIPOS>BOND
    1     1     2    1
    2     1     3    1
    3     1     4    1
    4     1     5    1
    5     5     6    1
    6     5     7    1
    7     7     8    1
    8     7     9    1
    9     7    10    1
   10     5    11    1
   11    11    12    1
   12    11    13    1
   13    11    14    1
   14    14    15    1
   15    14    16    1
   16    14    17    1
   17    17    18    1
   18    17    19    1
   19    17    20    1
@<TRIPOS>SUBSTRUCTURE
       1 MOL1            1 RESIDUE      1      MOL     
@<SCITEGIC>MOL_PROPERTY
VConf Rank
SciTegic.value.IntegerValue
475

@<SCITEGIC>MOL_PROPERTY
Conf_Id
SciTegic.value.IntegerValue
63

@<SCITEGIC>MOL_PROPERTY
Delta U+W
SciTegic.value.DoubleValue
0.420

@<SCITEGIC>MOL_PROPERTY
U+W
SciTegic.value.DoubleValue
-35.856

@<SCITEGIC>MOL_PROPERTY
Grad RMS
SciTegic.value.DoubleValue
0.000000

@<SCITEGIC>MOL_PROPERTY
U
SciTegic.value.DoubleValue
22.625

@<SCITEGIC>MOL_PROPERTY
W
SciTegic.value.DoubleValue
-58.481

@<SCITEGIC>MOL_PROPERTY
W(PB)
SciTegic.value.DoubleValue
-60.400

@<SCITEGIC>MOL_PROPERTY
W(SA)
SciTegic.value.DoubleValue
1.919

@<SCITEGIC>MOL_PROPERTY
Valence
SciTegic.value.DoubleValue
2.404

@<SCITEGIC>MOL_PROPERTY
Coulomb
SciTegic.value.DoubleValue
19.464

@<SCITEGIC>MOL_PROPERTY
VdW
SciTegic.value.DoubleValue
0.757

@<SCITEGIC>MOL_PROPERTY
VdW6
SciTegic.value.DoubleValue
-5.074

@<SCITEGIC>MOL_PROPERTY
VdW12
SciTegic.value.DoubleValue
5.830

@<SCITEGIC>MOL_PROPERTY
Bond
SciTegic.value.DoubleValue
0.172

@<SCITEGIC>MOL_PROPERTY
Angle
SciTegic.value.DoubleValue
1.207

@<SCITEGIC>MOL_PROPERTY
Pdih
SciTegic.value.DoubleValue
1.025

@<SCITEGIC>MOL_PROPERTY
Idih
SciTegic.value.DoubleValue
0.000

@<SCITEGIC>MOL_PROPERTY
Tether
SciTegic.value.DoubleValue
0.000

@<TRIPOS>MOLECULE
guest-s10_confgen4.mol2 : confsearch ligand conformer 476
          20          19           1
SMALL
USER_CHARGES
 
@<TRIPOS>ATOM
       1    N1      18.316087   17.853941   22.805389 N.4        1 MOL1        -0.5937
       2    H1      19.028745   17.127457   22.699493 H          1 MOL1         0.3684
       3    H2      17.789274   17.898649   21.929666 H          1 MOL1         0.3684
       4    H3      17.669644   17.543921   23.535828 H          1 MOL1         0.3684
       5    C1      18.935831   19.182573   23.144258 C.3        1 MOL1         0.1270
       6    H4      19.473038   19.047738   24.087846 H          1 MOL1         0.0960
       7    C2      17.849832   20.249038   23.360524 C.3        1 MOL1        -0.2382
       8    H5      17.152035   19.938669   24.147918 H          1 MOL1         0.1009
       9    H6      17.274219   20.422242   22.442689 H          1 MOL1         0.1009
      10    H7      18.296032   21.202672   23.668923 H          1 MOL1         0.1009
      11    C3      19.946784   19.653375   22.074071 C.3        1 MOL1        -0.1392
      12    H8      19.422714   19.810361   21.121948 H          1 MOL1         0.0998
      13    H9      20.348113   20.632391   22.367993 H          1 MOL1         0.0998
      14    C4      21.130502   18.679263   21.846435 C.3        1 MOL1        -0.1302
      15    H10     21.786627   19.097163   21.070057 H          1 MOL1         0.0998
      16    H11     20.764616   17.722802   21.449099 H          1 MOL1         0.0998
      17    C5      21.963448   18.428830   23.124266 C.3        1 MOL1        -0.2317
      18    H12     22.340700   19.372069   23.540390 H          1 MOL1         0.1009
      19    H13     22.829277   17.792265   22.900225 H          1 MOL1         0.1009
      20    H14     21.373840   17.923713   23.899582 H          1 MOL1         0.1009
@<TRIPOS>BOND
    1     1     2    1
    2     1     3    1
    3     1     4    1
    4     1     5    1
    5     5     6    1
    6     5     7    1
    7     7     8    1
    8     7     9    1
    9     7    10    1
   10     5    11    1
   11    11    12    1
   12    11    13    1
   13    11    14    1
   14    14    15    1
   15    14    16    1
   16    14    17    1
   17    17    18    1
   18    17    19    1
   19    17    20    1
@<TRIPOS>SUBSTRUCTURE
       1 MOL1            1 RESIDUE      1      MOL     
@<SCITEGIC>MOL_PROPERTY
VConf Rank
SciTegic.value.IntegerValue
476

@<SCITEGIC>MOL_PROPERTY
Conf_Id
SciTegic.value.IntegerValue
50

@<SCITEGIC>MOL_PROPERTY
Delta U+W
SciTegic.value.DoubleValue
0.466

@<SCITEGIC>MOL_PROPERTY
U+W
SciTegic.value.DoubleValue
-35.811

@<SCITEGIC>MOL_PROPERTY
Grad RMS
SciTegic.value.DoubleValue
0.000000

@<SCITEGIC>MOL_PROPERTY
U
SciTegic.value.DoubleValue
22.369

@<SCITEGIC>MOL_PROPERTY
W
SciTegic.value.DoubleValue
-58.180

@<SCITEGIC>MOL_PROPERTY
W(PB)
SciTegic.value.DoubleValue
-60.103

@<SCITEGIC>MOL_PROPERTY
W(SA)
SciTegic.value.DoubleValue
1.923

@<SCITEGIC>MOL_PROPERTY
Valence
SciTegic.value.DoubleValue
2.168

@<SCITEGIC>MOL_PROPERTY
Coulomb
SciTegic.value.DoubleValue
19.636

@<SCITEGIC>MOL_PROPERTY
VdW
SciTegic.value.DoubleValue
0.566

@<SCITEGIC>MOL_PROPERTY
VdW6
SciTegic.value.DoubleValue
-5.263

@<SCITEGIC>MOL_PROPERTY
VdW12
SciTegic.value.DoubleValue
5.829

@<SCITEGIC>MOL_PROPERTY
Bond
SciTegic.value.DoubleValue
0.162

@<SCITEGIC>MOL_PROPERTY
Angle
SciTegic.value.DoubleValue
1.066

@<SCITEGIC>MOL_PROPERTY
Pdih
SciTegic.value.DoubleValue
0.939

@<SCITEGIC>MOL_PROPERTY
Idih
SciTegic.value.DoubleValue
0.000

@<SCITEGIC>MOL_PROPERTY
Tether
SciTegic.value.DoubleValue
0.000

@<TRIPOS>MOLECULE
guest-s10_confgen4.mol2 : confsearch ligand conformer 477
          20          19           1
SMALL
USER_CHARGES
 
@<TRIPOS>ATOM
       1    N1      18.313594   17.963536   24.361339 N.4        1 MOL1        -0.5937
       2    H1      18.583177   16.976495   24.394064 H          1 MOL1         0.3684
       3    H2      17.361036   18.009699   23.990698 H          1 MOL1         0.3684
       4    H3      18.280714   18.299978   25.327498 H          1 MOL1         0.3684
       5    C1      19.270663   18.772970   23.528622 C.3        1 MOL1         0.1270
       6    H4      20.253172   18.659798   23.997268 H          1 MOL1         0.0960
       7    C2      18.873896   20.260618   23.566620 C.3        1 MOL1        -0.2382
       8    H5      17.871369   20.413083   23.147860 H          1 MOL1         0.1009
       9    H6      19.574430   20.879192   22.995300 H          1 MOL1         0.1009
      10    H7      18.870117   20.633103   24.598303 H          1 MOL1         0.1009
      11    C3      19.365367   18.242333   22.076834 C.3        1 MOL1        -0.1392
      12    H8      18.959793   17.222625   22.039716 H          1 MOL1         0.0998
      13    H9      18.729120   18.837739   21.408482 H          1 MOL1         0.0998
      14    C4      20.811716   18.183634   21.523291 C.3        1 MOL1        -0.1302
      15    H10     20.786868   17.724689   20.524950 H          1 MOL1         0.0998
      16    H11     21.418402   17.515721   22.150910 H          1 MOL1         0.0998
      17    C5      21.505501   19.559954   21.420135 C.3        1 MOL1        -0.2317
      18    H12     20.902323   20.264931   20.833440 H          1 MOL1         0.1009
      19    H13     22.480468   19.461606   20.925354 H          1 MOL1         0.1009
      20    H14     21.683954   19.994342   22.411644 H          1 MOL1         0.1009
@<TRIPOS>BOND
    1     1     2    1
    2     1     3    1
    3     1     4    1
    4     1     5    1
    5     5     6    1
    6     5     7    1
    7     7     8    1
    8     7     9    1
    9     7    10    1
   10     5    11    1
   11    11    12    1
   12    11    13    1
   13    11    14    1
   14    14    15    1
   15    14    16    1
   16    14    17    1
   17    17    18    1
   18    17    19    1
   19    17    20    1
@<TRIPOS>SUBSTRUCTURE
       1 MOL1            1 RESIDUE      1      MOL     
@<SCITEGIC>MOL_PROPERTY
VConf Rank
SciTegic.value.IntegerValue
477

@<SCITEGIC>MOL_PROPERTY
Conf_Id
SciTegic.value.IntegerValue
3

@<SCITEGIC>MOL_PROPERTY
Delta U+W
SciTegic.value.DoubleValue
3.093

@<SCITEGIC>MOL_PROPERTY
U+W
SciTegic.value.DoubleValue
-33.184

@<SCITEGIC>MOL_PROPERTY
Grad RMS
SciTegic.value.DoubleValue
0.000000

@<SCITEGIC>MOL_PROPERTY
U
SciTegic.value.DoubleValue
25.256

@<SCITEGIC>MOL_PROPERTY
W
SciTegic.value.DoubleValue
-58.439

@<SCITEGIC>MOL_PROPERTY
W(PB)
SciTegic.value.DoubleValue
-60.337

@<SCITEGIC>MOL_PROPERTY
W(SA)
SciTegic.value.DoubleValue
1.898

@<SCITEGIC>MOL_PROPERTY
Valence
SciTegic.value.DoubleValue
4.963

@<SCITEGIC>MOL_PROPERTY
Coulomb
SciTegic.value.DoubleValue
19.511

@<SCITEGIC>MOL_PROPERTY
VdW
SciTegic.value.DoubleValue
0.782

@<SCITEGIC>MOL_PROPERTY
VdW6
SciTegic.value.DoubleValue
-5.429

@<SCITEGIC>MOL_PROPERTY
VdW12
SciTegic.value.DoubleValue
6.211

@<SCITEGIC>MOL_PROPERTY
Bond
SciTegic.value.DoubleValue
0.174

@<SCITEGIC>MOL_PROPERTY
Angle
SciTegic.value.DoubleValue
1.377

@<SCITEGIC>MOL_PROPERTY
Pdih
SciTegic.value.DoubleValue
3.412

@<SCITEGIC>MOL_PROPERTY
Idih
SciTegic.value.DoubleValue
0.000

@<SCITEGIC>MOL_PROPERTY
Tether
SciTegic.value.DoubleValue
0.000

@<TRIPOS>MOLECULE
guest-s10_confgen4.mol2 : confsearch ligand conformer 478
          20          19           1
SMALL
USER_CHARGES
 
@<TRIPOS>ATOM
       1    N1      20.304828   19.153241   20.581577 N.4        1 MOL1        -0.5937
       2    H1      19.821908   19.766343   19.919361 H          1 MOL1         0.3684
       3    H2      20.231129   18.198820   20.218978 H          1 MOL1         0.3684
       4    H3      21.294896   19.410640   20.567565 H          1 MOL1         0.3684
       5    C1      19.723369   19.268631   21.963956 C.3        1 MOL1         0.1270
       6    H4      18.671410   18.980052   21.879097 H          1 MOL1         0.0960
       7    C2      19.789507   20.727012   22.452682 C.3        1 MOL1        -0.2382
       8    H5      19.246497   20.855257   23.396201 H          1 MOL1         0.1009
       9    H6      19.330226   21.401668   21.719856 H          1 MOL1         0.1009
      10    H7      20.827297   21.047539   22.606769 H          1 MOL1         0.1009
      11    C3      20.416802   18.294621   22.946241 C.3        1 MOL1        -0.1392
      12    H8      20.408465   17.288142   22.507543 H          1 MOL1         0.0998
      13    H9      21.473992   18.573208   23.048586 H          1 MOL1         0.0998
      14    C4      19.774904   18.217561   24.355188 C.3        1 MOL1        -0.1302
      15    H10     19.885443   19.177134   24.877942 H          1 MOL1         0.0998
      16    H11     20.330639   17.483475   24.955284 H          1 MOL1         0.0998
      17    C5      18.284292   17.810108   24.320415 C.3        1 MOL1        -0.2317
      18    H12     18.148371   16.853469   23.799335 H          1 MOL1         0.1009
      19    H13     17.671064   18.566787   23.814993 H          1 MOL1         0.1009
      20    H14     17.893268   17.694756   25.339637 H          1 MOL1         0.1009
@<TRIPOS>BOND
    1     1     2    1
    2     1     3    1
    3     1     4    1
    4     1     5    1
    5     5     6    1
    6     5     7    1
    7     7     8    1
    8     7     9    1
    9     7    10    1
   10     5    11    1
   11    11    12    1
   12    11    13    1
   13    11    14    1
   14    14    15    1
   15    14    16    1
   16    14    17    1
   17    17    18    1
   18    17    19    1
   19    17    20    1
@<TRIPOS>SUBSTRUCTURE
       1 MOL1            1 RESIDUE      1      MOL     
@<SCITEGIC>MOL_PROPERTY
VConf Rank
SciTegic.value.IntegerValue
478

@<SCITEGIC>MOL_PROPERTY
Conf_Id
SciTegic.value.IntegerValue
64

@<SCITEGIC>MOL_PROPERTY
Delta U+W
SciTegic.value.DoubleValue
0.544

@<SCITEGIC>MOL_PROPERTY
U+W
SciTegic.value.DoubleValue
-35.732

@<SCITEGIC>MOL_PROPERTY
Grad RMS
SciTegic.value.DoubleValue
0.000000

@<SCITEGIC>MOL_PROPERTY
U
SciTegic.value.DoubleValue
22.800

@<SCITEGIC>MOL_PROPERTY
W
SciTegic.value.DoubleValue
-58.532

@<SCITEGIC>MOL_PROPERTY
W(PB)
SciTegic.value.DoubleValue
-60.437

@<SCITEGIC>MOL_PROPERTY
W(SA)
SciTegic.value.DoubleValue
1.905

@<SCITEGIC>MOL_PROPERTY
Valence
SciTegic.value.DoubleValue
2.662

@<SCITEGIC>MOL_PROPERTY
Coulomb
SciTegic.value.DoubleValue
19.485

@<SCITEGIC>MOL_PROPERTY
VdW
SciTegic.value.DoubleValue
0.653

@<SCITEGIC>MOL_PROPERTY
VdW6
SciTegic.value.DoubleValue
-5.460

@<SCITEGIC>MOL_PROPERTY
VdW12
SciTegic.value.DoubleValue
6.113

@<SCITEGIC>MOL_PROPERTY
Bond
SciTegic.value.DoubleValue
0.174

@<SCITEGIC>MOL_PROPERTY
Angle
SciTegic.value.DoubleValue
1.378

@<SCITEGIC>MOL_PROPERTY
Pdih
SciTegic.value.DoubleValue
1.109

@<SCITEGIC>MOL_PROPERTY
Idih
SciTegic.value.DoubleValue
0.000

@<SCITEGIC>MOL_PROPERTY
Tether
SciTegic.value.DoubleValue
0.000

@<TRIPOS>MOLECULE
guest-s10_confgen4.mol2 : confsearch ligand conformer 479
          20          19           1
SMALL
USER_CHARGES
 
@<TRIPOS>ATOM
       1    N1      21.452216   18.718557   21.417936 N.4        1 MOL1        -0.5937
       2    H1      20.798606   18.040452   21.020142 H          1 MOL1         0.3684
       3    H2      22.360537   18.254382   21.502242 H          1 MOL1         0.3684
       4    H3      21.560513   19.476145   20.738235 H          1 MOL1         0.3684
       5    C1      20.971308   19.232581   22.748101 C.3        1 MOL1         0.1270
       6    H4      21.736933   19.935143   23.091886 H          1 MOL1         0.0960
       7    C2      20.895009   18.095500   23.780064 C.3        1 MOL1        -0.2382
       8    H5      20.243450   17.283909   23.435826 H          1 MOL1         0.1009
       9    H6      20.516141   18.464473   24.741135 H          1 MOL1         0.1009
      10    H7      21.890879   17.670997   23.956162 H          1 MOL1         0.1009
      11    C3      19.648060   20.029856   22.628486 C.3        1 MOL1        -0.1392
      12    H8      19.434552   20.526674   23.584040 H          1 MOL1         0.0998
      13    H9      19.819659   20.844422   21.912583 H          1 MOL1         0.0998
      14    C4      18.401919   19.226719   22.162301 C.3        1 MOL1        -0.1302
      15    H10     18.692006   18.408382   21.490323 H          1 MOL1         0.0998
      16    H11     17.764781   19.893151   21.564049 H          1 MOL1         0.0998
      17    C5      17.547090   18.679447   23.329566 C.3        1 MOL1        -0.2317
      18    H12     18.102127   17.968081   23.950749 H          1 MOL1         0.1009
      19    H13     16.660356   18.159649   22.944237 H          1 MOL1         0.1009
      20    H14     17.198474   19.494426   23.977114 H          1 MOL1         0.1009
@<TRIPOS>BOND
    1     1     2    1
    2     1     3    1
    3     1     4    1
    4     1     5    1
    5     5     6    1
    6     5     7    1
    7     7     8    1
    8     7     9    1
    9     7    10    1
   10     5    11    1
   11    11    12    1
   12    11    13    1
   13    11    14    1
   14    14    15    1
   15    14    16    1
   16    14    17    1
   17    17    18    1
   18    17    19    1
   19    17    20    1
@<TRIPOS>SUBSTRUCTURE
       1 MOL1            1 RESIDUE      1      MOL     
@<SCITEGIC>MOL_PROPERTY
VConf Rank
SciTegic.value.IntegerValue
479

@<SCITEGIC>MOL_PROPERTY
Conf_Id
SciTegic.value.IntegerValue
35

@<SCITEGIC>MOL_PROPERTY
Delta U+W
SciTegic.value.DoubleValue
3.004

@<SCITEGIC>MOL_PROPERTY
U+W
SciTegic.value.DoubleValue
-33.272

@<SCITEGIC>MOL_PROPERTY
Grad RMS
SciTegic.value.DoubleValue
0.000000

@<SCITEGIC>MOL_PROPERTY
U
SciTegic.value.DoubleValue
25.367

@<SCITEGIC>MOL_PROPERTY
W
SciTegic.value.DoubleValue
-58.639

@<SCITEGIC>MOL_PROPERTY
W(PB)
SciTegic.value.DoubleValue
-60.512

@<SCITEGIC>MOL_PROPERTY
W(SA)
SciTegic.value.DoubleValue
1.873

@<SCITEGIC>MOL_PROPERTY
Valence
SciTegic.value.DoubleValue
4.943

@<SCITEGIC>MOL_PROPERTY
Coulomb
SciTegic.value.DoubleValue
19.661

@<SCITEGIC>MOL_PROPERTY
VdW
SciTegic.value.DoubleValue
0.764

@<SCITEGIC>MOL_PROPERTY
VdW6
SciTegic.value.DoubleValue
-5.871

@<SCITEGIC>MOL_PROPERTY
VdW12
SciTegic.value.DoubleValue
6.636

@<SCITEGIC>MOL_PROPERTY
Bond
SciTegic.value.DoubleValue
0.230

@<SCITEGIC>MOL_PROPERTY
Angle
SciTegic.value.DoubleValue
1.857

@<SCITEGIC>MOL_PROPERTY
Pdih
SciTegic.value.DoubleValue
2.855

@<SCITEGIC>MOL_PROPERTY
Idih
SciTegic.value.DoubleValue
0.000

@<SCITEGIC>MOL_PROPERTY
Tether
SciTegic.value.DoubleValue
0.000

@<TRIPOS>MOLECULE
guest-s10_confgen4.mol2 : confsearch ligand conformer 480
          20          19           1
SMALL
USER_CHARGES
 
@<TRIPOS>ATOM
       1    N1      18.239120   18.460948   22.013758 N.4        1 MOL1        -0.5937
       2    H1      17.652184   17.622904   21.985650 H          1 MOL1         0.3684
       3    H2      17.921487   19.080582   21.263595 H          1 MOL1         0.3684
       4    H3      18.058697   18.936198   22.900089 H          1 MOL1         0.3684
       5    C1      19.696494   18.119365   21.865956 C.3        1 MOL1         0.1270
       6    H4      19.783865   17.643477   20.884211 H          1 MOL1         0.0960
       7    C2      20.140469   17.086368   22.916820 C.3        1 MOL1        -0.2382
       8    H5      19.993047   17.458284   23.937722 H          1 MOL1         0.1009
       9    H6      21.200975   16.835301   22.791469 H          1 MOL1         0.1009
      10    H7      19.564472   16.158976   22.811284 H          1 MOL1         0.1009
      11    C3      20.613635   19.368991   21.841440 C.3        1 MOL1        -0.1392
      12    H8      21.581964   19.062323   21.424504 H          1 MOL1         0.0998
      13    H9      20.206026   20.095055   21.125966 H          1 MOL1         0.0998
      14    C4      20.884452   20.081381   23.196341 C.3        1 MOL1        -0.1302
      15    H10     21.581836   20.910153   23.010284 H          1 MOL1         0.0998
      16    H11     21.408764   19.404528   23.884526 H          1 MOL1         0.0998
      17    C5      19.625860   20.653017   23.887788 C.3        1 MOL1        -0.2317
      18    H12     19.034801   21.266390   23.195283 H          1 MOL1         0.1009
      19    H13     19.913894   21.290762   24.733653 H          1 MOL1         0.1009
      20    H14     18.988569   19.856542   24.288730 H          1 MOL1         0.1009
@<TRIPOS>BOND
    1     1     2    1
    2     1     3    1
    3     1     4    1
    4     1     5    1
    5     5     6    1
    6     5     7    1
    7     7     8    1
    8     7     9    1
    9     7    10    1
   10     5    11    1
   11    11    12    1
   12    11    13    1
   13    11    14    1
   14    14    15    1
   15    14    16    1
   16    14    17    1
   17    17    18    1
   18    17    19    1
   19    17    20    1
@<TRIPOS>SUBSTRUCTURE
       1 MOL1            1 RESIDUE      1      MOL     
@<SCITEGIC>MOL_PROPERTY
VConf Rank
SciTegic.value.IntegerValue
480

@<SCITEGIC>MOL_PROPERTY
Conf_Id
SciTegic.value.IntegerValue
55

@<SCITEGIC>MOL_PROPERTY
Delta U+W
SciTegic.value.DoubleValue
2.767

@<SCITEGIC>MOL_PROPERTY
U+W
SciTegic.value.DoubleValue
-33.509

@<SCITEGIC>MOL_PROPERTY
Grad RMS
SciTegic.value.DoubleValue
0.000000

@<SCITEGIC>MOL_PROPERTY
U
SciTegic.value.DoubleValue
24.552

@<SCITEGIC>MOL_PROPERTY
W
SciTegic.value.DoubleValue
-58.061

@<SCITEGIC>MOL_PROPERTY
W(PB)
SciTegic.value.DoubleValue
-59.930

@<SCITEGIC>MOL_PROPERTY
W(SA)
SciTegic.value.DoubleValue
1.869

@<SCITEGIC>MOL_PROPERTY
Valence
SciTegic.value.DoubleValue
3.726

@<SCITEGIC>MOL_PROPERTY
Coulomb
SciTegic.value.DoubleValue
20.219

@<SCITEGIC>MOL_PROPERTY
VdW
SciTegic.value.DoubleValue
0.606

@<SCITEGIC>MOL_PROPERTY
VdW6
SciTegic.value.DoubleValue
-6.395

@<SCITEGIC>MOL_PROPERTY
VdW12
SciTegic.value.DoubleValue
7.001

@<SCITEGIC>MOL_PROPERTY
Bond
SciTegic.value.DoubleValue
0.241

@<SCITEGIC>MOL_PROPERTY
Angle
SciTegic.value.DoubleValue
2.098

@<SCITEGIC>MOL_PROPERTY
Pdih
SciTegic.value.DoubleValue
1.387

@<SCITEGIC>MOL_PROPERTY
Idih
SciTegic.value.DoubleValue
0.000

@<SCITEGIC>MOL_PROPERTY
Tether
SciTegic.value.DoubleValue
0.000

@<TRIPOS>MOLECULE
guest-s10_confgen4.mol2 : confsearch ligand conformer 481
          20          19           1
SMALL
USER_CHARGES
 
@<TRIPOS>ATOM
       1    N1      20.897482   19.633302   24.167638 N.4        1 MOL1        -0.5937
       2    H1      20.179699   20.156822   24.674846 H          1 MOL1         0.3684
       3    H2      21.802003   20.052502   24.399524 H          1 MOL1         0.3684
       4    H3      20.901268   18.679355   24.537169 H          1 MOL1         0.3684
       5    C1      20.646944   19.649893   22.683719 C.3        1 MOL1         0.1270
       6    H4      21.451382   19.068802   22.222090 H          1 MOL1         0.0960
       7    C2      20.718082   21.086324   22.140052 C.3        1 MOL1        -0.2382
       8    H5      21.687474   21.542958   22.374635 H          1 MOL1         0.1009
       9    H6      19.930322   21.714909   22.573766 H          1 MOL1         0.1009
      10    H7      20.601446   21.096835   21.049215 H          1 MOL1         0.1009
      11    C3      19.299849   18.997438   22.301899 C.3        1 MOL1        -0.1392
      12    H8      18.475215   19.548826   22.772926 H          1 MOL1         0.0998
      13    H9      19.157286   19.088355   21.216783 H          1 MOL1         0.0998
      14    C4      19.219160   17.501802   22.691874 C.3        1 MOL1        -0.1302
      15    H10     19.302735   17.388238   23.781160 H          1 MOL1         0.0998
      16    H11     20.065335   16.957513   22.249178 H          1 MOL1         0.0998
      17    C5      17.896351   16.860484   22.220502 C.3        1 MOL1        -0.2317
      18    H12     17.030874   17.364091   22.670596 H          1 MOL1         0.1009
      19    H13     17.855473   15.801373   22.506331 H          1 MOL1         0.1009
      20    H14     17.795626   16.918104   21.128821 H          1 MOL1         0.1009
@<TRIPOS>BOND
    1     1     2    1
    2     1     3    1
    3     1     4    1
    4     1     5    1
    5     5     6    1
    6     5     7    1
    7     7     8    1
    8     7     9    1
    9     7    10    1
   10     5    11    1
   11    11    12    1
   12    11    13    1
   13    11    14    1
   14    14    15    1
   15    14    16    1
   16    14    17    1
   17    17    18    1
   18    17    19    1
   19    17    20    1
@<TRIPOS>SUBSTRUCTURE
       1 MOL1            1 RESIDUE      1      MOL     
@<SCITEGIC>MOL_PROPERTY
VConf Rank
SciTegic.value.IntegerValue
481

@<SCITEGIC>MOL_PROPERTY
Conf_Id
SciTegic.value.IntegerValue
74

@<SCITEGIC>MOL_PROPERTY
Delta U+W
SciTegic.value.DoubleValue
0.000

@<SCITEGIC>MOL_PROPERTY
U+W
SciTegic.value.DoubleValue
-36.276

@<SCITEGIC>MOL_PROPERTY
Grad RMS
SciTegic.value.DoubleValue
0.000000

@<SCITEGIC>MOL_PROPERTY
U
SciTegic.value.DoubleValue
22.080

@<SCITEGIC>MOL_PROPERTY
W
SciTegic.value.DoubleValue
-58.356

@<SCITEGIC>MOL_PROPERTY
W(PB)
SciTegic.value.DoubleValue
-60.289

@<SCITEGIC>MOL_PROPERTY
W(SA)
SciTegic.value.DoubleValue
1.932

@<SCITEGIC>MOL_PROPERTY
Valence
SciTegic.value.DoubleValue
1.885

@<SCITEGIC>MOL_PROPERTY
Coulomb
SciTegic.value.DoubleValue
19.559

@<SCITEGIC>MOL_PROPERTY
VdW
SciTegic.value.DoubleValue
0.637

@<SCITEGIC>MOL_PROPERTY
VdW6
SciTegic.value.DoubleValue
-4.482

@<SCITEGIC>MOL_PROPERTY
VdW12
SciTegic.value.DoubleValue
5.119

@<SCITEGIC>MOL_PROPERTY
Bond
SciTegic.value.DoubleValue
0.136

@<SCITEGIC>MOL_PROPERTY
Angle
SciTegic.value.DoubleValue
0.867

@<SCITEGIC>MOL_PROPERTY
Pdih
SciTegic.value.DoubleValue
0.882

@<SCITEGIC>MOL_PROPERTY
Idih
SciTegic.value.DoubleValue
0.000

@<SCITEGIC>MOL_PROPERTY
Tether
SciTegic.value.DoubleValue
0.000

@<TRIPOS>MOLECULE
guest-s10_confgen4.mol2 : confsearch ligand conformer 482
          20          19           1
SMALL
USER_CHARGES
 
@<TRIPOS>ATOM
       1    N1      20.341014   20.427331   24.488284 N.4        1 MOL1        -0.5937
       2    H1      20.793598   19.793362   25.152444 H          1 MOL1         0.3684
       3    H2      19.399836   20.619140   24.840591 H          1 MOL1         0.3684
       4    H3      20.859882   21.309337   24.511083 H          1 MOL1         0.3684
       5    C1      20.304245   19.845642   23.101651 C.3        1 MOL1         0.1270
       6    H4      21.345781   19.678007   22.810159 H          1 MOL1         0.0960
       7    C2      19.679820   20.851453   22.117152 C.3        1 MOL1        -0.2382
       8    H5      20.184194   21.823114   22.185732 H          1 MOL1         0.1009
       9    H6      18.614582   21.005865   22.329293 H          1 MOL1         0.1009
      10    H7      19.777960   20.509110   21.080622 H          1 MOL1         0.1009
      11    C3      19.572534   18.483352   23.085793 C.3        1 MOL1        -0.1392
      12    H8      19.993607   17.853615   23.880646 H          1 MOL1         0.0998
      13    H9      18.512970   18.629803   23.334238 H          1 MOL1         0.0998
      14    C4      19.693148   17.724199   21.741806 C.3        1 MOL1        -0.1302
      15    H10     20.751963   17.632870   21.461378 H          1 MOL1         0.0998
      16    H11     19.198531   18.288069   20.939743 H          1 MOL1         0.0998
      17    C5      19.062528   16.317320   21.823607 C.3        1 MOL1        -0.2317
      18    H12     19.559377   15.704517   22.587054 H          1 MOL1         0.1009
      19    H13     19.153489   15.795194   20.862255 H          1 MOL1         0.1009
      20    H14     17.995399   16.376940   22.074489 H          1 MOL1         0.1009
@<TRIPOS>BOND
    1     1     2    1
    2     1     3    1
    3     1     4    1
    4     1     5    1
    5     5     6    1
    6     5     7    1
    7     7     8    1
    8     7     9    1
    9     7    10    1
   10     5    11    1
   11    11    12    1
   12    11    13    1
   13    11    14    1
   14    14    15    1
   15    14    16    1
   16    14    17    1
   17    17    18    1
   18    17    19    1
   19    17    20    1
@<TRIPOS>SUBSTRUCTURE
       1 MOL1            1 RESIDUE      1      MOL     
@<SCITEGIC>MOL_PROPERTY
VConf Rank
SciTegic.value.IntegerValue
482

@<SCITEGIC>MOL_PROPERTY
Conf_Id
SciTegic.value.IntegerValue
80

@<SCITEGIC>MOL_PROPERTY
Delta U+W
SciTegic.value.DoubleValue
0.460

@<SCITEGIC>MOL_PROPERTY
U+W
SciTegic.value.DoubleValue
-35.817

@<SCITEGIC>MOL_PROPERTY
Grad RMS
SciTegic.value.DoubleValue
0.000000

@<SCITEGIC>MOL_PROPERTY
U
SciTegic.value.DoubleValue
22.495

@<SCITEGIC>MOL_PROPERTY
W
SciTegic.value.DoubleValue
-58.311

@<SCITEGIC>MOL_PROPERTY
W(PB)
SciTegic.value.DoubleValue
-60.259

@<SCITEGIC>MOL_PROPERTY
W(SA)
SciTegic.value.DoubleValue
1.948

@<SCITEGIC>MOL_PROPERTY
Valence
SciTegic.value.DoubleValue
2.419

@<SCITEGIC>MOL_PROPERTY
Coulomb
SciTegic.value.DoubleValue
19.304

@<SCITEGIC>MOL_PROPERTY
VdW
SciTegic.value.DoubleValue
0.772

@<SCITEGIC>MOL_PROPERTY
VdW6
SciTegic.value.DoubleValue
-4.635

@<SCITEGIC>MOL_PROPERTY
VdW12
SciTegic.value.DoubleValue
5.407

@<SCITEGIC>MOL_PROPERTY
Bond
SciTegic.value.DoubleValue
0.149

@<SCITEGIC>MOL_PROPERTY
Angle
SciTegic.value.DoubleValue
1.142

@<SCITEGIC>MOL_PROPERTY
Pdih
SciTegic.value.DoubleValue
1.129

@<SCITEGIC>MOL_PROPERTY
Idih
SciTegic.value.DoubleValue
0.000

@<SCITEGIC>MOL_PROPERTY
Tether
SciTegic.value.DoubleValue
0.000

@<TRIPOS>MOLECULE
guest-s10_confgen4.mol2 : confsearch ligand conformer 483
          20          19           1
SMALL
USER_CHARGES
 
@<TRIPOS>ATOM
       1    N1      19.060068   21.000527   21.827584 N.4        1 MOL1        -0.5937
       2    H1      19.416940   21.777368   22.390585 H          1 MOL1         0.3684
       3    H2      18.072703   20.877675   22.065716 H          1 MOL1         0.3684
       4    H3      19.102448   21.293034   20.847656 H          1 MOL1         0.3684
       5    C1      19.845229   19.738700   22.060104 C.3        1 MOL1         0.1270
       6    H4      20.877594   19.963460   21.774612 H          1 MOL1         0.0960
       7    C2      19.330090   18.614882   21.144723 C.3        1 MOL1        -0.2382
       8    H5      19.268785   18.959353   20.105143 H          1 MOL1         0.1009
       9    H6      18.332372   18.277302   21.451403 H          1 MOL1         0.1009
      10    H7      20.009394   17.755019   21.158430 H          1 MOL1         0.1009
      11    C3      19.835873   19.346444   23.557897 C.3        1 MOL1        -0.1392
      12    H8      20.182141   20.218193   24.128725 H          1 MOL1         0.0998
      13    H9      18.807685   19.158768   23.894550 H          1 MOL1         0.0998
      14    C4      20.748905   18.147456   23.927278 C.3        1 MOL1        -0.1302
      15    H10     21.196901   18.338855   24.912562 H          1 MOL1         0.0998
      16    H11     21.589921   18.076376   23.223285 H          1 MOL1         0.0998
      17    C5      19.993558   16.799553   24.002395 C.3        1 MOL1        -0.2317
      18    H12     19.198666   16.837372   24.758592 H          1 MOL1         0.1009
      19    H13     20.679846   15.989891   24.282464 H          1 MOL1         0.1009
      20    H14     19.534714   16.528831   23.044944 H          1 MOL1         0.1009
@<TRIPOS>BOND
    1     1     2    1
    2     1     3    1
    3     1     4    1
    4     1     5    1
    5     5     6    1
    6     5     7    1
    7     7     8    1
    8     7     9    1
    9     7    10    1
   10     5    11    1
   11    11    12    1
   12    11    13    1
   13    11    14    1
   14    14    15    1
   15    14    16    1
   16    14    17    1
   17    17    18    1
   18    17    19    1
   19    17    20    1
@<TRIPOS>SUBSTRUCTURE
       1 MOL1            1 RESIDUE      1      MOL     
@<SCITEGIC>MOL_PROPERTY
VConf Rank
SciTegic.value.IntegerValue
483

@<SCITEGIC>MOL_PROPERTY
Conf_Id
SciTegic.value.IntegerValue
52

@<SCITEGIC>MOL_PROPERTY
Delta U+W
SciTegic.value.DoubleValue
2.995

@<SCITEGIC>MOL_PROPERTY
U+W
SciTegic.value.DoubleValue
-33.282

@<SCITEGIC>MOL_PROPERTY
Grad RMS
SciTegic.value.DoubleValue
0.000000

@<SCITEGIC>MOL_PROPERTY
U
SciTegic.value.DoubleValue
25.224

@<SCITEGIC>MOL_PROPERTY
W
SciTegic.value.DoubleValue
-58.506

@<SCITEGIC>MOL_PROPERTY
W(PB)
SciTegic.value.DoubleValue
-60.411

@<SCITEGIC>MOL_PROPERTY
W(SA)
SciTegic.value.DoubleValue
1.905

@<SCITEGIC>MOL_PROPERTY
Valence
SciTegic.value.DoubleValue
4.945

@<SCITEGIC>MOL_PROPERTY
Coulomb
SciTegic.value.DoubleValue
19.467

@<SCITEGIC>MOL_PROPERTY
VdW
SciTegic.value.DoubleValue
0.813

@<SCITEGIC>MOL_PROPERTY
VdW6
SciTegic.value.DoubleValue
-5.458

@<SCITEGIC>MOL_PROPERTY
VdW12
SciTegic.value.DoubleValue
6.270

@<SCITEGIC>MOL_PROPERTY
Bond
SciTegic.value.DoubleValue
0.200

@<SCITEGIC>MOL_PROPERTY
Angle
SciTegic.value.DoubleValue
1.675

@<SCITEGIC>MOL_PROPERTY
Pdih
SciTegic.value.DoubleValue
3.070

@<SCITEGIC>MOL_PROPERTY
Idih
SciTegic.value.DoubleValue
0.000

@<SCITEGIC>MOL_PROPERTY
Tether
SciTegic.value.DoubleValue
0.000

@<TRIPOS>MOLECULE
guest-s10_confgen4.mol2 : confsearch ligand conformer 484
          20          19           1
SMALL
USER_CHARGES
 
@<TRIPOS>ATOM
       1    N1      20.981246   20.073896   22.750455 N.4        1 MOL1        -0.5937
       2    H1      20.568109   20.953661   22.431539 H          1 MOL1         0.3684
       3    H2      21.990794   20.135145   22.593263 H          1 MOL1         0.3684
       4    H3      20.828780   20.012395   23.759393 H          1 MOL1         0.3684
       5    C1      20.381008   18.894751   22.034508 C.3        1 MOL1         0.1270
       6    H4      20.903294   18.001433   22.390789 H          1 MOL1         0.0960
       7    C2      20.625819   19.023467   20.521478 C.3        1 MOL1        -0.2382
       8    H5      20.108599   19.898583   20.108546 H          1 MOL1         0.1009
       9    H6      20.268133   18.132734   19.990159 H          1 MOL1         0.1009
      10    H7      21.696873   19.127243   20.308382 H          1 MOL1         0.1009
      11    C3      18.870752   18.722603   22.323865 C.3        1 MOL1        -0.1392
      12    H8      18.356760   19.686979   22.217263 H          1 MOL1         0.0998
      13    H9      18.439751   18.066861   21.555539 H          1 MOL1         0.0998
      14    C4      18.540494   18.090561   23.701566 C.3        1 MOL1        -0.1302
      15    H10     19.020168   17.104863   23.781234 H          1 MOL1         0.0998
      16    H11     17.458087   17.903991   23.741724 H          1 MOL1         0.0998
      17    C5      18.930735   18.954262   24.922606 C.3        1 MOL1        -0.2317
      18    H12     18.488103   18.538859   25.837376 H          1 MOL1         0.1009
      19    H13     18.566728   19.984537   24.816074 H          1 MOL1         0.1009
      20    H14     20.016160   18.973442   25.074016 H          1 MOL1         0.1009
@<TRIPOS>BOND
    1     1     2    1
    2     1     3    1
    3     1     4    1
    4     1     5    1
    5     5     6    1
    6     5     7    1
    7     7     8    1
    8     7     9    1
    9     7    10    1
   10     5    11    1
   11    11    12    1
   12    11    13    1
   13    11    14    1
   14    14    15    1
   15    14    16    1
   16    14    17    1
   17    17    18    1
   18    17    19    1
   19    17    20    1
@<TRIPOS>SUBSTRUCTURE
       1 MOL1            1 RESIDUE      1      MOL     
@<SCITEGIC>MOL_PROPERTY
VConf Rank
SciTegic.value.IntegerValue
484

@<SCITEGIC>MOL_PROPERTY
Conf_Id
SciTegic.value.IntegerValue
54

@<SCITEGIC>MOL_PROPERTY
Delta U+W
SciTegic.value.DoubleValue
2.752

@<SCITEGIC>MOL_PROPERTY
U+W
SciTegic.value.DoubleValue
-33.525

@<SCITEGIC>MOL_PROPERTY
Grad RMS
SciTegic.value.DoubleValue
0.000000

@<SCITEGIC>MOL_PROPERTY
U
SciTegic.value.DoubleValue
24.337

@<SCITEGIC>MOL_PROPERTY
W
SciTegic.value.DoubleValue
-57.862

@<SCITEGIC>MOL_PROPERTY
W(PB)
SciTegic.value.DoubleValue
-59.764

@<SCITEGIC>MOL_PROPERTY
W(SA)
SciTegic.value.DoubleValue
1.901

@<SCITEGIC>MOL_PROPERTY
Valence
SciTegic.value.DoubleValue
3.593

@<SCITEGIC>MOL_PROPERTY
Coulomb
SciTegic.value.DoubleValue
20.067

@<SCITEGIC>MOL_PROPERTY
VdW
SciTegic.value.DoubleValue
0.677

@<SCITEGIC>MOL_PROPERTY
VdW6
SciTegic.value.DoubleValue
-5.466

@<SCITEGIC>MOL_PROPERTY
VdW12
SciTegic.value.DoubleValue
6.144

@<SCITEGIC>MOL_PROPERTY
Bond
SciTegic.value.DoubleValue
0.191

@<SCITEGIC>MOL_PROPERTY
Angle
SciTegic.value.DoubleValue
1.557

@<SCITEGIC>MOL_PROPERTY
Pdih
SciTegic.value.DoubleValue
1.845

@<SCITEGIC>MOL_PROPERTY
Idih
SciTegic.value.DoubleValue
0.000

@<SCITEGIC>MOL_PROPERTY
Tether
SciTegic.value.DoubleValue
0.000

@<TRIPOS>MOLECULE
guest-s10_confgen4.mol2 : confsearch ligand conformer 485
          20          19           1
SMALL
USER_CHARGES
 
@<TRIPOS>ATOM
       1    N1      19.970686   19.648912   20.762825 N.4        1 MOL1        -0.5937
       2    H1      19.777009   19.440637   19.779582 H          1 MOL1         0.3684
       3    H2      20.829545   20.204990   20.791971 H          1 MOL1         0.3684
       4    H3      19.209972   20.240114   21.105233 H          1 MOL1         0.3684
       5    C1      20.098600   18.390378   21.577450 C.3        1 MOL1         0.1270
       6    H4      20.918706   17.821297   21.128456 H          1 MOL1         0.0960
       7    C2      18.825902   17.531382   21.471576 C.3        1 MOL1        -0.2382
       8    H5      18.922429   16.615820   22.068151 H          1 MOL1         0.1009
       9    H6      18.650562   17.232395   20.430928 H          1 MOL1         0.1009
      10    H7      17.938847   18.075190   21.817190 H          1 MOL1         0.1009
      11    C3      20.489042   18.673158   23.048043 C.3        1 MOL1        -0.1392
      12    H8      20.653471   17.715685   23.559849 H          1 MOL1         0.0998
      13    H9      21.458047   19.189260   23.056674 H          1 MOL1         0.0998
      14    C4      19.459407   19.511305   23.849107 C.3        1 MOL1        -0.1302
      15    H10     18.496010   18.986249   23.895968 H          1 MOL1         0.0998
      16    H11     19.276170   20.469703   23.345064 H          1 MOL1         0.0998
      17    C5      19.948605   19.785226   25.287503 C.3        1 MOL1        -0.2317
      18    H12     19.209133   20.377053   25.842470 H          1 MOL1         0.1009
      19    H13     20.893050   20.344899   25.284166 H          1 MOL1         0.1009
      20    H14     20.108885   18.847649   25.835665 H          1 MOL1         0.1009
@<TRIPOS>BOND
    1     1     2    1
    2     1     3    1
    3     1     4    1
    4     1     5    1
    5     5     6    1
    6     5     7    1
    7     7     8    1
    8     7     9    1
    9     7    10    1
   10     5    11    1
   11    11    12    1
   12    11    13    1
   13    11    14    1
   14    14    15    1
   15    14    16    1
   16    14    17    1
   17    17    18    1
   18    17    19    1
   19    17    20    1
@<TRIPOS>SUBSTRUCTURE
       1 MOL1            1 RESIDUE      1      MOL     
@<SCITEGIC>MOL_PROPERTY
VConf Rank
SciTegic.value.IntegerValue
485

@<SCITEGIC>MOL_PROPERTY
Conf_Id
SciTegic.value.IntegerValue
63

@<SCITEGIC>MOL_PROPERTY
Delta U+W
SciTegic.value.DoubleValue
0.420

@<SCITEGIC>MOL_PROPERTY
U+W
SciTegic.value.DoubleValue
-35.856

@<SCITEGIC>MOL_PROPERTY
Grad RMS
SciTegic.value.DoubleValue
0.000000

@<SCITEGIC>MOL_PROPERTY
U
SciTegic.value.DoubleValue
22.625

@<SCITEGIC>MOL_PROPERTY
W
SciTegic.value.DoubleValue
-58.481

@<SCITEGIC>MOL_PROPERTY
W(PB)
SciTegic.value.DoubleValue
-60.400

@<SCITEGIC>MOL_PROPERTY
W(SA)
SciTegic.value.DoubleValue
1.919

@<SCITEGIC>MOL_PROPERTY
Valence
SciTegic.value.DoubleValue
2.404

@<SCITEGIC>MOL_PROPERTY
Coulomb
SciTegic.value.DoubleValue
19.464

@<SCITEGIC>MOL_PROPERTY
VdW
SciTegic.value.DoubleValue
0.757

@<SCITEGIC>MOL_PROPERTY
VdW6
SciTegic.value.DoubleValue
-5.074

@<SCITEGIC>MOL_PROPERTY
VdW12
SciTegic.value.DoubleValue
5.830

@<SCITEGIC>MOL_PROPERTY
Bond
SciTegic.value.DoubleValue
0.172

@<SCITEGIC>MOL_PROPERTY
Angle
SciTegic.value.DoubleValue
1.207

@<SCITEGIC>MOL_PROPERTY
Pdih
SciTegic.value.DoubleValue
1.025

@<SCITEGIC>MOL_PROPERTY
Idih
SciTegic.value.DoubleValue
0.000

@<SCITEGIC>MOL_PROPERTY
Tether
SciTegic.value.DoubleValue
0.000

@<TRIPOS>MOLECULE
guest-s10_confgen4.mol2 : confsearch ligand conformer 486
          20          19           1
SMALL
USER_CHARGES
 
@<TRIPOS>ATOM
       1    N1      18.028006   18.483520   22.372591 N.4        1 MOL1        -0.5937
       2    H1      17.993975   19.350539   21.830379 H          1 MOL1         0.3684
       3    H2      17.419783   18.604859   23.186079 H          1 MOL1         0.3684
       4    H3      17.620533   17.744541   21.793437 H          1 MOL1         0.3684
       5    C1      19.436844   18.149955   22.782575 C.3        1 MOL1         0.1270
       6    H4      20.014174   18.035129   21.860277 H          1 MOL1         0.0960
       7    C2      19.479444   16.814345   23.542735 C.3        1 MOL1        -0.2382
       8    H5      19.055354   16.006899   22.933296 H          1 MOL1         0.1009
       9    H6      18.909880   16.871188   24.478747 H          1 MOL1         0.1009
      10    H7      20.512546   16.538190   23.787808 H          1 MOL1         0.1009
      11    C3      20.087983   19.269910   23.625606 C.3        1 MOL1        -0.1392
      12    H8      19.531472   19.389327   24.564685 H          1 MOL1         0.0998
      13    H9      21.102925   18.960099   23.908160 H          1 MOL1         0.0998
      14    C4      20.169006   20.640493   22.906693 C.3        1 MOL1        -0.1302
      15    H10     20.639766   21.366635   23.584193 H          1 MOL1         0.0998
      16    H11     19.159701   21.025090   22.706811 H          1 MOL1         0.0998
      17    C5      20.977139   20.587259   21.590086 C.3        1 MOL1        -0.2317
      18    H12     21.991407   20.205346   21.764964 H          1 MOL1         0.1009
      19    H13     21.068246   21.590569   21.154038 H          1 MOL1         0.1009
      20    H14     20.493173   19.945240   20.843438 H          1 MOL1         0.1009
@<TRIPOS>BOND
    1     1     2    1
    2     1     3    1
    3     1     4    1
    4     1     5    1
    5     5     6    1
    6     5     7    1
    7     7     8    1
    8     7     9    1
    9     7    10    1
   10     5    11    1
   11    11    12    1
   12    11    13    1
   13    11    14    1
   14    14    15    1
   15    14    16    1
   16    14    17    1
   17    17    18    1
   18    17    19    1
   19    17    20    1
@<TRIPOS>SUBSTRUCTURE
       1 MOL1            1 RESIDUE      1      MOL     
@<SCITEGIC>MOL_PROPERTY
VConf Rank
SciTegic.value.IntegerValue
486

@<SCITEGIC>MOL_PROPERTY
Conf_Id
SciTegic.value.IntegerValue
50

@<SCITEGIC>MOL_PROPERTY
Delta U+W
SciTegic.value.DoubleValue
0.466

@<SCITEGIC>MOL_PROPERTY
U+W
SciTegic.value.DoubleValue
-35.811

@<SCITEGIC>MOL_PROPERTY
Grad RMS
SciTegic.value.DoubleValue
0.000000

@<SCITEGIC>MOL_PROPERTY
U
SciTegic.value.DoubleValue
22.369

@<SCITEGIC>MOL_PROPERTY
W
SciTegic.value.DoubleValue
-58.180

@<SCITEGIC>MOL_PROPERTY
W(PB)
SciTegic.value.DoubleValue
-60.103

@<SCITEGIC>MOL_PROPERTY
W(SA)
SciTegic.value.DoubleValue
1.923

@<SCITEGIC>MOL_PROPERTY
Valence
SciTegic.value.DoubleValue
2.168

@<SCITEGIC>MOL_PROPERTY
Coulomb
SciTegic.value.DoubleValue
19.636

@<SCITEGIC>MOL_PROPERTY
VdW
SciTegic.value.DoubleValue
0.566

@<SCITEGIC>MOL_PROPERTY
VdW6
SciTegic.value.DoubleValue
-5.263

@<SCITEGIC>MOL_PROPERTY
VdW12
SciTegic.value.DoubleValue
5.829

@<SCITEGIC>MOL_PROPERTY
Bond
SciTegic.value.DoubleValue
0.162

@<SCITEGIC>MOL_PROPERTY
Angle
SciTegic.value.DoubleValue
1.066

@<SCITEGIC>MOL_PROPERTY
Pdih
SciTegic.value.DoubleValue
0.939

@<SCITEGIC>MOL_PROPERTY
Idih
SciTegic.value.DoubleValue
0.000

@<SCITEGIC>MOL_PROPERTY
Tether
SciTegic.value.DoubleValue
0.000

@<TRIPOS>MOLECULE
guest-s10_confgen4.mol2 : confsearch ligand conformer 487
          20          19           1
SMALL
USER_CHARGES
 
@<TRIPOS>ATOM
       1    N1      19.808431   19.668601   20.588430 N.4        1 MOL1        -0.5937
       2    H1      19.345500   18.945447   20.030991 H          1 MOL1         0.3684
       3    H2      20.797933   19.670694   20.328137 H          1 MOL1         0.3684
       4    H3      19.416274   20.569228   20.300646 H          1 MOL1         0.3684
       5    C1      19.625323   19.434377   22.063623 C.3        1 MOL1         0.1270
       6    H4      18.545634   19.445923   22.242229 H          1 MOL1         0.0960
       7    C2      20.270368   20.581744   22.863267 C.3        1 MOL1        -0.2382
       8    H5      21.349933   20.636152   22.675531 H          1 MOL1         0.1009
       9    H6      20.122651   20.454450   23.941119 H          1 MOL1         0.1009
      10    H7      19.828647   21.545241   22.580983 H          1 MOL1         0.1009
      11    C3      20.171408   18.053091   22.501881 C.3        1 MOL1        -0.1392
      12    H8      20.296178   17.418042   21.614853 H          1 MOL1         0.0998
      13    H9      21.175534   18.157132   22.934224 H          1 MOL1         0.0998
      14    C4      19.243874   17.294799   23.484965 C.3        1 MOL1        -0.1302
      15    H10     19.672694   16.301044   23.676011 H          1 MOL1         0.0998
      16    H11     18.268750   17.119735   23.008975 H          1 MOL1         0.0998
      17    C5      19.032796   18.012843   24.836296 C.3        1 MOL1        -0.2317
      18    H12     19.992401   18.240674   25.318250 H          1 MOL1         0.1009
      19    H13     18.456652   17.377916   25.521837 H          1 MOL1         0.1009
      20    H14     18.474697   18.948912   24.710082 H          1 MOL1         0.1009
@<TRIPOS>BOND
    1     1     2    1
    2     1     3    1
    3     1     4    1
    4     1     5    1
    5     5     6    1
    6     5     7    1
    7     7     8    1
    8     7     9    1
    9     7    10    1
   10     5    11    1
   11    11    12    1
   12    11    13    1
   13    11    14    1
   14    14    15    1
   15    14    16    1
   16    14    17    1
   17    17    18    1
   18    17    19    1
   19    17    20    1
@<TRIPOS>SUBSTRUCTURE
       1 MOL1            1 RESIDUE      1      MOL     
@<SCITEGIC>MOL_PROPERTY
VConf Rank
SciTegic.value.IntegerValue
487

@<SCITEGIC>MOL_PROPERTY
Conf_Id
SciTegic.value.IntegerValue
3

@<SCITEGIC>MOL_PROPERTY
Delta U+W
SciTegic.value.DoubleValue
3.093

@<SCITEGIC>MOL_PROPERTY
U+W
SciTegic.value.DoubleValue
-33.184

@<SCITEGIC>MOL_PROPERTY
Grad RMS
SciTegic.value.DoubleValue
0.000000

@<SCITEGIC>MOL_PROPERTY
U
SciTegic.value.DoubleValue
25.256

@<SCITEGIC>MOL_PROPERTY
W
SciTegic.value.DoubleValue
-58.439

@<SCITEGIC>MOL_PROPERTY
W(PB)
SciTegic.value.DoubleValue
-60.337

@<SCITEGIC>MOL_PROPERTY
W(SA)
SciTegic.value.DoubleValue
1.898

@<SCITEGIC>MOL_PROPERTY
Valence
SciTegic.value.DoubleValue
4.963

@<SCITEGIC>MOL_PROPERTY
Coulomb
SciTegic.value.DoubleValue
19.511

@<SCITEGIC>MOL_PROPERTY
VdW
SciTegic.value.DoubleValue
0.782

@<SCITEGIC>MOL_PROPERTY
VdW6
SciTegic.value.DoubleValue
-5.429

@<SCITEGIC>MOL_PROPERTY
VdW12
SciTegic.value.DoubleValue
6.211

@<SCITEGIC>MOL_PROPERTY
Bond
SciTegic.value.DoubleValue
0.174

@<SCITEGIC>MOL_PROPERTY
Angle
SciTegic.value.DoubleValue
1.377

@<SCITEGIC>MOL_PROPERTY
Pdih
SciTegic.value.DoubleValue
3.412

@<SCITEGIC>MOL_PROPERTY
Idih
SciTegic.value.DoubleValue
0.000

@<SCITEGIC>MOL_PROPERTY
Tether
SciTegic.value.DoubleValue
0.000

@<TRIPOS>MOLECULE
guest-s10_confgen4.mol2 : confsearch ligand conformer 488
          20          19           1
SMALL
USER_CHARGES
 
@<TRIPOS>ATOM
       1    N1      20.250885   17.519852   24.454637 N.4        1 MOL1        -0.5937
       2    H1      21.209432   17.196688   24.610803 H          1 MOL1         0.3684
       3    H2      19.678196   16.691043   24.273162 H          1 MOL1         0.3684
       4    H3      19.922837   17.932899   25.331256 H          1 MOL1         0.3684
       5    C1      20.179324   18.503849   23.319291 C.3        1 MOL1         0.1270
       6    H4      20.550343   17.978278   22.434296 H          1 MOL1         0.0960
       7    C2      21.101690   19.705621   23.593309 C.3        1 MOL1        -0.2382
       8    H5      21.169461   20.362535   22.718434 H          1 MOL1         0.1009
       9    H6      22.119174   19.367394   23.824529 H          1 MOL1         0.1009
      10    H7      20.739251   20.299074   24.441801 H          1 MOL1         0.1009
      11    C3      18.719958   18.941301   23.048527 C.3        1 MOL1        -0.1392
      12    H8      18.098050   18.042836   22.941206 H          1 MOL1         0.0998
      13    H9      18.332444   19.476648   23.925438 H          1 MOL1         0.0998
      14    C4      18.523300   19.823532   21.789123 C.3        1 MOL1        -0.1302
      15    H10     19.025431   20.791643   21.919118 H          1 MOL1         0.0998
      16    H11     17.453586   20.052424   21.683483 H          1 MOL1         0.0998
      17    C5      19.020932   19.146819   20.491598 C.3        1 MOL1        -0.2317
      18    H12     18.534115   18.174373   20.341544 H          1 MOL1         0.1009
      19    H13     20.106561   18.988307   20.510219 H          1 MOL1         0.1009
      20    H14     18.793338   19.773348   19.619428 H          1 MOL1         0.1009
@<TRIPOS>BOND
    1     1     2    1
    2     1     3    1
    3     1     4    1
    4     1     5    1
    5     5     6    1
    6     5     7    1
    7     7     8    1
    8     7     9    1
    9     7    10    1
   10     5    11    1
   11    11    12    1
   12    11    13    1
   13    11    14    1
   14    14    15    1
   15    14    16    1
   16    14    17    1
   17    17    18    1
   18    17    19    1
   19    17    20    1
@<TRIPOS>SUBSTRUCTURE
       1 MOL1            1 RESIDUE      1      MOL     
@<SCITEGIC>MOL_PROPERTY
VConf Rank
SciTegic.value.IntegerValue
488

@<SCITEGIC>MOL_PROPERTY
Conf_Id
SciTegic.value.IntegerValue
64

@<SCITEGIC>MOL_PROPERTY
Delta U+W
SciTegic.value.DoubleValue
0.544

@<SCITEGIC>MOL_PROPERTY
U+W
SciTegic.value.DoubleValue
-35.732

@<SCITEGIC>MOL_PROPERTY
Grad RMS
SciTegic.value.DoubleValue
0.000000

@<SCITEGIC>MOL_PROPERTY
U
SciTegic.value.DoubleValue
22.800

@<SCITEGIC>MOL_PROPERTY
W
SciTegic.value.DoubleValue
-58.532

@<SCITEGIC>MOL_PROPERTY
W(PB)
SciTegic.value.DoubleValue
-60.437

@<SCITEGIC>MOL_PROPERTY
W(SA)
SciTegic.value.DoubleValue
1.905

@<SCITEGIC>MOL_PROPERTY
Valence
SciTegic.value.DoubleValue
2.662

@<SCITEGIC>MOL_PROPERTY
Coulomb
SciTegic.value.DoubleValue
19.485

@<SCITEGIC>MOL_PROPERTY
VdW
SciTegic.value.DoubleValue
0.653

@<SCITEGIC>MOL_PROPERTY
VdW6
SciTegic.value.DoubleValue
-5.460

@<SCITEGIC>MOL_PROPERTY
VdW12
SciTegic.value.DoubleValue
6.113

@<SCITEGIC>MOL_PROPERTY
Bond
SciTegic.value.DoubleValue
0.174

@<SCITEGIC>MOL_PROPERTY
Angle
SciTegic.value.DoubleValue
1.378

@<SCITEGIC>MOL_PROPERTY
Pdih
SciTegic.value.DoubleValue
1.109

@<SCITEGIC>MOL_PROPERTY
Idih
SciTegic.value.DoubleValue
0.000

@<SCITEGIC>MOL_PROPERTY
Tether
SciTegic.value.DoubleValue
0.000

@<TRIPOS>MOLECULE
guest-s10_confgen4.mol2 : confsearch ligand conformer 489
          20          19           1
SMALL
USER_CHARGES
 
@<TRIPOS>ATOM
       1    N1      21.312810   20.202268   23.393591 N.4        1 MOL1        -0.5937
       2    H1      20.554503   20.404969   24.048691 H          1 MOL1         0.3684
       3    H2      21.687780   21.099115   23.073161 H          1 MOL1         0.3684
       4    H3      22.055501   19.733139   23.918937 H          1 MOL1         0.3684
       5    C1      20.834744   19.362005   22.240230 C.3        1 MOL1         0.1270
       6    H4      21.707876   19.211473   21.597624 H          1 MOL1         0.0960
       7    C2      19.780366   20.115552   21.413080 C.3        1 MOL1        -0.2382
       8    H5      18.927969   20.420582   22.031210 H          1 MOL1         0.1009
       9    H6      19.410193   19.491921   20.590040 H          1 MOL1         0.1009
      10    H7      20.214542   21.022036   20.974049 H          1 MOL1         0.1009
      11    C3      20.358727   17.958096   22.691215 C.3        1 MOL1        -0.1392
      12    H8      20.188449   17.329831   21.807028 H          1 MOL1         0.0998
      13    H9      21.193519   17.484481   23.224405 H          1 MOL1         0.0998
      14    C4      19.108244   17.920104   23.613210 C.3        1 MOL1        -0.1302
      15    H10     19.055946   18.820049   24.239901 H          1 MOL1         0.0998
      16    H11     19.217391   17.076834   24.309604 H          1 MOL1         0.0998
      17    C5      17.779425   17.728397   22.844942 C.3        1 MOL1        -0.2317
      18    H12     17.575519   18.556897   22.157930 H          1 MOL1         0.1009
      19    H13     16.937088   17.665790   23.546024 H          1 MOL1         0.1009
      20    H14     17.794024   16.799403   22.260305 H          1 MOL1         0.1009
@<TRIPOS>BOND
    1     1     2    1
    2     1     3    1
    3     1     4    1
    4     1     5    1
    5     5     6    1
    6     5     7    1
    7     7     8    1
    8     7     9    1
    9     7    10    1
   10     5    11    1
   11    11    12    1
   12    11    13    1
   13    11    14    1
   14    14    15    1
   15    14    16    1
   16    14    17    1
   17    17    18    1
   18    17    19    1
   19    17    20    1
@<TRIPOS>SUBSTRUCTURE
       1 MOL1            1 RESIDUE      1      MOL     
@<SCITEGIC>MOL_PROPERTY
VConf Rank
SciTegic.value.IntegerValue
489

@<SCITEGIC>MOL_PROPERTY
Conf_Id
SciTegic.value.IntegerValue
35

@<SCITEGIC>MOL_PROPERTY
Delta U+W
SciTegic.value.DoubleValue
3.004

@<SCITEGIC>MOL_PROPERTY
U+W
SciTegic.value.DoubleValue
-33.272

@<SCITEGIC>MOL_PROPERTY
Grad RMS
SciTegic.value.DoubleValue
0.000000

@<SCITEGIC>MOL_PROPERTY
U
SciTegic.value.DoubleValue
25.367

@<SCITEGIC>MOL_PROPERTY
W
SciTegic.value.DoubleValue
-58.639

@<SCITEGIC>MOL_PROPERTY
W(PB)
SciTegic.value.DoubleValue
-60.512

@<SCITEGIC>MOL_PROPERTY
W(SA)
SciTegic.value.DoubleValue
1.873

@<SCITEGIC>MOL_PROPERTY
Valence
SciTegic.value.DoubleValue
4.943

@<SCITEGIC>MOL_PROPERTY
Coulomb
SciTegic.value.DoubleValue
19.661

@<SCITEGIC>MOL_PROPERTY
VdW
SciTegic.value.DoubleValue
0.764

@<SCITEGIC>MOL_PROPERTY
VdW6
SciTegic.value.DoubleValue
-5.871

@<SCITEGIC>MOL_PROPERTY
VdW12
SciTegic.value.DoubleValue
6.636

@<SCITEGIC>MOL_PROPERTY
Bond
SciTegic.value.DoubleValue
0.230

@<SCITEGIC>MOL_PROPERTY
Angle
SciTegic.value.DoubleValue
1.857

@<SCITEGIC>MOL_PROPERTY
Pdih
SciTegic.value.DoubleValue
2.855

@<SCITEGIC>MOL_PROPERTY
Idih
SciTegic.value.DoubleValue
0.000

@<SCITEGIC>MOL_PROPERTY
Tether
SciTegic.value.DoubleValue
0.000

@<TRIPOS>MOLECULE
guest-s10_confgen4.mol2 : confsearch ligand conformer 490
          20          19           1
SMALL
USER_CHARGES
 
@<TRIPOS>ATOM
       1    N1      18.332242   17.998756   22.438702 N.4        1 MOL1        -0.5937
       2    H1      18.082403   17.029671   22.224095 H          1 MOL1         0.3684
       3    H2      17.515322   18.577935   22.227103 H          1 MOL1         0.3684
       4    H3      18.498618   18.060449   23.444938 H          1 MOL1         0.3684
       5    C1      19.539321   18.443212   21.659033 C.3        1 MOL1         0.1270
       6    H4      19.249137   18.363973   20.606683 H          1 MOL1         0.0960
       7    C2      20.730383   17.493616   21.878461 C.3        1 MOL1        -0.2382
       8    H5      21.021578   17.446621   22.934535 H          1 MOL1         0.1009
       9    H6      21.600444   17.819968   21.295445 H          1 MOL1         0.1009
      10    H7      20.475857   16.476917   21.555187 H          1 MOL1         0.1009
      11    C3      19.912232   19.926780   21.910579 C.3        1 MOL1        -0.1392
      12    H8      20.575482   20.245439   21.095657 H          1 MOL1         0.0998
      13    H9      19.009199   20.542583   21.807929 H          1 MOL1         0.0998
      14    C4      20.614625   20.267372   23.254914 C.3        1 MOL1        -0.1302
      15    H10     20.848186   21.341276   23.252958 H          1 MOL1         0.0998
      16    H11     21.584443   19.755464   23.318432 H          1 MOL1         0.0998
      17    C5      19.778631   19.955528   24.516972 C.3        1 MOL1        -0.2317
      18    H12     18.770672   20.384126   24.443050 H          1 MOL1         0.1009
      19    H13     20.258223   20.385512   25.405946 H          1 MOL1         0.1009
      20    H14     19.693611   18.876346   24.688450 H          1 MOL1         0.1009
@<TRIPOS>BOND
    1     1     2    1
    2     1     3    1
    3     1     4    1
    4     1     5    1
    5     5     6    1
    6     5     7    1
    7     7     8    1
    8     7     9    1
    9     7    10    1
   10     5    11    1
   11    11    12    1
   12    11    13    1
   13    11    14    1
   14    14    15    1
   15    14    16    1
   16    14    17    1
   17    17    18    1
   18    17    19    1
   19    17    20    1
@<TRIPOS>SUBSTRUCTURE
       1 MOL1            1 RESIDUE      1      MOL     
@<SCITEGIC>MOL_PROPERTY
VConf Rank
SciTegic.value.IntegerValue
490

@<SCITEGIC>MOL_PROPERTY
Conf_Id
SciTegic.value.IntegerValue
55

@<SCITEGIC>MOL_PROPERTY
Delta U+W
SciTegic.value.DoubleValue
2.767

@<SCITEGIC>MOL_PROPERTY
U+W
SciTegic.value.DoubleValue
-33.509

@<SCITEGIC>MOL_PROPERTY
Grad RMS
SciTegic.value.DoubleValue
0.000000

@<SCITEGIC>MOL_PROPERTY
U
SciTegic.value.DoubleValue
24.552

@<SCITEGIC>MOL_PROPERTY
W
SciTegic.value.DoubleValue
-58.061

@<SCITEGIC>MOL_PROPERTY
W(PB)
SciTegic.value.DoubleValue
-59.930

@<SCITEGIC>MOL_PROPERTY
W(SA)
SciTegic.value.DoubleValue
1.869

@<SCITEGIC>MOL_PROPERTY
Valence
SciTegic.value.DoubleValue
3.726

@<SCITEGIC>MOL_PROPERTY
Coulomb
SciTegic.value.DoubleValue
20.219

@<SCITEGIC>MOL_PROPERTY
VdW
SciTegic.value.DoubleValue
0.606

@<SCITEGIC>MOL_PROPERTY
VdW6
SciTegic.value.DoubleValue
-6.395

@<SCITEGIC>MOL_PROPERTY
VdW12
SciTegic.value.DoubleValue
7.001

@<SCITEGIC>MOL_PROPERTY
Bond
SciTegic.value.DoubleValue
0.241

@<SCITEGIC>MOL_PROPERTY
Angle
SciTegic.value.DoubleValue
2.098

@<SCITEGIC>MOL_PROPERTY
Pdih
SciTegic.value.DoubleValue
1.387

@<SCITEGIC>MOL_PROPERTY
Idih
SciTegic.value.DoubleValue
0.000

@<SCITEGIC>MOL_PROPERTY
Tether
SciTegic.value.DoubleValue
0.000

@<TRIPOS>MOLECULE
guest-s10_confgen4.mol2 : confsearch ligand conformer 491
          20          19           1
SMALL
USER_CHARGES
 
@<TRIPOS>ATOM
       1    N1      20.374861   17.086926   22.731833 N.4        1 MOL1        -0.5937
       2    H1      21.090807   17.181739   22.007280 H          1 MOL1         0.3684
       3    H2      20.093986   16.102973   22.756390 H          1 MOL1         0.3684
       4    H3      20.816182   17.299214   23.630026 H          1 MOL1         0.3684
       5    C1      19.199463   17.988797   22.467015 C.3        1 MOL1         0.1270
       6    H4      18.489384   17.828752   23.284364 H          1 MOL1         0.0960
       7    C2      18.509561   17.603574   21.148073 C.3        1 MOL1        -0.2382
       8    H5      18.195471   16.552728   21.166386 H          1 MOL1         0.1009
       9    H6      19.181372   17.744594   20.292167 H          1 MOL1         0.1009
      10    H7      17.613667   18.215018   20.983308 H          1 MOL1         0.1009
      11    C3      19.589585   19.483366   22.452279 C.3        1 MOL1        -0.1392
      12    H8      20.321216   19.666745   21.654153 H          1 MOL1         0.0998
      13    H9      18.700757   20.078954   22.204637 H          1 MOL1         0.0998
      14    C4      20.157711   19.974434   23.805647 C.3        1 MOL1        -0.1302
      15    H10     21.081060   19.431785   24.049336 H          1 MOL1         0.0998
      16    H11     19.439620   19.757823   24.609182 H          1 MOL1         0.0998
      17    C5      20.456898   21.488782   23.782348 C.3        1 MOL1        -0.2317
      18    H12     21.195770   21.733525   23.008123 H          1 MOL1         0.1009
      19    H13     20.859912   21.819289   24.748489 H          1 MOL1         0.1009
      20    H14     19.546722   22.068908   23.581687 H          1 MOL1         0.1009
@<TRIPOS>BOND
    1     1     2    1
    2     1     3    1
    3     1     4    1
    4     1     5    1
    5     5     6    1
    6     5     7    1
    7     7     8    1
    8     7     9    1
    9     7    10    1
   10     5    11    1
   11    11    12    1
   12    11    13    1
   13    11    14    1
   14    14    15    1
   15    14    16    1
   16    14    17    1
   17    17    18    1
   18    17    19    1
   19    17    20    1
@<TRIPOS>SUBSTRUCTURE
       1 MOL1            1 RESIDUE      1      MOL     
@<SCITEGIC>MOL_PROPERTY
VConf Rank
SciTegic.value.IntegerValue
491

@<SCITEGIC>MOL_PROPERTY
Conf_Id
SciTegic.value.IntegerValue
74

@<SCITEGIC>MOL_PROPERTY
Delta U+W
SciTegic.value.DoubleValue
0.000

@<SCITEGIC>MOL_PROPERTY
U+W
SciTegic.value.DoubleValue
-36.276

@<SCITEGIC>MOL_PROPERTY
Grad RMS
SciTegic.value.DoubleValue
0.000000

@<SCITEGIC>MOL_PROPERTY
U
SciTegic.value.DoubleValue
22.080

@<SCITEGIC>MOL_PROPERTY
W
SciTegic.value.DoubleValue
-58.356

@<SCITEGIC>MOL_PROPERTY
W(PB)
SciTegic.value.DoubleValue
-60.289

@<SCITEGIC>MOL_PROPERTY
W(SA)
SciTegic.value.DoubleValue
1.932

@<SCITEGIC>MOL_PROPERTY
Valence
SciTegic.value.DoubleValue
1.885

@<SCITEGIC>MOL_PROPERTY
Coulomb
SciTegic.value.DoubleValue
19.559

@<SCITEGIC>MOL_PROPERTY
VdW
SciTegic.value.DoubleValue
0.637

@<SCITEGIC>MOL_PROPERTY
VdW6
SciTegic.value.DoubleValue
-4.482

@<SCITEGIC>MOL_PROPERTY
VdW12
SciTegic.value.DoubleValue
5.119

@<SCITEGIC>MOL_PROPERTY
Bond
SciTegic.value.DoubleValue
0.136

@<SCITEGIC>MOL_PROPERTY
Angle
SciTegic.value.DoubleValue
0.867

@<SCITEGIC>MOL_PROPERTY
Pdih
SciTegic.value.DoubleValue
0.882

@<SCITEGIC>MOL_PROPERTY
Idih
SciTegic.value.DoubleValue
0.000

@<SCITEGIC>MOL_PROPERTY
Tether
SciTegic.value.DoubleValue
0.000

@<TRIPOS>MOLECULE
guest-s10_confgen4.mol2 : confsearch ligand conformer 492
          20          19           1
SMALL
USER_CHARGES
 
@<TRIPOS>ATOM
       1    N1      19.048219   17.129398   21.311106 N.4        1 MOL1        -0.5937
       2    H1      19.465835   17.393052   20.414479 H          1 MOL1         0.3684
       3    H2      18.052031   17.357684   21.263973 H          1 MOL1         0.3684
       4    H3      19.123540   16.111806   21.391802 H          1 MOL1         0.3684
       5    C1      19.720660   17.824523   22.463100 C.3        1 MOL1         0.1270
       6    H4      20.771784   17.520854   22.435042 H          1 MOL1         0.0960
       7    C2      19.114280   17.354151   23.797961 C.3        1 MOL1        -0.2382
       8    H5      19.125477   16.259215   23.862843 H          1 MOL1         0.1009
       9    H6      18.075149   17.690098   23.902489 H          1 MOL1         0.1009
      10    H7      19.686148   17.734136   24.652246 H          1 MOL1         0.1009
      11    C3      19.657006   19.361363   22.303228 C.3        1 MOL1        -0.1392
      12    H8      20.002053   19.620145   21.293457 H          1 MOL1         0.0998
      13    H9      18.613679   19.697230   22.370393 H          1 MOL1         0.0998
      14    C4      20.520748   20.133365   23.330421 C.3        1 MOL1        -0.1302
      15    H10     21.551867   19.753437   23.307657 H          1 MOL1         0.0998
      16    H11     20.142374   19.967479   24.347876 H          1 MOL1         0.0998
      17    C5      20.528120   21.650251   23.042869 C.3        1 MOL1        -0.2317
      18    H12     20.941264   21.862656   22.048166 H          1 MOL1         0.1009
      19    H13     21.141458   22.181970   23.781908 H          1 MOL1         0.1009
      20    H14     19.512767   22.065426   23.087003 H          1 MOL1         0.1009
@<TRIPOS>BOND
    1     1     2    1
    2     1     3    1
    3     1     4    1
    4     1     5    1
    5     5     6    1
    6     5     7    1
    7     7     8    1
    8     7     9    1
    9     7    10    1
   10     5    11    1
   11    11    12    1
   12    11    13    1
   13    11    14    1
   14    14    15    1
   15    14    16    1
   16    14    17    1
   17    17    18    1
   18    17    19    1
   19    17    20    1
@<TRIPOS>SUBSTRUCTURE
       1 MOL1            1 RESIDUE      1      MOL     
@<SCITEGIC>MOL_PROPERTY
VConf Rank
SciTegic.value.IntegerValue
492

@<SCITEGIC>MOL_PROPERTY
Conf_Id
SciTegic.value.IntegerValue
80

@<SCITEGIC>MOL_PROPERTY
Delta U+W
SciTegic.value.DoubleValue
0.460

@<SCITEGIC>MOL_PROPERTY
U+W
SciTegic.value.DoubleValue
-35.817

@<SCITEGIC>MOL_PROPERTY
Grad RMS
SciTegic.value.DoubleValue
0.000000

@<SCITEGIC>MOL_PROPERTY
U
SciTegic.value.DoubleValue
22.495

@<SCITEGIC>MOL_PROPERTY
W
SciTegic.value.DoubleValue
-58.311

@<SCITEGIC>MOL_PROPERTY
W(PB)
SciTegic.value.DoubleValue
-60.259

@<SCITEGIC>MOL_PROPERTY
W(SA)
SciTegic.value.DoubleValue
1.948

@<SCITEGIC>MOL_PROPERTY
Valence
SciTegic.value.DoubleValue
2.419

@<SCITEGIC>MOL_PROPERTY
Coulomb
SciTegic.value.DoubleValue
19.304

@<SCITEGIC>MOL_PROPERTY
VdW
SciTegic.value.DoubleValue
0.772

@<SCITEGIC>MOL_PROPERTY
VdW6
SciTegic.value.DoubleValue
-4.635

@<SCITEGIC>MOL_PROPERTY
VdW12
SciTegic.value.DoubleValue
5.407

@<SCITEGIC>MOL_PROPERTY
Bond
SciTegic.value.DoubleValue
0.149

@<SCITEGIC>MOL_PROPERTY
Angle
SciTegic.value.DoubleValue
1.142

@<SCITEGIC>MOL_PROPERTY
Pdih
SciTegic.value.DoubleValue
1.129

@<SCITEGIC>MOL_PROPERTY
Idih
SciTegic.value.DoubleValue
0.000

@<SCITEGIC>MOL_PROPERTY
Tether
SciTegic.value.DoubleValue
0.000

@<TRIPOS>MOLECULE
guest-s10_confgen4.mol2 : confsearch ligand conformer 493
          20          19           1
SMALL
USER_CHARGES
 
@<TRIPOS>ATOM
       1    N1      20.305507   19.492234   20.470645 N.4        1 MOL1        -0.5937
       2    H1      21.211493   19.966561   20.425758 H          1 MOL1         0.3684
       3    H2      19.579943   20.209307   20.392852 H          1 MOL1         0.3684
       4    H3      20.234734   18.896747   19.641186 H          1 MOL1         0.3684
       5    C1      20.158451   18.693045   21.736513 C.3        1 MOL1         0.1270
       6    H4      20.966457   17.954901   21.728209 H          1 MOL1         0.0960
       7    C2      18.819418   17.935914   21.735523 C.3        1 MOL1        -0.2382
       8    H5      18.688317   17.381725   20.798064 H          1 MOL1         0.1009
       9    H6      17.972523   18.624432   21.845821 H          1 MOL1         0.1009
      10    H7      18.782220   17.203091   22.549522 H          1 MOL1         0.1009
      11    C3      20.341057   19.590718   22.984781 C.3        1 MOL1        -0.1392
      12    H8      21.300665   20.113412   22.876916 H          1 MOL1         0.0998
      13    H9      19.573977   20.376208   23.002753 H          1 MOL1         0.0998
      14    C4      20.365716   18.833466   24.338887 C.3        1 MOL1        -0.1302
      15    H10     21.095829   19.321478   24.999869 H          1 MOL1         0.0998
      16    H11     20.729305   17.806196   24.195758 H          1 MOL1         0.0998
      17    C5      18.999237   18.825404   25.063942 C.3        1 MOL1        -0.2317
      18    H12     18.663600   19.848273   25.278893 H          1 MOL1         0.1009
      19    H13     19.075464   18.293098   26.020928 H          1 MOL1         0.1009
      20    H14     18.219923   18.332848   24.471829 H          1 MOL1         0.1009
@<TRIPOS>BOND
    1     1     2    1
    2     1     3    1
    3     1     4    1
    4     1     5    1
    5     5     6    1
    6     5     7    1
    7     7     8    1
    8     7     9    1
    9     7    10    1
   10     5    11    1
   11    11    12    1
   12    11    13    1
   13    11    14    1
   14    14    15    1
   15    14    16    1
   16    14    17    1
   17    17    18    1
   18    17    19    1
   19    17    20    1
@<TRIPOS>SUBSTRUCTURE
       1 MOL1            1 RESIDUE      1      MOL     
@<SCITEGIC>MOL_PROPERTY
VConf Rank
SciTegic.value.IntegerValue
493

@<SCITEGIC>MOL_PROPERTY
Conf_Id
SciTegic.value.IntegerValue
52

@<SCITEGIC>MOL_PROPERTY
Delta U+W
SciTegic.value.DoubleValue
2.995

@<SCITEGIC>MOL_PROPERTY
U+W
SciTegic.value.DoubleValue
-33.282

@<SCITEGIC>MOL_PROPERTY
Grad RMS
SciTegic.value.DoubleValue
0.000000

@<SCITEGIC>MOL_PROPERTY
U
SciTegic.value.DoubleValue
25.224

@<SCITEGIC>MOL_PROPERTY
W
SciTegic.value.DoubleValue
-58.506

@<SCITEGIC>MOL_PROPERTY
W(PB)
SciTegic.value.DoubleValue
-60.411

@<SCITEGIC>MOL_PROPERTY
W(SA)
SciTegic.value.DoubleValue
1.905

@<SCITEGIC>MOL_PROPERTY
Valence
SciTegic.value.DoubleValue
4.945

@<SCITEGIC>MOL_PROPERTY
Coulomb
SciTegic.value.DoubleValue
19.467

@<SCITEGIC>MOL_PROPERTY
VdW
SciTegic.value.DoubleValue
0.813

@<SCITEGIC>MOL_PROPERTY
VdW6
SciTegic.value.DoubleValue
-5.458

@<SCITEGIC>MOL_PROPERTY
VdW12
SciTegic.value.DoubleValue
6.270

@<SCITEGIC>MOL_PROPERTY
Bond
SciTegic.value.DoubleValue
0.200

@<SCITEGIC>MOL_PROPERTY
Angle
SciTegic.value.DoubleValue
1.675

@<SCITEGIC>MOL_PROPERTY
Pdih
SciTegic.value.DoubleValue
3.070

@<SCITEGIC>MOL_PROPERTY
Idih
SciTegic.value.DoubleValue
0.000

@<SCITEGIC>MOL_PROPERTY
Tether
SciTegic.value.DoubleValue
0.000

@<TRIPOS>MOLECULE
guest-s10_confgen4.mol2 : confsearch ligand conformer 494
          20          19           1
SMALL
USER_CHARGES
 
@<TRIPOS>ATOM
       1    N1      19.767223   19.064567   24.365215 N.4        1 MOL1        -0.5937
       2    H1      20.490412   18.395163   24.639574 H          1 MOL1         0.3684
       3    H2      19.150106   19.195873   25.171176 H          1 MOL1         0.3684
       4    H3      20.230387   19.957255   24.181987 H          1 MOL1         0.3684
       5    C1      19.006380   18.586262   23.158735 C.3        1 MOL1         0.1270
       6    H4      18.224870   19.325309   22.956776 H          1 MOL1         0.0960
       7    C2      18.327632   17.241495   23.469641 C.3        1 MOL1        -0.2382
       8    H5      19.070149   16.457695   23.665046 H          1 MOL1         0.1009
       9    H6      17.700398   16.916580   22.630204 H          1 MOL1         0.1009
      10    H7      17.680769   17.327180   24.351435 H          1 MOL1         0.1009
      11    C3      19.895975   18.462921   21.898718 C.3        1 MOL1        -0.1392
      12    H8      20.824932   17.932691   22.146649 H          1 MOL1         0.0998
      13    H9      19.377479   17.831686   21.164697 H          1 MOL1         0.0998
      14    C4      20.219550   19.808053   21.196914 C.3        1 MOL1        -0.1302
      15    H10     19.284893   20.310098   20.909857 H          1 MOL1         0.0998
      16    H11     20.744261   19.586003   20.257022 H          1 MOL1         0.0998
      17    C5      21.093241   20.778424   22.024108 C.3        1 MOL1        -0.2317
      18    H12     21.442652   21.605602   21.392462 H          1 MOL1         0.1009
      19    H13     21.979638   20.272289   22.428390 H          1 MOL1         0.1009
      20    H14     20.529444   21.225125   22.851169 H          1 MOL1         0.1009
@<TRIPOS>BOND
    1     1     2    1
    2     1     3    1
    3     1     4    1
    4     1     5    1
    5     5     6    1
    6     5     7    1
    7     7     8    1
    8     7     9    1
    9     7    10    1
   10     5    11    1
   11    11    12    1
   12    11    13    1
   13    11    14    1
   14    14    15    1
   15    14    16    1
   16    14    17    1
   17    17    18    1
   18    17    19    1
   19    17    20    1
@<TRIPOS>SUBSTRUCTURE
       1 MOL1            1 RESIDUE      1      MOL     
@<SCITEGIC>MOL_PROPERTY
VConf Rank
SciTegic.value.IntegerValue
494

@<SCITEGIC>MOL_PROPERTY
Conf_Id
SciTegic.value.IntegerValue
54

@<SCITEGIC>MOL_PROPERTY
Delta U+W
SciTegic.value.DoubleValue
2.752

@<SCITEGIC>MOL_PROPERTY
U+W
SciTegic.value.DoubleValue
-33.525

@<SCITEGIC>MOL_PROPERTY
Grad RMS
SciTegic.value.DoubleValue
0.000000

@<SCITEGIC>MOL_PROPERTY
U
SciTegic.value.DoubleValue
24.337

@<SCITEGIC>MOL_PROPERTY
W
SciTegic.value.DoubleValue
-57.862

@<SCITEGIC>MOL_PROPERTY
W(PB)
SciTegic.value.DoubleValue
-59.764

@<SCITEGIC>MOL_PROPERTY
W(SA)
SciTegic.value.DoubleValue
1.901

@<SCITEGIC>MOL_PROPERTY
Valence
SciTegic.value.DoubleValue
3.593

@<SCITEGIC>MOL_PROPERTY
Coulomb
SciTegic.value.DoubleValue
20.067

@<SCITEGIC>MOL_PROPERTY
VdW
SciTegic.value.DoubleValue
0.677

@<SCITEGIC>MOL_PROPERTY
VdW6
SciTegic.value.DoubleValue
-5.466

@<SCITEGIC>MOL_PROPERTY
VdW12
SciTegic.value.DoubleValue
6.144

@<SCITEGIC>MOL_PROPERTY
Bond
SciTegic.value.DoubleValue
0.191

@<SCITEGIC>MOL_PROPERTY
Angle
SciTegic.value.DoubleValue
1.557

@<SCITEGIC>MOL_PROPERTY
Pdih
SciTegic.value.DoubleValue
1.845

@<SCITEGIC>MOL_PROPERTY
Idih
SciTegic.value.DoubleValue
0.000

@<SCITEGIC>MOL_PROPERTY
Tether
SciTegic.value.DoubleValue
0.000

@<TRIPOS>MOLECULE
guest-s10_confgen4.mol2 : confsearch ligand conformer 495
          20          19           1
SMALL
USER_CHARGES
 
@<TRIPOS>ATOM
       1    N1      20.698071   17.897544   21.192463 N.4        1 MOL1        -0.5937
       2    H1      21.534433   17.357354   20.955086 H          1 MOL1         0.3684
       3    H2      20.371724   18.345748   20.332044 H          1 MOL1         0.3684
       4    H3      19.978214   17.232929   21.484939 H          1 MOL1         0.3684
       5    C1      20.983076   18.908982   22.269334 C.3        1 MOL1         0.1270
       6    H4      21.770059   19.558692   21.873662 H          1 MOL1         0.0960
       7    C2      21.535951   18.228834   23.534470 C.3        1 MOL1        -0.2382
       8    H5      21.740739   18.969231   24.317634 H          1 MOL1         0.1009
       9    H6      22.477598   17.712318   23.311760 H          1 MOL1         0.1009
      10    H7      20.835104   17.487756   23.936540 H          1 MOL1         0.1009
      11    C3      19.760752   19.806527   22.578185 C.3        1 MOL1        -0.1392
      12    H8      20.061532   20.575514   23.302012 H          1 MOL1         0.0998
      13    H9      19.486357   20.346267   21.662327 H          1 MOL1         0.0998
      14    C4      18.516372   19.054929   23.117595 C.3        1 MOL1        -0.1302
      15    H10     18.757288   18.550092   24.062641 H          1 MOL1         0.0998
      16    H11     18.207685   18.274805   22.408877 H          1 MOL1         0.0998
      17    C5      17.332113   20.016750   23.353729 C.3        1 MOL1        -0.2317
      18    H12     16.460058   19.471267   23.737182 H          1 MOL1         0.1009
      19    H13     17.034338   20.513799   22.421263 H          1 MOL1         0.1009
      20    H14     17.592612   20.791962   24.086129 H          1 MOL1         0.1009
@<TRIPOS>BOND
    1     1     2    1
    2     1     3    1
    3     1     4    1
    4     1     5    1
    5     5     6    1
    6     5     7    1
    7     7     8    1
    8     7     9    1
    9     7    10    1
   10     5    11    1
   11    11    12    1
   12    11    13    1
   13    11    14    1
   14    14    15    1
   15    14    16    1
   16    14    17    1
   17    17    18    1
   18    17    19    1
   19    17    20    1
@<TRIPOS>SUBSTRUCTURE
       1 MOL1            1 RESIDUE      1      MOL     
@<SCITEGIC>MOL_PROPERTY
VConf Rank
SciTegic.value.IntegerValue
495

@<SCITEGIC>MOL_PROPERTY
Conf_Id
SciTegic.value.IntegerValue
63

@<SCITEGIC>MOL_PROPERTY
Delta U+W
SciTegic.value.DoubleValue
0.420

@<SCITEGIC>MOL_PROPERTY
U+W
SciTegic.value.DoubleValue
-35.856

@<SCITEGIC>MOL_PROPERTY
Grad RMS
SciTegic.value.DoubleValue
0.000000

@<SCITEGIC>MOL_PROPERTY
U
SciTegic.value.DoubleValue
22.625

@<SCITEGIC>MOL_PROPERTY
W
SciTegic.value.DoubleValue
-58.481

@<SCITEGIC>MOL_PROPERTY
W(PB)
SciTegic.value.DoubleValue
-60.400

@<SCITEGIC>MOL_PROPERTY
W(SA)
SciTegic.value.DoubleValue
1.919

@<SCITEGIC>MOL_PROPERTY
Valence
SciTegic.value.DoubleValue
2.404

@<SCITEGIC>MOL_PROPERTY
Coulomb
SciTegic.value.DoubleValue
19.464

@<SCITEGIC>MOL_PROPERTY
VdW
SciTegic.value.DoubleValue
0.757

@<SCITEGIC>MOL_PROPERTY
VdW6
SciTegic.value.DoubleValue
-5.074

@<SCITEGIC>MOL_PROPERTY
VdW12
SciTegic.value.DoubleValue
5.830

@<SCITEGIC>MOL_PROPERTY
Bond
SciTegic.value.DoubleValue
0.172

@<SCITEGIC>MOL_PROPERTY
Angle
SciTegic.value.DoubleValue
1.207

@<SCITEGIC>MOL_PROPERTY
Pdih
SciTegic.value.DoubleValue
1.025

@<SCITEGIC>MOL_PROPERTY
Idih
SciTegic.value.DoubleValue
0.000

@<SCITEGIC>MOL_PROPERTY
Tether
SciTegic.value.DoubleValue
0.000

@<TRIPOS>MOLECULE
guest-s10_confgen4.mol2 : confsearch ligand conformer 496
          20          19           1
SMALL
USER_CHARGES
 
@<TRIPOS>ATOM
       1    N1      19.253652   17.313665   23.186858 N.4        1 MOL1        -0.5937
       2    H1      19.813404   17.481374   24.026754 H          1 MOL1         0.3684
       3    H2      19.768053   16.651399   22.601011 H          1 MOL1         0.3684
       4    H3      18.388951   16.852893   23.482700 H          1 MOL1         0.3684
       5    C1      18.972221   18.596340   22.452203 C.3        1 MOL1         0.1270
       6    H4      18.421611   19.240903   23.143936 H          1 MOL1         0.0960
       7    C2      18.079661   18.336302   21.227773 C.3        1 MOL1        -0.2382
       8    H5      17.142325   17.851090   21.526449 H          1 MOL1         0.1009
       9    H6      18.582837   17.688290   20.499317 H          1 MOL1         0.1009
      10    H7      17.821626   19.277535   20.726654 H          1 MOL1         0.1009
      11    C3      20.264619   19.331271   22.029632 C.3        1 MOL1        -0.1392
      12    H8      20.824136   18.706107   21.321152 H          1 MOL1         0.0998
      13    H9      19.993809   20.245156   21.484284 H          1 MOL1         0.0998
      14    C4      21.192655   19.713955   23.210395 C.3        1 MOL1        -0.1302
      15    H10     22.080009   20.224250   22.810263 H          1 MOL1         0.0998
      16    H11     21.564845   18.809251   23.709947 H          1 MOL1         0.0998
      17    C5      20.508244   20.636728   24.244533 C.3        1 MOL1        -0.2317
      18    H12     20.127508   21.549386   23.767799 H          1 MOL1         0.1009
      19    H13     21.221827   20.938497   25.022224 H          1 MOL1         0.1009
      20    H14     19.669363   20.134742   24.742714 H          1 MOL1         0.1009
@<TRIPOS>BOND
    1     1     2    1
    2     1     3    1
    3     1     4    1
    4     1     5    1
    5     5     6    1
    6     5     7    1
    7     7     8    1
    8     7     9    1
    9     7    10    1
   10     5    11    1
   11    11    12    1
   12    11    13    1
   13    11    14    1
   14    14    15    1
   15    14    16    1
   16    14    17    1
   17    17    18    1
   18    17    19    1
   19    17    20    1
@<TRIPOS>SUBSTRUCTURE
       1 MOL1            1 RESIDUE      1      MOL     
@<SCITEGIC>MOL_PROPERTY
VConf Rank
SciTegic.value.IntegerValue
496

@<SCITEGIC>MOL_PROPERTY
Conf_Id
SciTegic.value.IntegerValue
50

@<SCITEGIC>MOL_PROPERTY
Delta U+W
SciTegic.value.DoubleValue
0.466

@<SCITEGIC>MOL_PROPERTY
U+W
SciTegic.value.DoubleValue
-35.811

@<SCITEGIC>MOL_PROPERTY
Grad RMS
SciTegic.value.DoubleValue
0.000000

@<SCITEGIC>MOL_PROPERTY
U
SciTegic.value.DoubleValue
22.369

@<SCITEGIC>MOL_PROPERTY
W
SciTegic.value.DoubleValue
-58.180

@<SCITEGIC>MOL_PROPERTY
W(PB)
SciTegic.value.DoubleValue
-60.103

@<SCITEGIC>MOL_PROPERTY
W(SA)
SciTegic.value.DoubleValue
1.923

@<SCITEGIC>MOL_PROPERTY
Valence
SciTegic.value.DoubleValue
2.168

@<SCITEGIC>MOL_PROPERTY
Coulomb
SciTegic.value.DoubleValue
19.636

@<SCITEGIC>MOL_PROPERTY
VdW
SciTegic.value.DoubleValue
0.566

@<SCITEGIC>MOL_PROPERTY
VdW6
SciTegic.value.DoubleValue
-5.263

@<SCITEGIC>MOL_PROPERTY
VdW12
SciTegic.value.DoubleValue
5.829

@<SCITEGIC>MOL_PROPERTY
Bond
SciTegic.value.DoubleValue
0.162

@<SCITEGIC>MOL_PROPERTY
Angle
SciTegic.value.DoubleValue
1.066

@<SCITEGIC>MOL_PROPERTY
Pdih
SciTegic.value.DoubleValue
0.939

@<SCITEGIC>MOL_PROPERTY
Idih
SciTegic.value.DoubleValue
0.000

@<SCITEGIC>MOL_PROPERTY
Tether
SciTegic.value.DoubleValue
0.000

@<TRIPOS>MOLECULE
guest-s10_confgen4.mol2 : confsearch ligand conformer 497
          20          19           1
SMALL
USER_CHARGES
 
@<TRIPOS>ATOM
       1    N1      19.621484   17.130559   24.250880 N.4        1 MOL1        -0.5937
       2    H1      19.901007   17.537408   25.147729 H          1 MOL1         0.3684
       3    H2      20.355388   16.475976   23.968431 H          1 MOL1         0.3684
       4    H3      18.773355   16.582660   24.418863 H          1 MOL1         0.3684
       5    C1      19.394558   18.190638   23.207176 C.3        1 MOL1         0.1270
       6    H4      18.602888   18.837787   23.597329 H          1 MOL1         0.0960
       7    C2      18.903848   17.544560   21.898073 C.3        1 MOL1        -0.2382
       8    H5      19.651198   16.849125   21.496196 H          1 MOL1         0.1009
       9    H6      18.697862   18.297487   21.129659 H          1 MOL1         0.1009
      10    H7      17.976512   16.983931   22.067987 H          1 MOL1         0.1009
      11    C3      20.657328   19.057767   22.979733 C.3        1 MOL1        -0.1392
      12    H8      21.343459   18.922472   23.826251 H          1 MOL1         0.0998
      13    H9      21.207394   18.709859   22.095199 H          1 MOL1         0.0998
      14    C4      20.363856   20.574943   22.862109 C.3        1 MOL1        -0.1302
      15    H10     21.319466   21.111885   22.781893 H          1 MOL1         0.0998
      16    H11     19.891128   20.930539   23.788478 H          1 MOL1         0.0998
      17    C5      19.477370   20.955720   21.655715 C.3        1 MOL1        -0.2317
      18    H12     19.901541   20.576739   20.716843 H          1 MOL1         0.1009
      19    H13     19.395727   22.047012   21.569354 H          1 MOL1         0.1009
      20    H14     18.460312   20.558978   21.764429 H          1 MOL1         0.1009
@<TRIPOS>BOND
    1     1     2    1
    2     1     3    1
    3     1     4    1
    4     1     5    1
    5     5     6    1
    6     5     7    1
    7     7     8    1
    8     7     9    1
    9     7    10    1
   10     5    11    1
   11    11    12    1
   12    11    13    1
   13    11    14    1
   14    14    15    1
   15    14    16    1
   16    14    17    1
   17    17    18    1
   18    17    19    1
   19    17    20    1
@<TRIPOS>SUBSTRUCTURE
       1 MOL1            1 RESIDUE      1      MOL     
@<SCITEGIC>MOL_PROPERTY
VConf Rank
SciTegic.value.IntegerValue
497

@<SCITEGIC>MOL_PROPERTY
Conf_Id
SciTegic.value.IntegerValue
3

@<SCITEGIC>MOL_PROPERTY
Delta U+W
SciTegic.value.DoubleValue
3.093

@<SCITEGIC>MOL_PROPERTY
U+W
SciTegic.value.DoubleValue
-33.184

@<SCITEGIC>MOL_PROPERTY
Grad RMS
SciTegic.value.DoubleValue
0.000000

@<SCITEGIC>MOL_PROPERTY
U
SciTegic.value.DoubleValue
25.256

@<SCITEGIC>MOL_PROPERTY
W
SciTegic.value.DoubleValue
-58.439

@<SCITEGIC>MOL_PROPERTY
W(PB)
SciTegic.value.DoubleValue
-60.337

@<SCITEGIC>MOL_PROPERTY
W(SA)
SciTegic.value.DoubleValue
1.898

@<SCITEGIC>MOL_PROPERTY
Valence
SciTegic.value.DoubleValue
4.963

@<SCITEGIC>MOL_PROPERTY
Coulomb
SciTegic.value.DoubleValue
19.511

@<SCITEGIC>MOL_PROPERTY
VdW
SciTegic.value.DoubleValue
0.782

@<SCITEGIC>MOL_PROPERTY
VdW6
SciTegic.value.DoubleValue
-5.429

@<SCITEGIC>MOL_PROPERTY
VdW12
SciTegic.value.DoubleValue
6.211

@<SCITEGIC>MOL_PROPERTY
Bond
SciTegic.value.DoubleValue
0.174

@<SCITEGIC>MOL_PROPERTY
Angle
SciTegic.value.DoubleValue
1.377

@<SCITEGIC>MOL_PROPERTY
Pdih
SciTegic.value.DoubleValue
3.412

@<SCITEGIC>MOL_PROPERTY
Idih
SciTegic.value.DoubleValue
0.000

@<SCITEGIC>MOL_PROPERTY
Tether
SciTegic.value.DoubleValue
0.000

@<TRIPOS>MOLECULE
guest-s10_confgen4.mol2 : confsearch ligand conformer 498
          20          19           1
SMALL
USER_CHARGES
 
@<TRIPOS>ATOM
       1    N1      18.039941   19.371135   21.234896 N.4        1 MOL1        -0.5937
       2    H1      18.229763   19.770951   20.311992 H          1 MOL1         0.3684
       3    H2      17.423658   20.024200   21.726355 H          1 MOL1         0.3684
       4    H3      17.514793   18.505358   21.088833 H          1 MOL1         0.3684
       5    C1      19.310974   19.124050   22.000275 C.3        1 MOL1         0.1270
       6    H4      19.801048   20.096878   22.102885 H          1 MOL1         0.0960
       7    C2      20.242622   18.191892   21.204527 C.3        1 MOL1        -0.2382
       8    H5      21.226931   18.112681   21.680339 H          1 MOL1         0.1009
       9    H6      20.402664   18.578642   20.190651 H          1 MOL1         0.1009
      10    H7      19.818724   17.183503   21.121158 H          1 MOL1         0.1009
      11    C3      19.014192   18.577515   23.417190 C.3        1 MOL1        -0.1392
      12    H8      18.285343   19.239239   23.903428 H          1 MOL1         0.0998
      13    H9      18.526807   17.597091   23.333765 H          1 MOL1         0.0998
      14    C4      20.251100   18.450827   24.342993 C.3        1 MOL1        -0.1302
      15    H10     20.943909   17.693200   23.952748 H          1 MOL1         0.0998
      16    H11     19.920528   18.078489   25.322751 H          1 MOL1         0.0998
      17    C5      20.998398   19.789113   24.542208 C.3        1 MOL1        -0.2317
      18    H12     20.324273   20.564041   24.929762 H          1 MOL1         0.1009
      19    H13     21.434173   20.151429   23.602585 H          1 MOL1         0.1009
      20    H14     21.818463   19.668231   25.261860 H          1 MOL1         0.1009
@<TRIPOS>BOND
    1     1     2    1
    2     1     3    1
    3     1     4    1
    4     1     5    1
    5     5     6    1
    6     5     7    1
    7     7     8    1
    8     7     9    1
    9     7    10    1
   10     5    11    1
   11    11    12    1
   12    11    13    1
   13    11    14    1
   14    14    15    1
   15    14    16    1
   16    14    17    1
   17    17    18    1
   18    17    19    1
   19    17    20    1
@<TRIPOS>SUBSTRUCTURE
       1 MOL1            1 RESIDUE      1      MOL     
@<SCITEGIC>MOL_PROPERTY
VConf Rank
SciTegic.value.IntegerValue
498

@<SCITEGIC>MOL_PROPERTY
Conf_Id
SciTegic.value.IntegerValue
64

@<SCITEGIC>MOL_PROPERTY
Delta U+W
SciTegic.value.DoubleValue
0.544

@<SCITEGIC>MOL_PROPERTY
U+W
SciTegic.value.DoubleValue
-35.732

@<SCITEGIC>MOL_PROPERTY
Grad RMS
SciTegic.value.DoubleValue
0.000000

@<SCITEGIC>MOL_PROPERTY
U
SciTegic.value.DoubleValue
22.800

@<SCITEGIC>MOL_PROPERTY
W
SciTegic.value.DoubleValue
-58.532

@<SCITEGIC>MOL_PROPERTY
W(PB)
SciTegic.value.DoubleValue
-60.437

@<SCITEGIC>MOL_PROPERTY
W(SA)
SciTegic.value.DoubleValue
1.905

@<SCITEGIC>MOL_PROPERTY
Valence
SciTegic.value.DoubleValue
2.662

@<SCITEGIC>MOL_PROPERTY
Coulomb
SciTegic.value.DoubleValue
19.485

@<SCITEGIC>MOL_PROPERTY
VdW
SciTegic.value.DoubleValue
0.653

@<SCITEGIC>MOL_PROPERTY
VdW6
SciTegic.value.DoubleValue
-5.460

@<SCITEGIC>MOL_PROPERTY
VdW12
SciTegic.value.DoubleValue
6.113

@<SCITEGIC>MOL_PROPERTY
Bond
SciTegic.value.DoubleValue
0.174

@<SCITEGIC>MOL_PROPERTY
Angle
SciTegic.value.DoubleValue
1.378

@<SCITEGIC>MOL_PROPERTY
Pdih
SciTegic.value.DoubleValue
1.109

@<SCITEGIC>MOL_PROPERTY
Idih
SciTegic.value.DoubleValue
0.000

@<SCITEGIC>MOL_PROPERTY
Tether
SciTegic.value.DoubleValue
0.000

@<TRIPOS>MOLECULE
guest-s10_confgen4.mol2 : confsearch ligand conformer 499
          20          19           1
SMALL
USER_CHARGES
 
@<TRIPOS>ATOM
       1    N1      21.859822   19.229061   22.453357 N.4        1 MOL1        -0.5937
       2    H1      21.545225   19.136773   21.484965 H          1 MOL1         0.3684
       3    H2      22.684644   18.633364   22.564834 H          1 MOL1         0.3684
       4    H3      22.164420   20.197124   22.586527 H          1 MOL1         0.3684
       5    C1      20.773349   18.851916   23.424012 C.3        1 MOL1         0.1270
       6    H4      21.208192   18.971994   24.421236 H          1 MOL1         0.0960
       7    C2      20.387226   17.372094   23.266661 C.3        1 MOL1        -0.2382
       8    H5      20.067321   17.147306   22.242532 H          1 MOL1         0.1009
       9    H6      19.574741   17.104830   23.953520 H          1 MOL1         0.1009
      10    H7      21.243401   16.726533   23.497281 H          1 MOL1         0.1009
      11    C3      19.555010   19.806029   23.344911 C.3        1 MOL1        -0.1392
      12    H8      18.875196   19.598802   24.181813 H          1 MOL1         0.0998
      13    H9      19.924653   20.824970   23.519854 H          1 MOL1         0.0998
      14    C4      18.762419   19.798701   22.008135 C.3        1 MOL1        -0.1302
      15    H10     19.423609   19.570938   21.161772 H          1 MOL1         0.0998
      16    H11     18.382286   20.813703   21.825778 H          1 MOL1         0.0998
      17    C5      17.552093   18.835457   22.012430 C.3        1 MOL1        -0.2317
      18    H12     17.854966   17.791134   22.145223 H          1 MOL1         0.1009
      19    H13     17.005575   18.902616   21.062813 H          1 MOL1         0.1009
      20    H14     16.850469   19.089598   22.817526 H          1 MOL1         0.1009
@<TRIPOS>BOND
    1     1     2    1
    2     1     3    1
    3     1     4    1
    4     1     5    1
    5     5     6    1
    6     5     7    1
    7     7     8    1
    8     7     9    1
    9     7    10    1
   10     5    11    1
   11    11    12    1
   12    11    13    1
   13    11    14    1
   14    14    15    1
   15    14    16    1
   16    14    17    1
   17    17    18    1
   18    17    19    1
   19    17    20    1
@<TRIPOS>SUBSTRUCTURE
       1 MOL1            1 RESIDUE      1      MOL     
@<SCITEGIC>MOL_PROPERTY
VConf Rank
SciTegic.value.IntegerValue
499

@<SCITEGIC>MOL_PROPERTY
Conf_Id
SciTegic.value.IntegerValue
35

@<SCITEGIC>MOL_PROPERTY
Delta U+W
SciTegic.value.DoubleValue
3.004

@<SCITEGIC>MOL_PROPERTY
U+W
SciTegic.value.DoubleValue
-33.272

@<SCITEGIC>MOL_PROPERTY
Grad RMS
SciTegic.value.DoubleValue
0.000000

@<SCITEGIC>MOL_PROPERTY
U
SciTegic.value.DoubleValue
25.367

@<SCITEGIC>MOL_PROPERTY
W
SciTegic.value.DoubleValue
-58.639

@<SCITEGIC>MOL_PROPERTY
W(PB)
SciTegic.value.DoubleValue
-60.512

@<SCITEGIC>MOL_PROPERTY
W(SA)
SciTegic.value.DoubleValue
1.873

@<SCITEGIC>MOL_PROPERTY
Valence
SciTegic.value.DoubleValue
4.943

@<SCITEGIC>MOL_PROPERTY
Coulomb
SciTegic.value.DoubleValue
19.661

@<SCITEGIC>MOL_PROPERTY
VdW
SciTegic.value.DoubleValue
0.764

@<SCITEGIC>MOL_PROPERTY
VdW6
SciTegic.value.DoubleValue
-5.871

@<SCITEGIC>MOL_PROPERTY
VdW12
SciTegic.value.DoubleValue
6.636

@<SCITEGIC>MOL_PROPERTY
Bond
SciTegic.value.DoubleValue
0.230

@<SCITEGIC>MOL_PROPERTY
Angle
SciTegic.value.DoubleValue
1.857

@<SCITEGIC>MOL_PROPERTY
Pdih
SciTegic.value.DoubleValue
2.855

@<SCITEGIC>MOL_PROPERTY
Idih
SciTegic.value.DoubleValue
0.000

@<SCITEGIC>MOL_PROPERTY
Tether
SciTegic.value.DoubleValue
0.000

@<TRIPOS>MOLECULE
guest-s10_confgen4.mol2 : confsearch ligand conformer 500
          20          19           1
SMALL
USER_CHARGES
 
@<TRIPOS>ATOM
       1    N1      21.144581   19.345876   23.811507 N.4        1 MOL1        -0.5937
       2    H1      22.157553   19.486507   23.770132 H          1 MOL1         0.3684
       3    H2      20.901892   19.164722   24.789191 H          1 MOL1         0.3684
       4    H3      20.698337   20.225067   23.543390 H          1 MOL1         0.3684
       5    C1      20.706867   18.218315   22.917373 C.3        1 MOL1         0.1270
       6    H4      21.216325   17.329429   23.302421 H          1 MOL1         0.0960
       7    C2      21.186525   18.430431   21.470498 C.3        1 MOL1        -0.2382
       8    H5      20.789541   19.359474   21.044380 H          1 MOL1         0.1009
       9    H6      20.872891   17.596394   20.830627 H          1 MOL1         0.1009
      10    H7      22.281309   18.485089   21.432731 H          1 MOL1         0.1009
      11    C3      19.185192   17.933651   22.999736 C.3        1 MOL1        -0.1392
      12    H8      19.011239   16.933203   22.582141 H          1 MOL1         0.0998
      13    H9      18.893550   17.862495   24.055719 H          1 MOL1         0.0998
      14    C4      18.234044   18.924084   22.271067 C.3        1 MOL1        -0.1302
      15    H10     17.205491   18.555266   22.388860 H          1 MOL1         0.0998
      16    H11     18.428451   18.913377   21.189992 H          1 MOL1         0.0998
      17    C5      18.290872   20.377061   22.795041 C.3        1 MOL1        -0.2317
      18    H12     18.184990   20.411104   23.887181 H          1 MOL1         0.1009
      19    H13     17.473122   20.968690   22.363264 H          1 MOL1         0.1009
      20    H14     19.227836   20.871310   22.513820 H          1 MOL1         0.1009
@<TRIPOS>BOND
    1     1     2    1
    2     1     3    1
    3     1     4    1
    4     1     5    1
    5     5     6    1
    6     5     7    1
    7     7     8    1
    8     7     9    1
    9     7    10    1
   10     5    11    1
   11    11    12    1
   12    11    13    1
   13    11    14    1
   14    14    15    1
   15    14    16    1
   16    14    17    1
   17    17    18    1
   18    17    19    1
   19    17    20    1
@<TRIPOS>SUBSTRUCTURE
       1 MOL1            1 RESIDUE      1      MOL     
@<SCITEGIC>MOL_PROPERTY
VConf Rank
SciTegic.value.IntegerValue
500

@<SCITEGIC>MOL_PROPERTY
Conf_Id
SciTegic.value.IntegerValue
55

@<SCITEGIC>MOL_PROPERTY
Delta U+W
SciTegic.value.DoubleValue
2.767

@<SCITEGIC>MOL_PROPERTY
U+W
SciTegic.value.DoubleValue
-33.509

@<SCITEGIC>MOL_PROPERTY
Grad RMS
SciTegic.value.DoubleValue
0.000000

@<SCITEGIC>MOL_PROPERTY
U
SciTegic.value.DoubleValue
24.552

@<SCITEGIC>MOL_PROPERTY
W
SciTegic.value.DoubleValue
-58.061

@<SCITEGIC>MOL_PROPERTY
W(PB)
SciTegic.value.DoubleValue
-59.930

@<SCITEGIC>MOL_PROPERTY
W(SA)
SciTegic.value.DoubleValue
1.869

@<SCITEGIC>MOL_PROPERTY
Valence
SciTegic.value.DoubleValue
3.726

@<SCITEGIC>MOL_PROPERTY
Coulomb
SciTegic.value.DoubleValue
20.219

@<SCITEGIC>MOL_PROPERTY
VdW
SciTegic.value.DoubleValue
0.606

@<SCITEGIC>MOL_PROPERTY
VdW6
SciTegic.value.DoubleValue
-6.395

@<SCITEGIC>MOL_PROPERTY
VdW12
SciTegic.value.DoubleValue
7.001

@<SCITEGIC>MOL_PROPERTY
Bond
SciTegic.value.DoubleValue
0.241

@<SCITEGIC>MOL_PROPERTY
Angle
SciTegic.value.DoubleValue
2.098

@<SCITEGIC>MOL_PROPERTY
Pdih
SciTegic.value.DoubleValue
1.387

@<SCITEGIC>MOL_PROPERTY
Idih
SciTegic.value.DoubleValue
0.000

@<SCITEGIC>MOL_PROPERTY
Tether
SciTegic.value.DoubleValue
0.000

@<TRIPOS>MOLECULE
guest-s10_confgen4.mol2 : confsearch ligand conformer 501
          20          19           1
SMALL
USER_CHARGES
 
@<TRIPOS>ATOM
       1    N1      19.724922   20.645830   21.703633 N.4        1 MOL1        -0.5937
       2    H1      20.653636   20.560705   21.283170 H          1 MOL1         0.3684
       3    H2      19.492181   21.642212   21.730293 H          1 MOL1         0.3684
       4    H3      19.058599   20.195189   21.071558 H          1 MOL1         0.3684
       5    C1      19.683527   20.033582   23.077860 C.3        1 MOL1         0.1270
       6    H4      18.662402   20.163471   23.449772 H          1 MOL1         0.0960
       7    C2      20.639303   20.773809   24.027873 C.3        1 MOL1        -0.2382
       8    H5      20.393394   21.841921   24.071806 H          1 MOL1         0.1009
       9    H6      21.681380   20.676295   23.698692 H          1 MOL1         0.1009
      10    H7      20.564182   20.373674   25.046641 H          1 MOL1         0.1009
      11    C3      20.003697   18.522471   23.064283 C.3        1 MOL1        -0.1392
      12    H8      21.016832   18.362618   22.671956 H          1 MOL1         0.0998
      13    H9      20.006544   18.151770   24.098033 H          1 MOL1         0.0998
      14    C4      18.987272   17.695346   22.240715 C.3        1 MOL1        -0.1302
      15    H10     19.005925   18.009459   21.188379 H          1 MOL1         0.0998
      16    H11     17.969729   17.883887   22.611258 H          1 MOL1         0.0998
      17    C5      19.287229   16.182964   22.318371 C.3        1 MOL1        -0.2317
      18    H12     20.287659   15.958088   21.926165 H          1 MOL1         0.1009
      19    H13     18.558411   15.612333   21.728210 H          1 MOL1         0.1009
      20    H14     19.237183   15.822301   23.354059 H          1 MOL1         0.1009
@<TRIPOS>BOND
    1     1     2    1
    2     1     3    1
    3     1     4    1
    4     1     5    1
    5     5     6    1
    6     5     7    1
    7     7     8    1
    8     7     9    1
    9     7    10    1
   10     5    11    1
   11    11    12    1
   12    11    13    1
   13    11    14    1
   14    14    15    1
   15    14    16    1
   16    14    17    1
   17    17    18    1
   18    17    19    1
   19    17    20    1
@<TRIPOS>SUBSTRUCTURE
       1 MOL1            1 RESIDUE      1      MOL     
@<SCITEGIC>MOL_PROPERTY
VConf Rank
SciTegic.value.IntegerValue
501

@<SCITEGIC>MOL_PROPERTY
Conf_Id
SciTegic.value.IntegerValue
74

@<SCITEGIC>MOL_PROPERTY
Delta U+W
SciTegic.value.DoubleValue
0.000

@<SCITEGIC>MOL_PROPERTY
U+W
SciTegic.value.DoubleValue
-36.276

@<SCITEGIC>MOL_PROPERTY
Grad RMS
SciTegic.value.DoubleValue
0.000000

@<SCITEGIC>MOL_PROPERTY
U
SciTegic.value.DoubleValue
22.080

@<SCITEGIC>MOL_PROPERTY
W
SciTegic.value.DoubleValue
-58.356

@<SCITEGIC>MOL_PROPERTY
W(PB)
SciTegic.value.DoubleValue
-60.289

@<SCITEGIC>MOL_PROPERTY
W(SA)
SciTegic.value.DoubleValue
1.932

@<SCITEGIC>MOL_PROPERTY
Valence
SciTegic.value.DoubleValue
1.885

@<SCITEGIC>MOL_PROPERTY
Coulomb
SciTegic.value.DoubleValue
19.559

@<SCITEGIC>MOL_PROPERTY
VdW
SciTegic.value.DoubleValue
0.637

@<SCITEGIC>MOL_PROPERTY
VdW6
SciTegic.value.DoubleValue
-4.482

@<SCITEGIC>MOL_PROPERTY
VdW12
SciTegic.value.DoubleValue
5.119

@<SCITEGIC>MOL_PROPERTY
Bond
SciTegic.value.DoubleValue
0.136

@<SCITEGIC>MOL_PROPERTY
Angle
SciTegic.value.DoubleValue
0.867

@<SCITEGIC>MOL_PROPERTY
Pdih
SciTegic.value.DoubleValue
0.882

@<SCITEGIC>MOL_PROPERTY
Idih
SciTegic.value.DoubleValue
0.000

@<SCITEGIC>MOL_PROPERTY
Tether
SciTegic.value.DoubleValue
0.000

@<TRIPOS>MOLECULE
guest-s10_confgen4.mol2 : confsearch ligand conformer 502
          20          19           1
SMALL
USER_CHARGES
 
@<TRIPOS>ATOM
       1    N1      19.407181   17.721799   24.755141 N.4        1 MOL1        -0.5937
       2    H1      18.635782   17.097950   24.502925 H          1 MOL1         0.3684
       3    H2      19.014743   18.483917   25.313616 H          1 MOL1         0.3684
       4    H3      20.037361   17.192233   25.363510 H          1 MOL1         0.3684
       5    C1      20.123158   18.240275   23.538166 C.3        1 MOL1         0.1270
       6    H4      20.507968   17.362438   23.009782 H          1 MOL1         0.0960
       7    C2      21.317023   19.118776   23.954962 C.3        1 MOL1        -0.2382
       8    H5      21.961085   18.584244   24.663964 H          1 MOL1         0.1009
       9    H6      20.979612   20.045877   24.434772 H          1 MOL1         0.1009
      10    H7      21.937854   19.384516   23.091727 H          1 MOL1         0.1009
      11    C3      19.152262   18.986094   22.593389 C.3        1 MOL1        -0.1392
      12    H8      18.274928   18.348230   22.422864 H          1 MOL1         0.0998
      13    H9      18.783640   19.896053   23.085264 H          1 MOL1         0.0998
      14    C4      19.770201   19.348755   21.220876 C.3        1 MOL1        -0.1302
      15    H10     20.195667   18.448087   20.756285 H          1 MOL1         0.0998
      16    H11     20.596058   20.060783   21.350793 H          1 MOL1         0.0998
      17    C5      18.723068   19.968473   20.270538 C.3        1 MOL1        -0.2317
      18    H12     17.898710   19.269047   20.079550 H          1 MOL1         0.1009
      19    H13     19.178531   20.222684   19.304609 H          1 MOL1         0.1009
      20    H14     18.299626   20.888009   20.695286 H          1 MOL1         0.1009
@<TRIPOS>BOND
    1     1     2    1
    2     1     3    1
    3     1     4    1
    4     1     5    1
    5     5     6    1
    6     5     7    1
    7     7     8    1
    8     7     9    1
    9     7    10    1
   10     5    11    1
   11    11    12    1
   12    11    13    1
   13    11    14    1
   14    14    15    1
   15    14    16    1
   16    14    17    1
   17    17    18    1
   18    17    19    1
   19    17    20    1
@<TRIPOS>SUBSTRUCTURE
       1 MOL1            1 RESIDUE      1      MOL     
@<SCITEGIC>MOL_PROPERTY
VConf Rank
SciTegic.value.IntegerValue
502

@<SCITEGIC>MOL_PROPERTY
Conf_Id
SciTegic.value.IntegerValue
80

@<SCITEGIC>MOL_PROPERTY
Delta U+W
SciTegic.value.DoubleValue
0.460

@<SCITEGIC>MOL_PROPERTY
U+W
SciTegic.value.DoubleValue
-35.817

@<SCITEGIC>MOL_PROPERTY
Grad RMS
SciTegic.value.DoubleValue
0.000000

@<SCITEGIC>MOL_PROPERTY
U
SciTegic.value.DoubleValue
22.495

@<SCITEGIC>MOL_PROPERTY
W
SciTegic.value.DoubleValue
-58.311

@<SCITEGIC>MOL_PROPERTY
W(PB)
SciTegic.value.DoubleValue
-60.259

@<SCITEGIC>MOL_PROPERTY
W(SA)
SciTegic.value.DoubleValue
1.948

@<SCITEGIC>MOL_PROPERTY
Valence
SciTegic.value.DoubleValue
2.419

@<SCITEGIC>MOL_PROPERTY
Coulomb
SciTegic.value.DoubleValue
19.304

@<SCITEGIC>MOL_PROPERTY
VdW
SciTegic.value.DoubleValue
0.772

@<SCITEGIC>MOL_PROPERTY
VdW6
SciTegic.value.DoubleValue
-4.635

@<SCITEGIC>MOL_PROPERTY
VdW12
SciTegic.value.DoubleValue
5.407

@<SCITEGIC>MOL_PROPERTY
Bond
SciTegic.value.DoubleValue
0.149

@<SCITEGIC>MOL_PROPERTY
Angle
SciTegic.value.DoubleValue
1.142

@<SCITEGIC>MOL_PROPERTY
Pdih
SciTegic.value.DoubleValue
1.129

@<SCITEGIC>MOL_PROPERTY
Idih
SciTegic.value.DoubleValue
0.000

@<SCITEGIC>MOL_PROPERTY
Tether
SciTegic.value.DoubleValue
0.000

@<TRIPOS>MOLECULE
guest-s10_confgen4.mol2 : confsearch ligand conformer 503
          20          19           1
SMALL
USER_CHARGES
 
@<TRIPOS>ATOM
       1    N1      20.856883   17.014975   23.755231 N.4        1 MOL1        -0.5937
       2    H1      21.807107   16.900541   23.392202 H          1 MOL1         0.3684
       3    H2      20.269632   16.308487   23.305009 H          1 MOL1         0.3684
       4    H3      20.886409   16.794195   24.754230 H          1 MOL1         0.3684
       5    C1      20.332877   18.404121   23.513484 C.3        1 MOL1         0.1270
       6    H4      21.015553   19.083625   24.033125 H          1 MOL1         0.0960
       7    C2      18.935358   18.561836   24.136641 C.3        1 MOL1        -0.2382
       8    H5      18.935470   18.221802   25.179484 H          1 MOL1         0.1009
       9    H6      18.186324   17.977814   23.587715 H          1 MOL1         0.1009
      10    H7      18.624095   19.612596   24.141663 H          1 MOL1         0.1009
      11    C3      20.362230   18.754505   22.005603 C.3        1 MOL1        -0.1392
      12    H8      21.384470   18.576969   21.646161 H          1 MOL1         0.0998
      13    H9      19.723480   18.061242   21.442474 H          1 MOL1         0.0998
      14    C4      19.990927   20.222382   21.666317 C.3        1 MOL1        -0.1302
      15    H10     20.620666   20.558772   20.830621 H          1 MOL1         0.0998
      16    H11     20.233646   20.882937   22.510545 H          1 MOL1         0.0998
      17    C5      18.512113   20.401990   21.249324 C.3        1 MOL1        -0.2317
      18    H12     18.280327   19.802611   20.359304 H          1 MOL1         0.1009
      19    H13     18.306947   21.452281   21.004826 H          1 MOL1         0.1009
      20    H14     17.819323   20.105378   22.044689 H          1 MOL1         0.1009
@<TRIPOS>BOND
    1     1     2    1
    2     1     3    1
    3     1     4    1
    4     1     5    1
    5     5     6    1
    6     5     7    1
    7     7     8    1
    8     7     9    1
    9     7    10    1
   10     5    11    1
   11    11    12    1
   12    11    13    1
   13    11    14    1
   14    14    15    1
   15    14    16    1
   16    14    17    1
   17    17    18    1
   18    17    19    1
   19    17    20    1
@<TRIPOS>SUBSTRUCTURE
       1 MOL1            1 RESIDUE      1      MOL     
@<SCITEGIC>MOL_PROPERTY
VConf Rank
SciTegic.value.IntegerValue
503

@<SCITEGIC>MOL_PROPERTY
Conf_Id
SciTegic.value.IntegerValue
52

@<SCITEGIC>MOL_PROPERTY
Delta U+W
SciTegic.value.DoubleValue
2.995

@<SCITEGIC>MOL_PROPERTY
U+W
SciTegic.value.DoubleValue
-33.282

@<SCITEGIC>MOL_PROPERTY
Grad RMS
SciTegic.value.DoubleValue
0.000000

@<SCITEGIC>MOL_PROPERTY
U
SciTegic.value.DoubleValue
25.224

@<SCITEGIC>MOL_PROPERTY
W
SciTegic.value.DoubleValue
-58.506

@<SCITEGIC>MOL_PROPERTY
W(PB)
SciTegic.value.DoubleValue
-60.411

@<SCITEGIC>MOL_PROPERTY
W(SA)
SciTegic.value.DoubleValue
1.905

@<SCITEGIC>MOL_PROPERTY
Valence
SciTegic.value.DoubleValue
4.945

@<SCITEGIC>MOL_PROPERTY
Coulomb
SciTegic.value.DoubleValue
19.467

@<SCITEGIC>MOL_PROPERTY
VdW
SciTegic.value.DoubleValue
0.813

@<SCITEGIC>MOL_PROPERTY
VdW6
SciTegic.value.DoubleValue
-5.458

@<SCITEGIC>MOL_PROPERTY
VdW12
SciTegic.value.DoubleValue
6.270

@<SCITEGIC>MOL_PROPERTY
Bond
SciTegic.value.DoubleValue
0.200

@<SCITEGIC>MOL_PROPERTY
Angle
SciTegic.value.DoubleValue
1.675

@<SCITEGIC>MOL_PROPERTY
Pdih
SciTegic.value.DoubleValue
3.070

@<SCITEGIC>MOL_PROPERTY
Idih
SciTegic.value.DoubleValue
0.000

@<SCITEGIC>MOL_PROPERTY
Tether
SciTegic.value.DoubleValue
0.000

@<TRIPOS>MOLECULE
guest-s10_confgen4.mol2 : confsearch ligand conformer 504
          20          19           1
SMALL
USER_CHARGES
 
@<TRIPOS>ATOM
       1    N1      18.951890   20.269725   22.096935 N.4        1 MOL1        -0.5937
       2    H1      18.400407   19.863643   21.337105 H          1 MOL1         0.3684
       3    H2      19.047007   21.270608   21.905012 H          1 MOL1         0.3684
       4    H3      18.407905   20.170276   22.956688 H          1 MOL1         0.3684
       5    C1      20.293695   19.600488   22.219128 C.3        1 MOL1         0.1270
       6    H4      20.840285   20.117173   23.014119 H          1 MOL1         0.0960
       7    C2      21.080684   19.766739   20.908110 C.3        1 MOL1        -0.2382
       8    H5      20.582044   19.251571   20.077557 H          1 MOL1         0.1009
       9    H6      22.093852   19.357270   21.005434 H          1 MOL1         0.1009
      10    H7      21.176980   20.827138   20.644261 H          1 MOL1         0.1009
      11    C3      20.185345   18.103966   22.597174 C.3        1 MOL1        -0.1392
      12    H8      19.436485   17.610917   21.963387 H          1 MOL1         0.0998
      13    H9      21.141332   17.614818   22.367161 H          1 MOL1         0.0998
      14    C4      19.881305   17.831687   24.093847 C.3        1 MOL1        -0.1302
      15    H10     20.661304   18.288459   24.719143 H          1 MOL1         0.0998
      16    H11     19.952089   16.748421   24.265754 H          1 MOL1         0.0998
      17    C5      18.491331   18.310107   24.571647 C.3        1 MOL1        -0.2317
      18    H12     18.274134   17.906489   25.569247 H          1 MOL1         0.1009
      19    H13     17.696858   17.968535   23.895291 H          1 MOL1         0.1009
      20    H14     18.445461   19.402240   24.652776 H          1 MOL1         0.1009
@<TRIPOS>BOND
    1     1     2    1
    2     1     3    1
    3     1     4    1
    4     1     5    1
    5     5     6    1
    6     5     7    1
    7     7     8    1
    8     7     9    1
    9     7    10    1
   10     5    11    1
   11    11    12    1
   12    11    13    1
   13    11    14    1
   14    14    15    1
   15    14    16    1
   16    14    17    1
   17    17    18    1
   18    17    19    1
   19    17    20    1
@<TRIPOS>SUBSTRUCTURE
       1 MOL1            1 RESIDUE      1      MOL     
@<SCITEGIC>MOL_PROPERTY
VConf Rank
SciTegic.value.IntegerValue
504

@<SCITEGIC>MOL_PROPERTY
Conf_Id
SciTegic.value.IntegerValue
54

@<SCITEGIC>MOL_PROPERTY
Delta U+W
SciTegic.value.DoubleValue
2.752

@<SCITEGIC>MOL_PROPERTY
U+W
SciTegic.value.DoubleValue
-33.525

@<SCITEGIC>MOL_PROPERTY
Grad RMS
SciTegic.value.DoubleValue
0.000000

@<SCITEGIC>MOL_PROPERTY
U
SciTegic.value.DoubleValue
24.337

@<SCITEGIC>MOL_PROPERTY
W
SciTegic.value.DoubleValue
-57.862

@<SCITEGIC>MOL_PROPERTY
W(PB)
SciTegic.value.DoubleValue
-59.764

@<SCITEGIC>MOL_PROPERTY
W(SA)
SciTegic.value.DoubleValue
1.901

@<SCITEGIC>MOL_PROPERTY
Valence
SciTegic.value.DoubleValue
3.593

@<SCITEGIC>MOL_PROPERTY
Coulomb
SciTegic.value.DoubleValue
20.067

@<SCITEGIC>MOL_PROPERTY
VdW
SciTegic.value.DoubleValue
0.677

@<SCITEGIC>MOL_PROPERTY
VdW6
SciTegic.value.DoubleValue
-5.466

@<SCITEGIC>MOL_PROPERTY
VdW12
SciTegic.value.DoubleValue
6.144

@<SCITEGIC>MOL_PROPERTY
Bond
SciTegic.value.DoubleValue
0.191

@<SCITEGIC>MOL_PROPERTY
Angle
SciTegic.value.DoubleValue
1.557

@<SCITEGIC>MOL_PROPERTY
Pdih
SciTegic.value.DoubleValue
1.845

@<SCITEGIC>MOL_PROPERTY
Idih
SciTegic.value.DoubleValue
0.000

@<SCITEGIC>MOL_PROPERTY
Tether
SciTegic.value.DoubleValue
0.000

@<TRIPOS>MOLECULE
guest-s10_confgen4.mol2 : confsearch ligand conformer 505
          20          19           1
SMALL
USER_CHARGES
 
@<TRIPOS>ATOM
       1    N1      18.093203   18.009463   21.918154 N.4        1 MOL1        -0.5937
       2    H1      17.076921   17.917335   21.997767 H          1 MOL1         0.3684
       3    H2      18.453422   17.114338   21.576532 H          1 MOL1         0.3684
       4    H3      18.280682   18.711073   21.198401 H          1 MOL1         0.3684
       5    C1      18.716278   18.390767   23.233551 C.3        1 MOL1         0.1270
       6    H4      18.448694   17.595933   23.936872 H          1 MOL1         0.0960
       7    C2      18.118138   19.704030   23.768725 C.3        1 MOL1        -0.2382
       8    H5      18.576162   19.979450   24.726759 H          1 MOL1         0.1009
       9    H6      17.039702   19.594074   23.935970 H          1 MOL1         0.1009
      10    H7      18.264743   20.533088   23.066434 H          1 MOL1         0.1009
      11    C3      20.261569   18.440490   23.165316 C.3        1 MOL1        -0.1392
      12    H8      20.653226   18.634001   24.172736 H          1 MOL1         0.0998
      13    H9      20.628783   17.444239   22.885949 H          1 MOL1         0.0998
      14    C4      20.839910   19.489965   22.181208 C.3        1 MOL1        -0.1302
      15    H10     20.525466   20.500333   22.474965 H          1 MOL1         0.0998
      16    H11     20.450221   19.316206   21.169223 H          1 MOL1         0.0998
      17    C5      22.382376   19.439459   22.141505 C.3        1 MOL1        -0.2317
      18    H12     22.777025   20.188666   21.442929 H          1 MOL1         0.1009
      19    H13     22.737468   18.453855   21.813305 H          1 MOL1         0.1009
      20    H14     22.810086   19.644538   23.131570 H          1 MOL1         0.1009
@<TRIPOS>BOND
    1     1     2    1
    2     1     3    1
    3     1     4    1
    4     1     5    1
    5     5     6    1
    6     5     7    1
    7     7     8    1
    8     7     9    1
    9     7    10    1
   10     5    11    1
   11    11    12    1
   12    11    13    1
   13    11    14    1
   14    14    15    1
   15    14    16    1
   16    14    17    1
   17    17    18    1
   18    17    19    1
   19    17    20    1
@<TRIPOS>SUBSTRUCTURE
       1 MOL1            1 RESIDUE      1      MOL     
@<SCITEGIC>MOL_PROPERTY
VConf Rank
SciTegic.value.IntegerValue
505

@<SCITEGIC>MOL_PROPERTY
Conf_Id
SciTegic.value.IntegerValue
63

@<SCITEGIC>MOL_PROPERTY
Delta U+W
SciTegic.value.DoubleValue
0.420

@<SCITEGIC>MOL_PROPERTY
U+W
SciTegic.value.DoubleValue
-35.856

@<SCITEGIC>MOL_PROPERTY
Grad RMS
SciTegic.value.DoubleValue
0.000000

@<SCITEGIC>MOL_PROPERTY
U
SciTegic.value.DoubleValue
22.625

@<SCITEGIC>MOL_PROPERTY
W
SciTegic.value.DoubleValue
-58.481

@<SCITEGIC>MOL_PROPERTY
W(PB)
SciTegic.value.DoubleValue
-60.400

@<SCITEGIC>MOL_PROPERTY
W(SA)
SciTegic.value.DoubleValue
1.919

@<SCITEGIC>MOL_PROPERTY
Valence
SciTegic.value.DoubleValue
2.404

@<SCITEGIC>MOL_PROPERTY
Coulomb
SciTegic.value.DoubleValue
19.464

@<SCITEGIC>MOL_PROPERTY
VdW
SciTegic.value.DoubleValue
0.757

@<SCITEGIC>MOL_PROPERTY
VdW6
SciTegic.value.DoubleValue
-5.074

@<SCITEGIC>MOL_PROPERTY
VdW12
SciTegic.value.DoubleValue
5.830

@<SCITEGIC>MOL_PROPERTY
Bond
SciTegic.value.DoubleValue
0.172

@<SCITEGIC>MOL_PROPERTY
Angle
SciTegic.value.DoubleValue
1.207

@<SCITEGIC>MOL_PROPERTY
Pdih
SciTegic.value.DoubleValue
1.025

@<SCITEGIC>MOL_PROPERTY
Idih
SciTegic.value.DoubleValue
0.000

@<SCITEGIC>MOL_PROPERTY
Tether
SciTegic.value.DoubleValue
0.000

@<TRIPOS>MOLECULE
guest-s10_confgen4.mol2 : confsearch ligand conformer 506
          20          19           1
SMALL
USER_CHARGES
 
@<TRIPOS>ATOM
       1    N1      20.267590   18.751523   24.418764 N.4        1 MOL1        -0.5937
       2    H1      19.285757   18.868245   24.681926 H          1 MOL1         0.3684
       3    H2      20.772488   19.582631   24.736190 H          1 MOL1         0.3684
       4    H3      20.632155   17.952665   24.944559 H          1 MOL1         0.3684
       5    C1      20.415715   18.549805   22.935003 C.3        1 MOL1         0.1270
       6    H4      19.852693   17.646274   22.682484 H          1 MOL1         0.0960
       7    C2      21.888831   18.314737   22.563272 C.3        1 MOL1        -0.2382
       8    H5      22.295001   17.455037   23.110246 H          1 MOL1         0.1009
       9    H6      22.503633   19.191990   22.800335 H          1 MOL1         0.1009
      10    H7      21.991608   18.105241   21.491279 H          1 MOL1         0.1009
      11    C3      19.835679   19.726480   22.117705 C.3        1 MOL1        -0.1392
      12    H8      20.399291   20.640985   22.345418 H          1 MOL1         0.0998
      13    H9      19.990475   19.529363   21.048541 H          1 MOL1         0.0998
      14    C4      18.327468   19.986702   22.361596 C.3        1 MOL1        -0.1302
      15    H10     18.012301   20.838941   21.743323 H          1 MOL1         0.0998
      16    H11     18.157871   20.291000   23.403328 H          1 MOL1         0.0998
      17    C5      17.439748   18.767340   22.023250 C.3        1 MOL1        -0.2317
      18    H12     17.592094   18.444430   20.985127 H          1 MOL1         0.1009
      19    H13     16.378083   19.019766   22.142480 H          1 MOL1         0.1009
      20    H14     17.652878   17.915978   22.681775 H          1 MOL1         0.1009
@<TRIPOS>BOND
    1     1     2    1
    2     1     3    1
    3     1     4    1
    4     1     5    1
    5     5     6    1
    6     5     7    1
    7     7     8    1
    8     7     9    1
    9     7    10    1
   10     5    11    1
   11    11    12    1
   12    11    13    1
   13    11    14    1
   14    14    15    1
   15    14    16    1
   16    14    17    1
   17    17    18    1
   18    17    19    1
   19    17    20    1
@<TRIPOS>SUBSTRUCTURE
       1 MOL1            1 RESIDUE      1      MOL     
@<SCITEGIC>MOL_PROPERTY
VConf Rank
SciTegic.value.IntegerValue
506

@<SCITEGIC>MOL_PROPERTY
Conf_Id
SciTegic.value.IntegerValue
50

@<SCITEGIC>MOL_PROPERTY
Delta U+W
SciTegic.value.DoubleValue
0.466

@<SCITEGIC>MOL_PROPERTY
U+W
SciTegic.value.DoubleValue
-35.811

@<SCITEGIC>MOL_PROPERTY
Grad RMS
SciTegic.value.DoubleValue
0.000000

@<SCITEGIC>MOL_PROPERTY
U
SciTegic.value.DoubleValue
22.369

@<SCITEGIC>MOL_PROPERTY
W
SciTegic.value.DoubleValue
-58.180

@<SCITEGIC>MOL_PROPERTY
W(PB)
SciTegic.value.DoubleValue
-60.103

@<SCITEGIC>MOL_PROPERTY
W(SA)
SciTegic.value.DoubleValue
1.923

@<SCITEGIC>MOL_PROPERTY
Valence
SciTegic.value.DoubleValue
2.168

@<SCITEGIC>MOL_PROPERTY
Coulomb
SciTegic.value.DoubleValue
19.636

@<SCITEGIC>MOL_PROPERTY
VdW
SciTegic.value.DoubleValue
0.566

@<SCITEGIC>MOL_PROPERTY
VdW6
SciTegic.value.DoubleValue
-5.263

@<SCITEGIC>MOL_PROPERTY
VdW12
SciTegic.value.DoubleValue
5.829

@<SCITEGIC>MOL_PROPERTY
Bond
SciTegic.value.DoubleValue
0.162

@<SCITEGIC>MOL_PROPERTY
Angle
SciTegic.value.DoubleValue
1.066

@<SCITEGIC>MOL_PROPERTY
Pdih
SciTegic.value.DoubleValue
0.939

@<SCITEGIC>MOL_PROPERTY
Idih
SciTegic.value.DoubleValue
0.000

@<SCITEGIC>MOL_PROPERTY
Tether
SciTegic.value.DoubleValue
0.000

@<TRIPOS>MOLECULE
guest-s10_confgen4.mol2 : confsearch ligand conformer 507
          20          19           1
SMALL
USER_CHARGES
 
@<TRIPOS>ATOM
       1    N1      17.953701   17.563888   23.491700 N.4        1 MOL1        -0.5937
       2    H1      18.084977   17.498782   24.504875 H          1 MOL1         0.3684
       3    H2      18.111556   16.631547   23.100938 H          1 MOL1         0.3684
       4    H3      16.971019   17.799590   23.328865 H          1 MOL1         0.3684
       5    C1      18.873792   18.583910   22.877234 C.3        1 MOL1         0.1270
       6    H4      18.634141   19.538221   23.356421 H          1 MOL1         0.0960
       7    C2      18.593020   18.705091   21.367782 C.3        1 MOL1        -0.2382
       8    H5      18.775752   17.753027   20.854119 H          1 MOL1         0.1009
       9    H6      19.226519   19.466404   20.899947 H          1 MOL1         0.1009
      10    H7      17.548751   18.990270   21.190852 H          1 MOL1         0.1009
      11    C3      20.362525   18.263754   23.159025 C.3        1 MOL1        -0.1392
      12    H8      20.425282   17.547810   23.989180 H          1 MOL1         0.0998
      13    H9      20.815744   17.756648   22.296790 H          1 MOL1         0.0998
      14    C4      21.206919   19.502020   23.553335 C.3        1 MOL1        -0.1302
      15    H10     22.222227   19.167422   23.808531 H          1 MOL1         0.0998
      16    H11     20.795048   19.951364   24.467957 H          1 MOL1         0.0998
      17    C5      21.301558   20.579820   22.450781 C.3        1 MOL1        -0.2317
      18    H12     21.670343   20.152454   21.509301 H          1 MOL1         0.1009
      19    H13     21.995403   21.375640   22.751266 H          1 MOL1         0.1009
      20    H14     20.327403   21.048384   22.263433 H          1 MOL1         0.1009
@<TRIPOS>BOND
    1     1     2    1
    2     1     3    1
    3     1     4    1
    4     1     5    1
    5     5     6    1
    6     5     7    1
    7     7     8    1
    8     7     9    1
    9     7    10    1
   10     5    11    1
   11    11    12    1
   12    11    13    1
   13    11    14    1
   14    14    15    1
   15    14    16    1
   16    14    17    1
   17    17    18    1
   18    17    19    1
   19    17    20    1
@<TRIPOS>SUBSTRUCTURE
       1 MOL1            1 RESIDUE      1      MOL     
@<SCITEGIC>MOL_PROPERTY
VConf Rank
SciTegic.value.IntegerValue
507

@<SCITEGIC>MOL_PROPERTY
Conf_Id
SciTegic.value.IntegerValue
3

@<SCITEGIC>MOL_PROPERTY
Delta U+W
SciTegic.value.DoubleValue
3.093

@<SCITEGIC>MOL_PROPERTY
U+W
SciTegic.value.DoubleValue
-33.184

@<SCITEGIC>MOL_PROPERTY
Grad RMS
SciTegic.value.DoubleValue
0.000000

@<SCITEGIC>MOL_PROPERTY
U
SciTegic.value.DoubleValue
25.256

@<SCITEGIC>MOL_PROPERTY
W
SciTegic.value.DoubleValue
-58.439

@<SCITEGIC>MOL_PROPERTY
W(PB)
SciTegic.value.DoubleValue
-60.337

@<SCITEGIC>MOL_PROPERTY
W(SA)
SciTegic.value.DoubleValue
1.898

@<SCITEGIC>MOL_PROPERTY
Valence
SciTegic.value.DoubleValue
4.963

@<SCITEGIC>MOL_PROPERTY
Coulomb
SciTegic.value.DoubleValue
19.511

@<SCITEGIC>MOL_PROPERTY
VdW
SciTegic.value.DoubleValue
0.782

@<SCITEGIC>MOL_PROPERTY
VdW6
SciTegic.value.DoubleValue
-5.429

@<SCITEGIC>MOL_PROPERTY
VdW12
SciTegic.value.DoubleValue
6.211

@<SCITEGIC>MOL_PROPERTY
Bond
SciTegic.value.DoubleValue
0.174

@<SCITEGIC>MOL_PROPERTY
Angle
SciTegic.value.DoubleValue
1.377

@<SCITEGIC>MOL_PROPERTY
Pdih
SciTegic.value.DoubleValue
3.412

@<SCITEGIC>MOL_PROPERTY
Idih
SciTegic.value.DoubleValue
0.000

@<SCITEGIC>MOL_PROPERTY
Tether
SciTegic.value.DoubleValue
0.000

@<TRIPOS>MOLECULE
guest-s10_confgen4.mol2 : confsearch ligand conformer 508
          20          19           1
SMALL
USER_CHARGES
 
@<TRIPOS>ATOM
       1    N1      19.358654   19.738328   20.651385 N.4        1 MOL1        -0.5937
       2    H1      18.464416   19.671677   20.157896 H          1 MOL1         0.3684
       3    H2      20.048836   19.224133   20.097235 H          1 MOL1         0.3684
       4    H3      19.635147   20.723326   20.647601 H          1 MOL1         0.3684
       5    C1      19.256804   19.198334   22.051533 C.3        1 MOL1         0.1270
       6    H4      18.955054   18.151089   21.954990 H          1 MOL1         0.0960
       7    C2      18.165388   19.948343   22.836643 C.3        1 MOL1        -0.2382
       8    H5      17.981102   19.478097   23.809496 H          1 MOL1         0.1009
       9    H6      17.216628   19.937629   22.286303 H          1 MOL1         0.1009
      10    H7      18.447527   20.994503   23.008208 H          1 MOL1         0.1009
      11    C3      20.626066   19.245242   22.770804 C.3        1 MOL1        -0.1392
      12    H8      21.376969   18.766841   22.128308 H          1 MOL1         0.0998
      13    H9      20.942455   20.290832   22.882043 H          1 MOL1         0.0998
      14    C4      20.661206   18.555327   24.158567 C.3        1 MOL1        -0.1302
      15    H10     20.018306   19.092945   24.868441 H          1 MOL1         0.0998
      16    H11     21.680724   18.628924   24.562308 H          1 MOL1         0.0998
      17    C5      20.250103   17.066258   24.105492 C.3        1 MOL1        -0.2317
      18    H12     20.878174   16.508046   23.399034 H          1 MOL1         0.1009
      19    H13     19.202415   16.947720   23.801580 H          1 MOL1         0.1009
      20    H14     20.362334   16.600871   25.093336 H          1 MOL1         0.1009
@<TRIPOS>BOND
    1     1     2    1
    2     1     3    1
    3     1     4    1
    4     1     5    1
    5     5     6    1
    6     5     7    1
    7     7     8    1
    8     7     9    1
    9     7    10    1
   10     5    11    1
   11    11    12    1
   12    11    13    1
   13    11    14    1
   14    14    15    1
   15    14    16    1
   16    14    17    1
   17    17    18    1
   18    17    19    1
   19    17    20    1
@<TRIPOS>SUBSTRUCTURE
       1 MOL1            1 RESIDUE      1      MOL     
@<SCITEGIC>MOL_PROPERTY
VConf Rank
SciTegic.value.IntegerValue
508

@<SCITEGIC>MOL_PROPERTY
Conf_Id
SciTegic.value.IntegerValue
64

@<SCITEGIC>MOL_PROPERTY
Delta U+W
SciTegic.value.DoubleValue
0.544

@<SCITEGIC>MOL_PROPERTY
U+W
SciTegic.value.DoubleValue
-35.732

@<SCITEGIC>MOL_PROPERTY
Grad RMS
SciTegic.value.DoubleValue
0.000000

@<SCITEGIC>MOL_PROPERTY
U
SciTegic.value.DoubleValue
22.800

@<SCITEGIC>MOL_PROPERTY
W
SciTegic.value.DoubleValue
-58.532

@<SCITEGIC>MOL_PROPERTY
W(PB)
SciTegic.value.DoubleValue
-60.437

@<SCITEGIC>MOL_PROPERTY
W(SA)
SciTegic.value.DoubleValue
1.905

@<SCITEGIC>MOL_PROPERTY
Valence
SciTegic.value.DoubleValue
2.662

@<SCITEGIC>MOL_PROPERTY
Coulomb
SciTegic.value.DoubleValue
19.485

@<SCITEGIC>MOL_PROPERTY
VdW
SciTegic.value.DoubleValue
0.653

@<SCITEGIC>MOL_PROPERTY
VdW6
SciTegic.value.DoubleValue
-5.460

@<SCITEGIC>MOL_PROPERTY
VdW12
SciTegic.value.DoubleValue
6.113

@<SCITEGIC>MOL_PROPERTY
Bond
SciTegic.value.DoubleValue
0.174

@<SCITEGIC>MOL_PROPERTY
Angle
SciTegic.value.DoubleValue
1.378

@<SCITEGIC>MOL_PROPERTY
Pdih
SciTegic.value.DoubleValue
1.109

@<SCITEGIC>MOL_PROPERTY
Idih
SciTegic.value.DoubleValue
0.000

@<SCITEGIC>MOL_PROPERTY
Tether
SciTegic.value.DoubleValue
0.000

@<TRIPOS>MOLECULE
guest-s10_confgen4.mol2 : confsearch ligand conformer 509
          20          19           1
SMALL
USER_CHARGES
 
@<TRIPOS>ATOM
       1    N1      20.106909   17.310298   24.027759 N.4        1 MOL1        -0.5937
       2    H1      21.039209   17.444160   23.630052 H          1 MOL1         0.3684
       3    H2      19.900738   16.308355   23.992884 H          1 MOL1         0.3684
       4    H3      20.152913   17.576453   25.015031 H          1 MOL1         0.3684
       5    C1      19.071165   18.111428   23.285965 C.3        1 MOL1         0.1270
       6    H4      18.116951   17.893200   23.775674 H          1 MOL1         0.0960
       7    C2      18.956349   17.641406   21.826643 C.3        1 MOL1        -0.2382
       8    H5      19.919699   17.704903   21.307382 H          1 MOL1         0.1009
       9    H6      18.222826   18.244975   21.278022 H          1 MOL1         0.1009
      10    H7      18.624428   16.596827   21.785972 H          1 MOL1         0.1009
      11    C3      19.304810   19.637970   23.412536 C.3        1 MOL1        -0.1392
      12    H8      18.436052   20.174119   23.008430 H          1 MOL1         0.0998
      13    H9      19.319623   19.879686   24.483439 H          1 MOL1         0.0998
      14    C4      20.608857   20.188809   22.771239 C.3        1 MOL1        -0.1302
      15    H10     21.408834   19.437538   22.802993 H          1 MOL1         0.0998
      16    H11     20.965267   21.030930   23.380983 H          1 MOL1         0.0998
      17    C5      20.417366   20.701769   21.324536 C.3        1 MOL1        -0.2317
      18    H12     20.103519   19.905132   20.641274 H          1 MOL1         0.1009
      19    H13     21.356889   21.117392   20.937858 H          1 MOL1         0.1009
      20    H14     19.662213   21.497595   21.286505 H          1 MOL1         0.1009
@<TRIPOS>BOND
    1     1     2    1
    2     1     3    1
    3     1     4    1
    4     1     5    1
    5     5     6    1
    6     5     7    1
    7     7     8    1
    8     7     9    1
    9     7    10    1
   10     5    11    1
   11    11    12    1
   12    11    13    1
   13    11    14    1
   14    14    15    1
   15    14    16    1
   16    14    17    1
   17    17    18    1
   18    17    19    1
   19    17    20    1
@<TRIPOS>SUBSTRUCTURE
       1 MOL1            1 RESIDUE      1      MOL     
@<SCITEGIC>MOL_PROPERTY
VConf Rank
SciTegic.value.IntegerValue
509

@<SCITEGIC>MOL_PROPERTY
Conf_Id
SciTegic.value.IntegerValue
35

@<SCITEGIC>MOL_PROPERTY
Delta U+W
SciTegic.value.DoubleValue
3.004

@<SCITEGIC>MOL_PROPERTY
U+W
SciTegic.value.DoubleValue
-33.272

@<SCITEGIC>MOL_PROPERTY
Grad RMS
SciTegic.value.DoubleValue
0.000000

@<SCITEGIC>MOL_PROPERTY
U
SciTegic.value.DoubleValue
25.367

@<SCITEGIC>MOL_PROPERTY
W
SciTegic.value.DoubleValue
-58.639

@<SCITEGIC>MOL_PROPERTY
W(PB)
SciTegic.value.DoubleValue
-60.512

@<SCITEGIC>MOL_PROPERTY
W(SA)
SciTegic.value.DoubleValue
1.873

@<SCITEGIC>MOL_PROPERTY
Valence
SciTegic.value.DoubleValue
4.943

@<SCITEGIC>MOL_PROPERTY
Coulomb
SciTegic.value.DoubleValue
19.661

@<SCITEGIC>MOL_PROPERTY
VdW
SciTegic.value.DoubleValue
0.764

@<SCITEGIC>MOL_PROPERTY
VdW6
SciTegic.value.DoubleValue
-5.871

@<SCITEGIC>MOL_PROPERTY
VdW12
SciTegic.value.DoubleValue
6.636

@<SCITEGIC>MOL_PROPERTY
Bond
SciTegic.value.DoubleValue
0.230

@<SCITEGIC>MOL_PROPERTY
Angle
SciTegic.value.DoubleValue
1.857

@<SCITEGIC>MOL_PROPERTY
Pdih
SciTegic.value.DoubleValue
2.855

@<SCITEGIC>MOL_PROPERTY
Idih
SciTegic.value.DoubleValue
0.000

@<SCITEGIC>MOL_PROPERTY
Tether
SciTegic.value.DoubleValue
0.000

@<TRIPOS>MOLECULE
guest-s10_confgen4.mol2 : confsearch ligand conformer 510
          20          19           1
SMALL
USER_CHARGES
 
@<TRIPOS>ATOM
       1    N1      18.460647   19.916943   23.386295 N.4        1 MOL1        -0.5937
       2    H1      17.816408   19.866426   24.180024 H          1 MOL1         0.3684
       3    H2      18.061802   20.575276   22.711683 H          1 MOL1         0.3684
       4    H3      19.337508   20.318437   23.723806 H          1 MOL1         0.3684
       5    C1      18.683505   18.563412   22.769244 C.3        1 MOL1         0.1270
       6    H4      17.698000   18.238405   22.421281 H          1 MOL1         0.0960
       7    C2      19.159881   17.540690   23.815961 C.3        1 MOL1        -0.2382
       8    H5      20.103786   17.847797   24.281818 H          1 MOL1         0.1009
       9    H6      19.306674   16.554865   23.357680 H          1 MOL1         0.1009
      10    H7      18.413580   17.429543   24.611982 H          1 MOL1         0.1009
      11    C3      19.606075   18.608094   21.524181 C.3        1 MOL1        -0.1392
      12    H8      19.461444   17.671523   20.969691 H          1 MOL1         0.0998
      13    H9      19.256187   19.401439   20.850832 H          1 MOL1         0.0998
      14    C4      21.130773   18.782118   21.772390 C.3        1 MOL1        -0.1302
      15    H10     21.638996   18.747697   20.798558 H          1 MOL1         0.0998
      16    H11     21.524290   17.927949   22.339991 H          1 MOL1         0.0998
      17    C5      21.523499   20.100165   22.477685 C.3        1 MOL1        -0.2317
      18    H12     21.071643   20.968165   21.980148 H          1 MOL1         0.1009
      19    H13     22.612924   20.233461   22.454116 H          1 MOL1         0.1009
      20    H14     21.222986   20.099141   23.531705 H          1 MOL1         0.1009
@<TRIPOS>BOND
    1     1     2    1
    2     1     3    1
    3     1     4    1
    4     1     5    1
    5     5     6    1
    6     5     7    1
    7     7     8    1
    8     7     9    1
    9     7    10    1
   10     5    11    1
   11    11    12    1
   12    11    13    1
   13    11    14    1
   14    14    15    1
   15    14    16    1
   16    14    17    1
   17    17    18    1
   18    17    19    1
   19    17    20    1
@<TRIPOS>SUBSTRUCTURE
       1 MOL1            1 RESIDUE      1      MOL     
@<SCITEGIC>MOL_PROPERTY
VConf Rank
SciTegic.value.IntegerValue
510

@<SCITEGIC>MOL_PROPERTY
Conf_Id
SciTegic.value.IntegerValue
55

@<SCITEGIC>MOL_PROPERTY
Delta U+W
SciTegic.value.DoubleValue
2.767

@<SCITEGIC>MOL_PROPERTY
U+W
SciTegic.value.DoubleValue
-33.509

@<SCITEGIC>MOL_PROPERTY
Grad RMS
SciTegic.value.DoubleValue
0.000000

@<SCITEGIC>MOL_PROPERTY
U
SciTegic.value.DoubleValue
24.552

@<SCITEGIC>MOL_PROPERTY
W
SciTegic.value.DoubleValue
-58.061

@<SCITEGIC>MOL_PROPERTY
W(PB)
SciTegic.value.DoubleValue
-59.930

@<SCITEGIC>MOL_PROPERTY
W(SA)
SciTegic.value.DoubleValue
1.869

@<SCITEGIC>MOL_PROPERTY
Valence
SciTegic.value.DoubleValue
3.726

@<SCITEGIC>MOL_PROPERTY
Coulomb
SciTegic.value.DoubleValue
20.219

@<SCITEGIC>MOL_PROPERTY
VdW
SciTegic.value.DoubleValue
0.606

@<SCITEGIC>MOL_PROPERTY
VdW6
SciTegic.value.DoubleValue
-6.395

@<SCITEGIC>MOL_PROPERTY
VdW12
SciTegic.value.DoubleValue
7.001

@<SCITEGIC>MOL_PROPERTY
Bond
SciTegic.value.DoubleValue
0.241

@<SCITEGIC>MOL_PROPERTY
Angle
SciTegic.value.DoubleValue
2.098

@<SCITEGIC>MOL_PROPERTY
Pdih
SciTegic.value.DoubleValue
1.387

@<SCITEGIC>MOL_PROPERTY
Idih
SciTegic.value.DoubleValue
0.000

@<SCITEGIC>MOL_PROPERTY
Tether
SciTegic.value.DoubleValue
0.000

@<TRIPOS>MOLECULE
guest-s10_confgen4.mol2 : confsearch ligand conformer 511
          20          19           1
SMALL
USER_CHARGES
 
@<TRIPOS>ATOM
       1    N1      21.243662   19.685076   23.772124 N.4        1 MOL1        -0.5937
       2    H1      20.803278   20.570199   24.035114 H          1 MOL1         0.3684
       3    H2      22.256869   19.824473   23.812586 H          1 MOL1         0.3684
       4    H3      21.002998   18.996630   24.489553 H          1 MOL1         0.3684
       5    C1      20.803759   19.235055   22.405001 C.3        1 MOL1         0.1270
       6    H4      21.314143   18.287517   22.206083 H          1 MOL1         0.0960
       7    C2      21.240172   20.250211   21.335903 C.3        1 MOL1        -0.2382
       8    H5      22.326368   20.400809   21.363555 H          1 MOL1         0.1009
       9    H6      20.756279   21.222743   21.490249 H          1 MOL1         0.1009
      10    H7      20.979753   19.894896   20.331128 H          1 MOL1         0.1009
      11    C3      19.280902   18.989625   22.322415 C.3        1 MOL1        -0.1392
      12    H8      18.743632   19.921878   22.541875 H          1 MOL1         0.0998
      13    H9      19.021905   18.714737   21.291191 H          1 MOL1         0.0998
      14    C4      18.795410   17.869634   23.273960 C.3        1 MOL1        -0.1302
      15    H10     18.992513   18.146632   24.318397 H          1 MOL1         0.0998
      16    H11     19.359134   16.946661   23.077545 H          1 MOL1         0.0998
      17    C5      17.286195   17.592355   23.104581 C.3        1 MOL1        -0.2317
      18    H12     16.692732   18.489512   23.324048 H          1 MOL1         0.1009
      19    H13     16.959051   16.797288   23.787172 H          1 MOL1         0.1009
      20    H14     17.055250   17.271994   22.080244 H          1 MOL1         0.1009
@<TRIPOS>BOND
    1     1     2    1
    2     1     3    1
    3     1     4    1
    4     1     5    1
    5     5     6    1
    6     5     7    1
    7     7     8    1
    8     7     9    1
    9     7    10    1
   10     5    11    1
   11    11    12    1
   12    11    13    1
   13    11    14    1
   14    14    15    1
   15    14    16    1
   16    14    17    1
   17    17    18    1
   18    17    19    1
   19    17    20    1
@<TRIPOS>SUBSTRUCTURE
       1 MOL1            1 RESIDUE      1      MOL     
@<SCITEGIC>MOL_PROPERTY
VConf Rank
SciTegic.value.IntegerValue
511

@<SCITEGIC>MOL_PROPERTY
Conf_Id
SciTegic.value.IntegerValue
74

@<SCITEGIC>MOL_PROPERTY
Delta U+W
SciTegic.value.DoubleValue
0.000

@<SCITEGIC>MOL_PROPERTY
U+W
SciTegic.value.DoubleValue
-36.276

@<SCITEGIC>MOL_PROPERTY
Grad RMS
SciTegic.value.DoubleValue
0.000000

@<SCITEGIC>MOL_PROPERTY
U
SciTegic.value.DoubleValue
22.080

@<SCITEGIC>MOL_PROPERTY
W
SciTegic.value.DoubleValue
-58.356

@<SCITEGIC>MOL_PROPERTY
W(PB)
SciTegic.value.DoubleValue
-60.289

@<SCITEGIC>MOL_PROPERTY
W(SA)
SciTegic.value.DoubleValue
1.932

@<SCITEGIC>MOL_PROPERTY
Valence
SciTegic.value.DoubleValue
1.885

@<SCITEGIC>MOL_PROPERTY
Coulomb
SciTegic.value.DoubleValue
19.559

@<SCITEGIC>MOL_PROPERTY
VdW
SciTegic.value.DoubleValue
0.637

@<SCITEGIC>MOL_PROPERTY
VdW6
SciTegic.value.DoubleValue
-4.482

@<SCITEGIC>MOL_PROPERTY
VdW12
SciTegic.value.DoubleValue
5.119

@<SCITEGIC>MOL_PROPERTY
Bond
SciTegic.value.DoubleValue
0.136

@<SCITEGIC>MOL_PROPERTY
Angle
SciTegic.value.DoubleValue
0.867

@<SCITEGIC>MOL_PROPERTY
Pdih
SciTegic.value.DoubleValue
0.882

@<SCITEGIC>MOL_PROPERTY
Idih
SciTegic.value.DoubleValue
0.000

@<SCITEGIC>MOL_PROPERTY
Tether
SciTegic.value.DoubleValue
0.000

@<TRIPOS>MOLECULE
guest-s10_confgen4.mol2 : confsearch ligand conformer 512
          20          19           1
SMALL
USER_CHARGES
 
@<TRIPOS>ATOM
       1    N1      21.753747   19.496657   21.560565 N.4        1 MOL1        -0.5937
       2    H1      22.056870   20.335027   22.063664 H          1 MOL1         0.3684
       3    H2      21.331692   19.803353   20.680489 H          1 MOL1         0.3684
       4    H3      22.595917   18.964793   21.324877 H          1 MOL1         0.3684
       5    C1      20.794068   18.675189   22.377065 C.3        1 MOL1         0.1270
       6    H4      21.329058   18.392566   23.289082 H          1 MOL1         0.0960
       7    C2      20.412538   17.390231   21.619359 C.3        1 MOL1        -0.2382
       8    H5      21.311425   16.848848   21.299786 H          1 MOL1         0.1009
       9    H6      19.817351   17.617610   20.726257 H          1 MOL1         0.1009
      10    H7      19.833973   16.709280   22.254018 H          1 MOL1         0.1009
      11    C3      19.552628   19.503704   22.781886 C.3        1 MOL1        -0.1392
      12    H8      19.894715   20.451758   23.217584 H          1 MOL1         0.0998
      13    H9      18.973995   19.764711   21.885835 H          1 MOL1         0.0998
      14    C4      18.634697   18.794628   23.807448 C.3        1 MOL1        -0.1302
      15    H10     19.226692   18.477049   24.677365 H          1 MOL1         0.0998
      16    H11     18.201998   17.886215   23.367610 H          1 MOL1         0.0998
      17    C5      17.487990   19.715292   24.277685 C.3        1 MOL1        -0.2317
      18    H12     17.879404   20.618373   24.763974 H          1 MOL1         0.1009
      19    H13     16.845590   19.196022   25.000712 H          1 MOL1         0.1009
      20    H14     16.860109   20.026934   23.432756 H          1 MOL1         0.1009
@<TRIPOS>BOND
    1     1     2    1
    2     1     3    1
    3     1     4    1
    4     1     5    1
    5     5     6    1
    6     5     7    1
    7     7     8    1
    8     7     9    1
    9     7    10    1
   10     5    11    1
   11    11    12    1
   12    11    13    1
   13    11    14    1
   14    14    15    1
   15    14    16    1
   16    14    17    1
   17    17    18    1
   18    17    19    1
   19    17    20    1
@<TRIPOS>SUBSTRUCTURE
       1 MOL1            1 RESIDUE      1      MOL     
@<SCITEGIC>MOL_PROPERTY
VConf Rank
SciTegic.value.IntegerValue
512

@<SCITEGIC>MOL_PROPERTY
Conf_Id
SciTegic.value.IntegerValue
80

@<SCITEGIC>MOL_PROPERTY
Delta U+W
SciTegic.value.DoubleValue
0.460

@<SCITEGIC>MOL_PROPERTY
U+W
SciTegic.value.DoubleValue
-35.817

@<SCITEGIC>MOL_PROPERTY
Grad RMS
SciTegic.value.DoubleValue
0.000000

@<SCITEGIC>MOL_PROPERTY
U
SciTegic.value.DoubleValue
22.495

@<SCITEGIC>MOL_PROPERTY
W
SciTegic.value.DoubleValue
-58.311

@<SCITEGIC>MOL_PROPERTY
W(PB)
SciTegic.value.DoubleValue
-60.259

@<SCITEGIC>MOL_PROPERTY
W(SA)
SciTegic.value.DoubleValue
1.948

@<SCITEGIC>MOL_PROPERTY
Valence
SciTegic.value.DoubleValue
2.419

@<SCITEGIC>MOL_PROPERTY
Coulomb
SciTegic.value.DoubleValue
19.304

@<SCITEGIC>MOL_PROPERTY
VdW
SciTegic.value.DoubleValue
0.772

@<SCITEGIC>MOL_PROPERTY
VdW6
SciTegic.value.DoubleValue
-4.635

@<SCITEGIC>MOL_PROPERTY
VdW12
SciTegic.value.DoubleValue
5.407

@<SCITEGIC>MOL_PROPERTY
Bond
SciTegic.value.DoubleValue
0.149

@<SCITEGIC>MOL_PROPERTY
Angle
SciTegic.value.DoubleValue
1.142

@<SCITEGIC>MOL_PROPERTY
Pdih
SciTegic.value.DoubleValue
1.129

@<SCITEGIC>MOL_PROPERTY
Idih
SciTegic.value.DoubleValue
0.000

@<SCITEGIC>MOL_PROPERTY
Tether
SciTegic.value.DoubleValue
0.000

@<TRIPOS>MOLECULE
guest-s10_confgen4.mol2 : confsearch ligand conformer 513
          20          19           1
SMALL
USER_CHARGES
 
@<TRIPOS>ATOM
       1    N1      17.623454   17.778726   22.662304 N.4        1 MOL1        -0.5937
       2    H1      17.391625   17.478156   21.711660 H          1 MOL1         0.3684
       3    H2      17.079971   18.623161   22.857870 H          1 MOL1         0.3684
       4    H3      17.291827   17.049339   23.299196 H          1 MOL1         0.3684
       5    C1      19.099038   18.022011   22.824217 C.3        1 MOL1         0.1270
       6    H4      19.592364   17.070529   22.602607 H          1 MOL1         0.0960
       7    C2      19.419762   18.398804   24.280726 C.3        1 MOL1        -0.2382
       8    H5      18.971424   17.677815   24.975213 H          1 MOL1         0.1009
       9    H6      19.034364   19.395606   24.528326 H          1 MOL1         0.1009
      10    H7      20.500826   18.387712   24.460129 H          1 MOL1         0.1009
      11    C3      19.603949   19.073238   21.805727 C.3        1 MOL1        -0.1392
      12    H8      19.297798   18.736930   20.806297 H          1 MOL1         0.0998
      13    H9      19.094562   20.032600   21.966592 H          1 MOL1         0.0998
      14    C4      21.141743   19.279050   21.783910 C.3        1 MOL1        -0.1302
      15    H10     21.457660   19.449168   20.744981 H          1 MOL1         0.0998
      16    H11     21.654651   18.362575   22.107892 H          1 MOL1         0.0998
      17    C5      21.612535   20.487124   22.627679 C.3        1 MOL1        -0.2317
      18    H12     21.162772   21.419474   22.262228 H          1 MOL1         0.1009
      19    H13     22.702865   20.597714   22.564957 H          1 MOL1         0.1009
      20    H14     21.350645   20.379328   23.686138 H          1 MOL1         0.1009
@<TRIPOS>BOND
    1     1     2    1
    2     1     3    1
    3     1     4    1
    4     1     5    1
    5     5     6    1
    6     5     7    1
    7     7     8    1
    8     7     9    1
    9     7    10    1
   10     5    11    1
   11    11    12    1
   12    11    13    1
   13    11    14    1
   14    14    15    1
   15    14    16    1
   16    14    17    1
   17    17    18    1
   18    17    19    1
   19    17    20    1
@<TRIPOS>SUBSTRUCTURE
       1 MOL1            1 RESIDUE      1      MOL     
@<SCITEGIC>MOL_PROPERTY
VConf Rank
SciTegic.value.IntegerValue
513

@<SCITEGIC>MOL_PROPERTY
Conf_Id
SciTegic.value.IntegerValue
52

@<SCITEGIC>MOL_PROPERTY
Delta U+W
SciTegic.value.DoubleValue
2.995

@<SCITEGIC>MOL_PROPERTY
U+W
SciTegic.value.DoubleValue
-33.282

@<SCITEGIC>MOL_PROPERTY
Grad RMS
SciTegic.value.DoubleValue
0.000000

@<SCITEGIC>MOL_PROPERTY
U
SciTegic.value.DoubleValue
25.224

@<SCITEGIC>MOL_PROPERTY
W
SciTegic.value.DoubleValue
-58.506

@<SCITEGIC>MOL_PROPERTY
W(PB)
SciTegic.value.DoubleValue
-60.411

@<SCITEGIC>MOL_PROPERTY
W(SA)
SciTegic.value.DoubleValue
1.905

@<SCITEGIC>MOL_PROPERTY
Valence
SciTegic.value.DoubleValue
4.945

@<SCITEGIC>MOL_PROPERTY
Coulomb
SciTegic.value.DoubleValue
19.467

@<SCITEGIC>MOL_PROPERTY
VdW
SciTegic.value.DoubleValue
0.813

@<SCITEGIC>MOL_PROPERTY
VdW6
SciTegic.value.DoubleValue
-5.458

@<SCITEGIC>MOL_PROPERTY
VdW12
SciTegic.value.DoubleValue
6.270

@<SCITEGIC>MOL_PROPERTY
Bond
SciTegic.value.DoubleValue
0.200

@<SCITEGIC>MOL_PROPERTY
Angle
SciTegic.value.DoubleValue
1.675

@<SCITEGIC>MOL_PROPERTY
Pdih
SciTegic.value.DoubleValue
3.070

@<SCITEGIC>MOL_PROPERTY
Idih
SciTegic.value.DoubleValue
0.000

@<SCITEGIC>MOL_PROPERTY
Tether
SciTegic.value.DoubleValue
0.000

@<TRIPOS>MOLECULE
guest-s10_confgen4.mol2 : confsearch ligand conformer 514
          20          19           1
SMALL
USER_CHARGES
 
@<TRIPOS>ATOM
       1    N1      18.958005   20.417559   22.927390 N.4        1 MOL1        -0.5937
       2    H1      19.569926   21.120061   22.504990 H          1 MOL1         0.3684
       3    H2      18.328089   20.906469   23.569122 H          1 MOL1         0.3684
       4    H3      18.387715   20.018706   22.178610 H          1 MOL1         0.3684
       5    C1      19.751483   19.353490   23.635485 C.3        1 MOL1         0.1270
       6    H4      19.032878   18.670742   24.099379 H          1 MOL1         0.0960
       7    C2      20.598753   19.989896   24.750330 C.3        1 MOL1        -0.2382
       8    H5      21.349614   20.674685   24.336652 H          1 MOL1         0.1009
       9    H6      21.121437   19.220440   25.332040 H          1 MOL1         0.1009
      10    H7      19.965667   20.555762   25.444831 H          1 MOL1         0.1009
      11    C3      20.648844   18.536079   22.675894 C.3        1 MOL1        -0.1392
      12    H8      21.201798   19.213641   22.012022 H          1 MOL1         0.0998
      13    H9      21.409438   18.011617   23.269629 H          1 MOL1         0.0998
      14    C4      19.900762   17.463295   21.841559 C.3        1 MOL1        -0.1302
      15    H10     19.388765   16.761376   22.514764 H          1 MOL1         0.0998
      16    H11     20.649090   16.869388   21.298138 H          1 MOL1         0.0998
      17    C5      18.889336   18.026186   20.817168 C.3        1 MOL1        -0.2317
      18    H12     18.557190   17.231196   20.136758 H          1 MOL1         0.1009
      19    H13     19.339138   18.819588   20.206014 H          1 MOL1         0.1009
      20    H14     17.992464   18.420094   21.308998 H          1 MOL1         0.1009
@<TRIPOS>BOND
    1     1     2    1
    2     1     3    1
    3     1     4    1
    4     1     5    1
    5     5     6    1
    6     5     7    1
    7     7     8    1
    8     7     9    1
    9     7    10    1
   10     5    11    1
   11    11    12    1
   12    11    13    1
   13    11    14    1
   14    14    15    1
   15    14    16    1
   16    14    17    1
   17    17    18    1
   18    17    19    1
   19    17    20    1
@<TRIPOS>SUBSTRUCTURE
       1 MOL1            1 RESIDUE      1      MOL     
@<SCITEGIC>MOL_PROPERTY
VConf Rank
SciTegic.value.IntegerValue
514

@<SCITEGIC>MOL_PROPERTY
Conf_Id
SciTegic.value.IntegerValue
54

@<SCITEGIC>MOL_PROPERTY
Delta U+W
SciTegic.value.DoubleValue
2.752

@<SCITEGIC>MOL_PROPERTY
U+W
SciTegic.value.DoubleValue
-33.525

@<SCITEGIC>MOL_PROPERTY
Grad RMS
SciTegic.value.DoubleValue
0.000000

@<SCITEGIC>MOL_PROPERTY
U
SciTegic.value.DoubleValue
24.337

@<SCITEGIC>MOL_PROPERTY
W
SciTegic.value.DoubleValue
-57.862

@<SCITEGIC>MOL_PROPERTY
W(PB)
SciTegic.value.DoubleValue
-59.764

@<SCITEGIC>MOL_PROPERTY
W(SA)
SciTegic.value.DoubleValue
1.901

@<SCITEGIC>MOL_PROPERTY
Valence
SciTegic.value.DoubleValue
3.593

@<SCITEGIC>MOL_PROPERTY
Coulomb
SciTegic.value.DoubleValue
20.067

@<SCITEGIC>MOL_PROPERTY
VdW
SciTegic.value.DoubleValue
0.677

@<SCITEGIC>MOL_PROPERTY
VdW6
SciTegic.value.DoubleValue
-5.466

@<SCITEGIC>MOL_PROPERTY
VdW12
SciTegic.value.DoubleValue
6.144

@<SCITEGIC>MOL_PROPERTY
Bond
SciTegic.value.DoubleValue
0.191

@<SCITEGIC>MOL_PROPERTY
Angle
SciTegic.value.DoubleValue
1.557

@<SCITEGIC>MOL_PROPERTY
Pdih
SciTegic.value.DoubleValue
1.845

@<SCITEGIC>MOL_PROPERTY
Idih
SciTegic.value.DoubleValue
0.000

@<SCITEGIC>MOL_PROPERTY
Tether
SciTegic.value.DoubleValue
0.000

@<TRIPOS>MOLECULE
guest-s10_confgen4.mol2 : confsearch ligand conformer 515
          20          19           1
SMALL
USER_CHARGES
 
@<TRIPOS>ATOM
       1    N1      19.275053   18.429312   24.635819 N.4        1 MOL1        -0.5937
       2    H1      19.270438   17.659999   25.310941 H          1 MOL1         0.3684
       3    H2      18.494607   19.047204   24.874198 H          1 MOL1         0.3684
       4    H3      20.139346   18.956381   24.779496 H          1 MOL1         0.3684
       5    C1      19.168062   17.922802   23.223060 C.3        1 MOL1         0.1270
       6    H4      18.229006   17.362752   23.172658 H          1 MOL1         0.0960
       7    C2      20.310015   16.943169   22.898859 C.3        1 MOL1        -0.2382
       8    H5      20.229477   16.577615   21.867668 H          1 MOL1         0.1009
       9    H6      20.268269   16.071968   23.563955 H          1 MOL1         0.1009
      10    H7      21.293867   17.411029   23.022081 H          1 MOL1         0.1009
      11    C3      19.073423   19.069234   22.187788 C.3        1 MOL1        -0.1392
      12    H8      18.907256   18.633962   21.193472 H          1 MOL1         0.0998
      13    H9      18.177511   19.663873   22.409492 H          1 MOL1         0.0998
      14    C4      20.306613   20.007791   22.135865 C.3        1 MOL1        -0.1302
      15    H10     21.205932   19.439119   21.864109 H          1 MOL1         0.0998
      16    H11     20.492660   20.444801   23.126102 H          1 MOL1         0.0998
      17    C5      20.108703   21.146856   21.112786 C.3        1 MOL1        -0.2317
      18    H12     20.989766   21.801118   21.085659 H          1 MOL1         0.1009
      19    H13     19.239075   21.764683   21.372127 H          1 MOL1         0.1009
      20    H14     19.954998   20.747634   20.101737 H          1 MOL1         0.1009
@<TRIPOS>BOND
    1     1     2    1
    2     1     3    1
    3     1     4    1
    4     1     5    1
    5     5     6    1
    6     5     7    1
    7     7     8    1
    8     7     9    1
    9     7    10    1
   10     5    11    1
   11    11    12    1
   12    11    13    1
   13    11    14    1
   14    14    15    1
   15    14    16    1
   16    14    17    1
   17    17    18    1
   18    17    19    1
   19    17    20    1
@<TRIPOS>SUBSTRUCTURE
       1 MOL1            1 RESIDUE      1      MOL     
@<SCITEGIC>MOL_PROPERTY
VConf Rank
SciTegic.value.IntegerValue
515

@<SCITEGIC>MOL_PROPERTY
Conf_Id
SciTegic.value.IntegerValue
63

@<SCITEGIC>MOL_PROPERTY
Delta U+W
SciTegic.value.DoubleValue
0.420

@<SCITEGIC>MOL_PROPERTY
U+W
SciTegic.value.DoubleValue
-35.856

@<SCITEGIC>MOL_PROPERTY
Grad RMS
SciTegic.value.DoubleValue
0.000000

@<SCITEGIC>MOL_PROPERTY
U
SciTegic.value.DoubleValue
22.625

@<SCITEGIC>MOL_PROPERTY
W
SciTegic.value.DoubleValue
-58.481

@<SCITEGIC>MOL_PROPERTY
W(PB)
SciTegic.value.DoubleValue
-60.400

@<SCITEGIC>MOL_PROPERTY
W(SA)
SciTegic.value.DoubleValue
1.919

@<SCITEGIC>MOL_PROPERTY
Valence
SciTegic.value.DoubleValue
2.404

@<SCITEGIC>MOL_PROPERTY
Coulomb
SciTegic.value.DoubleValue
19.464

@<SCITEGIC>MOL_PROPERTY
VdW
SciTegic.value.DoubleValue
0.757

@<SCITEGIC>MOL_PROPERTY
VdW6
SciTegic.value.DoubleValue
-5.074

@<SCITEGIC>MOL_PROPERTY
VdW12
SciTegic.value.DoubleValue
5.830

@<SCITEGIC>MOL_PROPERTY
Bond
SciTegic.value.DoubleValue
0.172

@<SCITEGIC>MOL_PROPERTY
Angle
SciTegic.value.DoubleValue
1.207

@<SCITEGIC>MOL_PROPERTY
Pdih
SciTegic.value.DoubleValue
1.025

@<SCITEGIC>MOL_PROPERTY
Idih
SciTegic.value.DoubleValue
0.000

@<SCITEGIC>MOL_PROPERTY
Tether
SciTegic.value.DoubleValue
0.000

@<TRIPOS>MOLECULE
guest-s10_confgen4.mol2 : confsearch ligand conformer 516
          20          19           1
SMALL
USER_CHARGES
 
@<TRIPOS>ATOM
       1    N1      20.830440   19.891502   23.758137 N.4        1 MOL1        -0.5937
       2    H1      21.117612   20.318918   22.873987 H          1 MOL1         0.3684
       3    H2      21.593422   19.285383   24.069423 H          1 MOL1         0.3684
       4    H3      20.737612   20.644054   24.445591 H          1 MOL1         0.3684
       5    C1      19.545394   19.124270   23.602613 C.3        1 MOL1         0.1270
       6    H4      18.788267   19.842024   23.272891 H          1 MOL1         0.0960
       7    C2      19.095062   18.540011   24.951447 C.3        1 MOL1        -0.2382
       8    H5      18.980321   19.333872   25.699682 H          1 MOL1         0.1009
       9    H6      19.823226   17.813449   25.333073 H          1 MOL1         0.1009
      10    H7      18.126791   18.033663   24.853036 H          1 MOL1         0.1009
      11    C3      19.649100   18.006765   22.539876 C.3        1 MOL1        -0.1392
      12    H8      20.393735   17.266432   22.861216 H          1 MOL1         0.0998
      13    H9      18.690311   17.473979   22.487053 H          1 MOL1         0.0998
      14    C4      20.015752   18.511501   21.121177 C.3        1 MOL1        -0.1302
      15    H10     20.069383   17.648399   20.442885 H          1 MOL1         0.0998
      16    H11     21.020321   18.955798   21.123671 H          1 MOL1         0.0998
      17    C5      18.997028   19.528441   20.557792 C.3        1 MOL1        -0.2317
      18    H12     17.983787   19.106107   20.545325 H          1 MOL1         0.1009
      19    H13     19.257524   19.802935   19.527324 H          1 MOL1         0.1009
      20    H14     18.976269   20.451631   21.150402 H          1 MOL1         0.1009
@<TRIPOS>BOND
    1     1     2    1
    2     1     3    1
    3     1     4    1
    4     1     5    1
    5     5     6    1
    6     5     7    1
    7     7     8    1
    8     7     9    1
    9     7    10    1
   10     5    11    1
   11    11    12    1
   12    11    13    1
   13    11    14    1
   14    14    15    1
   15    14    16    1
   16    14    17    1
   17    17    18    1
   18    17    19    1
   19    17    20    1
@<TRIPOS>SUBSTRUCTURE
       1 MOL1            1 RESIDUE      1      MOL     
@<SCITEGIC>MOL_PROPERTY
VConf Rank
SciTegic.value.IntegerValue
516

@<SCITEGIC>MOL_PROPERTY
Conf_Id
SciTegic.value.IntegerValue
50

@<SCITEGIC>MOL_PROPERTY
Delta U+W
SciTegic.value.DoubleValue
0.466

@<SCITEGIC>MOL_PROPERTY
U+W
SciTegic.value.DoubleValue
-35.811

@<SCITEGIC>MOL_PROPERTY
Grad RMS
SciTegic.value.DoubleValue
0.000000

@<SCITEGIC>MOL_PROPERTY
U
SciTegic.value.DoubleValue
22.369

@<SCITEGIC>MOL_PROPERTY
W
SciTegic.value.DoubleValue
-58.180

@<SCITEGIC>MOL_PROPERTY
W(PB)
SciTegic.value.DoubleValue
-60.103

@<SCITEGIC>MOL_PROPERTY
W(SA)
SciTegic.value.DoubleValue
1.923

@<SCITEGIC>MOL_PROPERTY
Valence
SciTegic.value.DoubleValue
2.168

@<SCITEGIC>MOL_PROPERTY
Coulomb
SciTegic.value.DoubleValue
19.636

@<SCITEGIC>MOL_PROPERTY
VdW
SciTegic.value.DoubleValue
0.566

@<SCITEGIC>MOL_PROPERTY
VdW6
SciTegic.value.DoubleValue
-5.263

@<SCITEGIC>MOL_PROPERTY
VdW12
SciTegic.value.DoubleValue
5.829

@<SCITEGIC>MOL_PROPERTY
Bond
SciTegic.value.DoubleValue
0.162

@<SCITEGIC>MOL_PROPERTY
Angle
SciTegic.value.DoubleValue
1.066

@<SCITEGIC>MOL_PROPERTY
Pdih
SciTegic.value.DoubleValue
0.939

@<SCITEGIC>MOL_PROPERTY
Idih
SciTegic.value.DoubleValue
0.000

@<SCITEGIC>MOL_PROPERTY
Tether
SciTegic.value.DoubleValue
0.000

@<TRIPOS>MOLECULE
guest-s10_confgen4.mol2 : confsearch ligand conformer 517
          20          19           1
SMALL
USER_CHARGES
 
@<TRIPOS>ATOM
       1    N1      21.736103   19.694873   22.036481 N.4        1 MOL1        -0.5937
       2    H1      21.818905   19.359076   21.072956 H          1 MOL1         0.3684
       3    H2      22.452538   19.218674   22.590401 H          1 MOL1         0.3684
       4    H3      21.969037   20.691586   22.030173 H          1 MOL1         0.3684
       5    C1      20.358030   19.454907   22.591379 C.3        1 MOL1         0.1270
       6    H4      19.667576   19.995791   21.936795 H          1 MOL1         0.0960
       7    C2      20.252754   20.040580   24.011896 C.3        1 MOL1        -0.2382
       8    H5      20.964635   19.557133   24.692463 H          1 MOL1         0.1009
       9    H6      19.248052   19.909900   24.428172 H          1 MOL1         0.1009
      10    H7      20.469332   21.115824   24.003369 H          1 MOL1         0.1009
      11    C3      19.975541   17.954578   22.560611 C.3        1 MOL1        -0.1392
      12    H8      20.648795   17.426080   21.872795 H          1 MOL1         0.0998
      13    H9      20.139997   17.496480   23.545047 H          1 MOL1         0.0998
      14    C4      18.525652   17.686299   22.083506 C.3        1 MOL1        -0.1302
      15    H10     18.372733   16.599800   22.019734 H          1 MOL1         0.0998
      16    H11     18.397482   18.072702   21.062552 H          1 MOL1         0.0998
      17    C5      17.437110   18.288189   22.999498 C.3        1 MOL1        -0.2317
      18    H12     17.563542   17.954366   24.037576 H          1 MOL1         0.1009
      19    H13     16.439328   17.974292   22.666420 H          1 MOL1         0.1009
      20    H14     17.458539   19.384916   22.980506 H          1 MOL1         0.1009
@<TRIPOS>BOND
    1     1     2    1
    2     1     3    1
    3     1     4    1
    4     1     5    1
    5     5     6    1
    6     5     7    1
    7     7     8    1
    8     7     9    1
    9     7    10    1
   10     5    11    1
   11    11    12    1
   12    11    13    1
   13    11    14    1
   14    14    15    1
   15    14    16    1
   16    14    17    1
   17    17    18    1
   18    17    19    1
   19    17    20    1
@<TRIPOS>SUBSTRUCTURE
       1 MOL1            1 RESIDUE      1      MOL     
@<SCITEGIC>MOL_PROPERTY
VConf Rank
SciTegic.value.IntegerValue
517

@<SCITEGIC>MOL_PROPERTY
Conf_Id
SciTegic.value.IntegerValue
3

@<SCITEGIC>MOL_PROPERTY
Delta U+W
SciTegic.value.DoubleValue
3.093

@<SCITEGIC>MOL_PROPERTY
U+W
SciTegic.value.DoubleValue
-33.184

@<SCITEGIC>MOL_PROPERTY
Grad RMS
SciTegic.value.DoubleValue
0.000000

@<SCITEGIC>MOL_PROPERTY
U
SciTegic.value.DoubleValue
25.256

@<SCITEGIC>MOL_PROPERTY
W
SciTegic.value.DoubleValue
-58.439

@<SCITEGIC>MOL_PROPERTY
W(PB)
SciTegic.value.DoubleValue
-60.337

@<SCITEGIC>MOL_PROPERTY
W(SA)
SciTegic.value.DoubleValue
1.898

@<SCITEGIC>MOL_PROPERTY
Valence
SciTegic.value.DoubleValue
4.963

@<SCITEGIC>MOL_PROPERTY
Coulomb
SciTegic.value.DoubleValue
19.511

@<SCITEGIC>MOL_PROPERTY
VdW
SciTegic.value.DoubleValue
0.782

@<SCITEGIC>MOL_PROPERTY
VdW6
SciTegic.value.DoubleValue
-5.429

@<SCITEGIC>MOL_PROPERTY
VdW12
SciTegic.value.DoubleValue
6.211

@<SCITEGIC>MOL_PROPERTY
Bond
SciTegic.value.DoubleValue
0.174

@<SCITEGIC>MOL_PROPERTY
Angle
SciTegic.value.DoubleValue
1.377

@<SCITEGIC>MOL_PROPERTY
Pdih
SciTegic.value.DoubleValue
3.412

@<SCITEGIC>MOL_PROPERTY
Idih
SciTegic.value.DoubleValue
0.000

@<SCITEGIC>MOL_PROPERTY
Tether
SciTegic.value.DoubleValue
0.000

@<TRIPOS>MOLECULE
guest-s10_confgen4.mol2 : confsearch ligand conformer 518
          20          19           1
SMALL
USER_CHARGES
 
@<TRIPOS>ATOM
       1    N1      17.456795   19.150830   22.283693 N.4        1 MOL1        -0.5937
       2    H1      16.904971   19.971875   22.546391 H          1 MOL1         0.3684
       3    H2      17.035630   18.342054   22.748809 H          1 MOL1         0.3684
       4    H3      17.343027   19.018062   21.275669 H          1 MOL1         0.3684
       5    C1      18.903794   19.316343   22.659433 C.3        1 MOL1         0.1270
       6    H4      18.924807   19.454974   23.744531 H          1 MOL1         0.0960
       7    C2      19.488257   20.577093   21.996853 C.3        1 MOL1        -0.2382
       8    H5      20.497142   20.790377   22.368601 H          1 MOL1         0.1009
       9    H6      18.868274   21.454005   22.219967 H          1 MOL1         0.1009
      10    H7      19.539860   20.465222   20.906756 H          1 MOL1         0.1009
      11    C3      19.720277   18.047638   22.315672 C.3        1 MOL1        -0.1392
      12    H8      19.212041   17.175201   22.747036 H          1 MOL1         0.0998
      13    H9      19.715202   17.895848   21.228166 H          1 MOL1         0.0998
      14    C4      21.186513   18.055718   22.818850 C.3        1 MOL1        -0.1302
      15    H10     21.762177   18.837046   22.304641 H          1 MOL1         0.0998
      16    H11     21.659076   17.103205   22.540926 H          1 MOL1         0.0998
      17    C5      21.301009   18.243692   24.348787 C.3        1 MOL1        -0.2317
      18    H12     20.730273   17.474388   24.885061 H          1 MOL1         0.1009
      19    H13     20.930764   19.227680   24.663033 H          1 MOL1         0.1009
      20    H14     22.348416   18.167215   24.668328 H          1 MOL1         0.1009
@<TRIPOS>BOND
    1     1     2    1
    2     1     3    1
    3     1     4    1
    4     1     5    1
    5     5     6    1
    6     5     7    1
    7     7     8    1
    8     7     9    1
    9     7    10    1
   10     5    11    1
   11    11    12    1
   12    11    13    1
   13    11    14    1
   14    14    15    1
   15    14    16    1
   16    14    17    1
   17    17    18    1
   18    17    19    1
   19    17    20    1
@<TRIPOS>SUBSTRUCTURE
       1 MOL1            1 RESIDUE      1      MOL     
@<SCITEGIC>MOL_PROPERTY
VConf Rank
SciTegic.value.IntegerValue
518

@<SCITEGIC>MOL_PROPERTY
Conf_Id
SciTegic.value.IntegerValue
64

@<SCITEGIC>MOL_PROPERTY
Delta U+W
SciTegic.value.DoubleValue
0.544

@<SCITEGIC>MOL_PROPERTY
U+W
SciTegic.value.DoubleValue
-35.732

@<SCITEGIC>MOL_PROPERTY
Grad RMS
SciTegic.value.DoubleValue
0.000000

@<SCITEGIC>MOL_PROPERTY
U
SciTegic.value.DoubleValue
22.800

@<SCITEGIC>MOL_PROPERTY
W
SciTegic.value.DoubleValue
-58.532

@<SCITEGIC>MOL_PROPERTY
W(PB)
SciTegic.value.DoubleValue
-60.437

@<SCITEGIC>MOL_PROPERTY
W(SA)
SciTegic.value.DoubleValue
1.905

@<SCITEGIC>MOL_PROPERTY
Valence
SciTegic.value.DoubleValue
2.662

@<SCITEGIC>MOL_PROPERTY
Coulomb
SciTegic.value.DoubleValue
19.485

@<SCITEGIC>MOL_PROPERTY
VdW
SciTegic.value.DoubleValue
0.653

@<SCITEGIC>MOL_PROPERTY
VdW6
SciTegic.value.DoubleValue
-5.460

@<SCITEGIC>MOL_PROPERTY
VdW12
SciTegic.value.DoubleValue
6.113

@<SCITEGIC>MOL_PROPERTY
Bond
SciTegic.value.DoubleValue
0.174

@<SCITEGIC>MOL_PROPERTY
Angle
SciTegic.value.DoubleValue
1.378

@<SCITEGIC>MOL_PROPERTY
Pdih
SciTegic.value.DoubleValue
1.109

@<SCITEGIC>MOL_PROPERTY
Idih
SciTegic.value.DoubleValue
0.000

@<SCITEGIC>MOL_PROPERTY
Tether
SciTegic.value.DoubleValue
0.000

@<TRIPOS>MOLECULE
guest-s10_confgen4.mol2 : confsearch ligand conformer 519
          20          19           1
SMALL
USER_CHARGES
 
@<TRIPOS>ATOM
       1    N1      18.520921   17.689780   23.860927 N.4        1 MOL1        -0.5937
       2    H1      18.893371   18.331882   24.563962 H          1 MOL1         0.3684
       3    H2      18.603641   16.741968   24.238316 H          1 MOL1         0.3684
       4    H3      17.522251   17.890183   23.760148 H          1 MOL1         0.3684
       5    C1      19.247982   17.825673   22.550298 C.3        1 MOL1         0.1270
       6    H4      18.787760   17.096744   21.875894 H          1 MOL1         0.0960
       7    C2      20.728445   17.439818   22.702183 C.3        1 MOL1        -0.2382
       8    H5      21.224746   18.046004   23.468951 H          1 MOL1         0.1009
       9    H6      21.265027   17.567387   21.753951 H          1 MOL1         0.1009
      10    H7      20.821371   16.387710   22.997825 H          1 MOL1         0.1009
      11    C3      19.050237   19.222100   21.908560 C.3        1 MOL1        -0.1392
      12    H8      19.448160   19.212324   20.885301 H          1 MOL1         0.0998
      13    H9      17.969732   19.381011   21.795704 H          1 MOL1         0.0998
      14    C4      19.640252   20.427800   22.691755 C.3        1 MOL1        -0.1302
      15    H10     19.625028   20.238000   23.773015 H          1 MOL1         0.0998
      16    H11     18.987243   21.297245   22.531664 H          1 MOL1         0.0998
      17    C5      21.066804   20.819831   22.240083 C.3        1 MOL1        -0.2317
      18    H12     21.790397   20.015203   22.410274 H          1 MOL1         0.1009
      19    H13     21.415804   21.700571   22.794575 H          1 MOL1         0.1009
      20    H14     21.085443   21.071710   21.171789 H          1 MOL1         0.1009
@<TRIPOS>BOND
    1     1     2    1
    2     1     3    1
    3     1     4    1
    4     1     5    1
    5     5     6    1
    6     5     7    1
    7     7     8    1
    8     7     9    1
    9     7    10    1
   10     5    11    1
   11    11    12    1
   12    11    13    1
   13    11    14    1
   14    14    15    1
   15    14    16    1
   16    14    17    1
   17    17    18    1
   18    17    19    1
   19    17    20    1
@<TRIPOS>SUBSTRUCTURE
       1 MOL1            1 RESIDUE      1      MOL     
@<SCITEGIC>MOL_PROPERTY
VConf Rank
SciTegic.value.IntegerValue
519

@<SCITEGIC>MOL_PROPERTY
Conf_Id
SciTegic.value.IntegerValue
35

@<SCITEGIC>MOL_PROPERTY
Delta U+W
SciTegic.value.DoubleValue
3.004

@<SCITEGIC>MOL_PROPERTY
U+W
SciTegic.value.DoubleValue
-33.272

@<SCITEGIC>MOL_PROPERTY
Grad RMS
SciTegic.value.DoubleValue
0.000000

@<SCITEGIC>MOL_PROPERTY
U
SciTegic.value.DoubleValue
25.367

@<SCITEGIC>MOL_PROPERTY
W
SciTegic.value.DoubleValue
-58.639

@<SCITEGIC>MOL_PROPERTY
W(PB)
SciTegic.value.DoubleValue
-60.512

@<SCITEGIC>MOL_PROPERTY
W(SA)
SciTegic.value.DoubleValue
1.873

@<SCITEGIC>MOL_PROPERTY
Valence
SciTegic.value.DoubleValue
4.943

@<SCITEGIC>MOL_PROPERTY
Coulomb
SciTegic.value.DoubleValue
19.661

@<SCITEGIC>MOL_PROPERTY
VdW
SciTegic.value.DoubleValue
0.764

@<SCITEGIC>MOL_PROPERTY
VdW6
SciTegic.value.DoubleValue
-5.871

@<SCITEGIC>MOL_PROPERTY
VdW12
SciTegic.value.DoubleValue
6.636

@<SCITEGIC>MOL_PROPERTY
Bond
SciTegic.value.DoubleValue
0.230

@<SCITEGIC>MOL_PROPERTY
Angle
SciTegic.value.DoubleValue
1.857

@<SCITEGIC>MOL_PROPERTY
Pdih
SciTegic.value.DoubleValue
2.855

@<SCITEGIC>MOL_PROPERTY
Idih
SciTegic.value.DoubleValue
0.000

@<SCITEGIC>MOL_PROPERTY
Tether
SciTegic.value.DoubleValue
0.000

@<TRIPOS>MOLECULE
guest-s10_confgen4.mol2 : confsearch ligand conformer 520
          20          19           1
SMALL
USER_CHARGES
 
@<TRIPOS>ATOM
       1    N1      18.217364   19.052991   23.504975 N.4        1 MOL1        -0.5937
       2    H1      17.795942   19.507024   24.319751 H          1 MOL1         0.3684
       3    H2      17.599756   18.284034   23.231395 H          1 MOL1         0.3684
       4    H3      18.220292   19.730068   22.739759 H          1 MOL1         0.3684
       5    C1      19.607742   18.563037   23.803734 C.3        1 MOL1         0.1270
       6    H4      19.489892   17.832569   24.610241 H          1 MOL1         0.0960
       7    C2      20.499647   19.697015   24.339562 C.3        1 MOL1        -0.2382
       8    H5      20.589427   20.517201   23.617393 H          1 MOL1         0.1009
       9    H6      21.506744   19.325664   24.566003 H          1 MOL1         0.1009
      10    H7      20.081436   20.109848   25.265649 H          1 MOL1         0.1009
      11    C3      20.256769   17.813786   22.611804 C.3        1 MOL1        -0.1392
      12    H8      21.103018   17.234771   23.004419 H          1 MOL1         0.0998
      13    H9      19.546309   17.068387   22.231219 H          1 MOL1         0.0998
      14    C4      20.779443   18.674850   21.427753 C.3        1 MOL1        -0.1302
      15    H10     21.245550   17.999219   20.696937 H          1 MOL1         0.0998
      16    H11     21.583999   19.341198   21.767313 H          1 MOL1         0.0998
      17    C5      19.693177   19.499919   20.700972 C.3        1 MOL1        -0.2317
      18    H12     18.835041   18.873323   20.425070 H          1 MOL1         0.1009
      19    H13     20.099394   19.932518   19.777383 H          1 MOL1         0.1009
      20    H14     19.339666   20.334121   21.317740 H          1 MOL1         0.1009
@<TRIPOS>BOND
    1     1     2    1
    2     1     3    1
    3     1     4    1
    4     1     5    1
    5     5     6    1
    6     5     7    1
    7     7     8    1
    8     7     9    1
    9     7    10    1
   10     5    11    1
   11    11    12    1
   12    11    13    1
   13    11    14    1
   14    14    15    1
   15    14    16    1
   16    14    17    1
   17    17    18    1
   18    17    19    1
   19    17    20    1
@<TRIPOS>SUBSTRUCTURE
       1 MOL1            1 RESIDUE      1      MOL     
@<SCITEGIC>MOL_PROPERTY
VConf Rank
SciTegic.value.IntegerValue
520

@<SCITEGIC>MOL_PROPERTY
Conf_Id
SciTegic.value.IntegerValue
55

@<SCITEGIC>MOL_PROPERTY
Delta U+W
SciTegic.value.DoubleValue
2.767

@<SCITEGIC>MOL_PROPERTY
U+W
SciTegic.value.DoubleValue
-33.509

@<SCITEGIC>MOL_PROPERTY
Grad RMS
SciTegic.value.DoubleValue
0.000000

@<SCITEGIC>MOL_PROPERTY
U
SciTegic.value.DoubleValue
24.552

@<SCITEGIC>MOL_PROPERTY
W
SciTegic.value.DoubleValue
-58.061

@<SCITEGIC>MOL_PROPERTY
W(PB)
SciTegic.value.DoubleValue
-59.930

@<SCITEGIC>MOL_PROPERTY
W(SA)
SciTegic.value.DoubleValue
1.869

@<SCITEGIC>MOL_PROPERTY
Valence
SciTegic.value.DoubleValue
3.726

@<SCITEGIC>MOL_PROPERTY
Coulomb
SciTegic.value.DoubleValue
20.219

@<SCITEGIC>MOL_PROPERTY
VdW
SciTegic.value.DoubleValue
0.606

@<SCITEGIC>MOL_PROPERTY
VdW6
SciTegic.value.DoubleValue
-6.395

@<SCITEGIC>MOL_PROPERTY
VdW12
SciTegic.value.DoubleValue
7.001

@<SCITEGIC>MOL_PROPERTY
Bond
SciTegic.value.DoubleValue
0.241

@<SCITEGIC>MOL_PROPERTY
Angle
SciTegic.value.DoubleValue
2.098

@<SCITEGIC>MOL_PROPERTY
Pdih
SciTegic.value.DoubleValue
1.387

@<SCITEGIC>MOL_PROPERTY
Idih
SciTegic.value.DoubleValue
0.000

@<SCITEGIC>MOL_PROPERTY
Tether
SciTegic.value.DoubleValue
0.000

@<TRIPOS>MOLECULE
guest-s10_confgen4.mol2 : confsearch ligand conformer 521
          20          19           1
SMALL
USER_CHARGES
 
@<TRIPOS>ATOM
       1    N1      21.053170   20.090527   23.661118 N.4        1 MOL1        -0.5937
       2    H1      21.157665   19.508628   24.495995 H          1 MOL1         0.3684
       3    H2      21.304868   21.047537   23.922721 H          1 MOL1         0.3684
       4    H3      21.742575   19.771817   22.975753 H          1 MOL1         0.3684
       5    C1      19.654014   20.019750   23.111195 C.3        1 MOL1         0.1270
       6    H4      19.631108   20.661896   22.225187 H          1 MOL1         0.0960
       7    C2      18.644320   20.571188   24.131197 C.3        1 MOL1        -0.2382
       8    H5      18.898763   21.600534   24.412213 H          1 MOL1         0.1009
       9    H6      18.628030   19.961956   25.043537 H          1 MOL1         0.1009
      10    H7      17.631266   20.582756   23.710216 H          1 MOL1         0.1009
      11    C3      19.256762   18.590149   22.681568 C.3        1 MOL1        -0.1392
      12    H8      19.294768   17.919030   23.549941 H          1 MOL1         0.0998
      13    H9      18.213210   18.600250   22.339567 H          1 MOL1         0.0998
      14    C4      20.147844   18.028937   21.547314 C.3        1 MOL1        -0.1302
      15    H10     21.190628   17.955704   21.884456 H          1 MOL1         0.0998
      16    H11     20.137470   18.719503   20.692180 H          1 MOL1         0.0998
      17    C5      19.671039   16.635459   21.084519 C.3        1 MOL1        -0.2317
      18    H12     19.698997   15.913742   21.911319 H          1 MOL1         0.1009
      19    H13     20.314342   16.252421   20.281694 H          1 MOL1         0.1009
      20    H14     18.643169   16.676144   20.701034 H          1 MOL1         0.1009
@<TRIPOS>BOND
    1     1     2    1
    2     1     3    1
    3     1     4    1
    4     1     5    1
    5     5     6    1
    6     5     7    1
    7     7     8    1
    8     7     9    1
    9     7    10    1
   10     5    11    1
   11    11    12    1
   12    11    13    1
   13    11    14    1
   14    14    15    1
   15    14    16    1
   16    14    17    1
   17    17    18    1
   18    17    19    1
   19    17    20    1
@<TRIPOS>SUBSTRUCTURE
       1 MOL1            1 RESIDUE      1      MOL     
@<SCITEGIC>MOL_PROPERTY
VConf Rank
SciTegic.value.IntegerValue
521

@<SCITEGIC>MOL_PROPERTY
Conf_Id
SciTegic.value.IntegerValue
74

@<SCITEGIC>MOL_PROPERTY
Delta U+W
SciTegic.value.DoubleValue
0.000

@<SCITEGIC>MOL_PROPERTY
U+W
SciTegic.value.DoubleValue
-36.276

@<SCITEGIC>MOL_PROPERTY
Grad RMS
SciTegic.value.DoubleValue
0.000000

@<SCITEGIC>MOL_PROPERTY
U
SciTegic.value.DoubleValue
22.080

@<SCITEGIC>MOL_PROPERTY
W
SciTegic.value.DoubleValue
-58.356

@<SCITEGIC>MOL_PROPERTY
W(PB)
SciTegic.value.DoubleValue
-60.289

@<SCITEGIC>MOL_PROPERTY
W(SA)
SciTegic.value.DoubleValue
1.932

@<SCITEGIC>MOL_PROPERTY
Valence
SciTegic.value.DoubleValue
1.885

@<SCITEGIC>MOL_PROPERTY
Coulomb
SciTegic.value.DoubleValue
19.559

@<SCITEGIC>MOL_PROPERTY
VdW
SciTegic.value.DoubleValue
0.637

@<SCITEGIC>MOL_PROPERTY
VdW6
SciTegic.value.DoubleValue
-4.482

@<SCITEGIC>MOL_PROPERTY
VdW12
SciTegic.value.DoubleValue
5.119

@<SCITEGIC>MOL_PROPERTY
Bond
SciTegic.value.DoubleValue
0.136

@<SCITEGIC>MOL_PROPERTY
Angle
SciTegic.value.DoubleValue
0.867

@<SCITEGIC>MOL_PROPERTY
Pdih
SciTegic.value.DoubleValue
0.882

@<SCITEGIC>MOL_PROPERTY
Idih
SciTegic.value.DoubleValue
0.000

@<SCITEGIC>MOL_PROPERTY
Tether
SciTegic.value.DoubleValue
0.000

@<TRIPOS>MOLECULE
guest-s10_confgen4.mol2 : confsearch ligand conformer 522
          20          19           1
SMALL
USER_CHARGES
 
@<TRIPOS>ATOM
       1    N1      19.523263   17.592160   20.752421 N.4        1 MOL1        -0.5937
       2    H1      19.064259   18.240846   20.107146 H          1 MOL1         0.3684
       3    H2      18.808829   16.945915   21.096917 H          1 MOL1         0.3684
       4    H3      20.191193   17.043161   20.204562 H          1 MOL1         0.3684
       5    C1      20.202090   18.318464   21.881200 C.3        1 MOL1         0.1270
       6    H4      20.944439   18.977974   21.420949 H          1 MOL1         0.0960
       7    C2      20.938157   17.319443   22.792771 C.3        1 MOL1        -0.2382
       8    H5      21.604552   16.677483   22.203680 H          1 MOL1         0.1009
       9    H6      20.230497   16.674230   23.328025 H          1 MOL1         0.1009
      10    H7      21.559279   17.836896   23.532820 H          1 MOL1         0.1009
      11    C3      19.198318   19.194208   22.666697 C.3        1 MOL1        -0.1392
      12    H8      18.633047   19.803391   21.949042 H          1 MOL1         0.0998
      13    H9      18.465742   18.552482   23.174012 H          1 MOL1         0.0998
      14    C4      19.864862   20.139603   23.695827 C.3        1 MOL1        -0.1302
      15    H10     20.642481   20.737816   23.200329 H          1 MOL1         0.0998
      16    H11     20.363494   19.556850   24.481745 H          1 MOL1         0.0998
      17    C5      18.834787   21.083309   24.353129 C.3        1 MOL1        -0.2317
      18    H12     18.342973   21.716541   23.603212 H          1 MOL1         0.1009
      19    H13     19.323270   21.743249   25.081793 H          1 MOL1         0.1009
      20    H14     18.058924   20.514217   24.881740 H          1 MOL1         0.1009
@<TRIPOS>BOND
    1     1     2    1
    2     1     3    1
    3     1     4    1
    4     1     5    1
    5     5     6    1
    6     5     7    1
    7     7     8    1
    8     7     9    1
    9     7    10    1
   10     5    11    1
   11    11    12    1
   12    11    13    1
   13    11    14    1
   14    14    15    1
   15    14    16    1
   16    14    17    1
   17    17    18    1
   18    17    19    1
   19    17    20    1
@<TRIPOS>SUBSTRUCTURE
       1 MOL1            1 RESIDUE      1      MOL     
@<SCITEGIC>MOL_PROPERTY
VConf Rank
SciTegic.value.IntegerValue
522

@<SCITEGIC>MOL_PROPERTY
Conf_Id
SciTegic.value.IntegerValue
80

@<SCITEGIC>MOL_PROPERTY
Delta U+W
SciTegic.value.DoubleValue
0.460

@<SCITEGIC>MOL_PROPERTY
U+W
SciTegic.value.DoubleValue
-35.817

@<SCITEGIC>MOL_PROPERTY
Grad RMS
SciTegic.value.DoubleValue
0.000000

@<SCITEGIC>MOL_PROPERTY
U
SciTegic.value.DoubleValue
22.495

@<SCITEGIC>MOL_PROPERTY
W
SciTegic.value.DoubleValue
-58.311

@<SCITEGIC>MOL_PROPERTY
W(PB)
SciTegic.value.DoubleValue
-60.259

@<SCITEGIC>MOL_PROPERTY
W(SA)
SciTegic.value.DoubleValue
1.948

@<SCITEGIC>MOL_PROPERTY
Valence
SciTegic.value.DoubleValue
2.419

@<SCITEGIC>MOL_PROPERTY
Coulomb
SciTegic.value.DoubleValue
19.304

@<SCITEGIC>MOL_PROPERTY
VdW
SciTegic.value.DoubleValue
0.772

@<SCITEGIC>MOL_PROPERTY
VdW6
SciTegic.value.DoubleValue
-4.635

@<SCITEGIC>MOL_PROPERTY
VdW12
SciTegic.value.DoubleValue
5.407

@<SCITEGIC>MOL_PROPERTY
Bond
SciTegic.value.DoubleValue
0.149

@<SCITEGIC>MOL_PROPERTY
Angle
SciTegic.value.DoubleValue
1.142

@<SCITEGIC>MOL_PROPERTY
Pdih
SciTegic.value.DoubleValue
1.129

@<SCITEGIC>MOL_PROPERTY
Idih
SciTegic.value.DoubleValue
0.000

@<SCITEGIC>MOL_PROPERTY
Tether
SciTegic.value.DoubleValue
0.000

@<TRIPOS>MOLECULE
guest-s10_confgen4.mol2 : confsearch ligand conformer 523
          20          19           1
SMALL
USER_CHARGES
 
@<TRIPOS>ATOM
       1    N1      19.393908   16.729801   23.724729 N.4        1 MOL1        -0.5937
       2    H1      19.858844   16.660205   24.634016 H          1 MOL1         0.3684
       3    H2      19.968427   16.222415   23.047103 H          1 MOL1         0.3684
       4    H3      18.503201   16.231492   23.801819 H          1 MOL1         0.3684
       5    C1      19.189803   18.162077   23.312810 C.3        1 MOL1         0.1270
       6    H4      18.565085   18.617431   24.087523 H          1 MOL1         0.0960
       7    C2      18.423653   18.228830   21.980588 C.3        1 MOL1        -0.2382
       8    H5      17.521665   17.605971   22.020679 H          1 MOL1         0.1009
       9    H6      19.043709   17.877579   21.146557 H          1 MOL1         0.1009
      10    H7      18.097355   19.252847   21.766287 H          1 MOL1         0.1009
      11    C3      20.536130   18.925639   23.271443 C.3        1 MOL1        -0.1392
      12    H8      21.021766   18.789854   24.246847 H          1 MOL1         0.0998
      13    H9      21.210235   18.466598   22.536193 H          1 MOL1         0.0998
      14    C4      20.417100   20.450773   23.011743 C.3        1 MOL1        -0.1302
      15    H10     21.179047   20.968672   23.611188 H          1 MOL1         0.0998
      16    H11     19.447585   20.824893   23.369570 H          1 MOL1         0.0998
      17    C5      20.631839   20.840927   21.530291 C.3        1 MOL1        -0.2317
      18    H12     21.629041   20.537632   21.185738 H          1 MOL1         0.1009
      19    H13     20.553802   21.928614   21.404476 H          1 MOL1         0.1009
      20    H14     19.891641   20.376809   20.869048 H          1 MOL1         0.1009
@<TRIPOS>BOND
    1     1     2    1
    2     1     3    1
    3     1     4    1
    4     1     5    1
    5     5     6    1
    6     5     7    1
    7     7     8    1
    8     7     9    1
    9     7    10    1
   10     5    11    1
   11    11    12    1
   12    11    13    1
   13    11    14    1
   14    14    15    1
   15    14    16    1
   16    14    17    1
   17    17    18    1
   18    17    19    1
   19    17    20    1
@<TRIPOS>SUBSTRUCTURE
       1 MOL1            1 RESIDUE      1      MOL     
@<SCITEGIC>MOL_PROPERTY
VConf Rank
SciTegic.value.IntegerValue
523

@<SCITEGIC>MOL_PROPERTY
Conf_Id
SciTegic.value.IntegerValue
52

@<SCITEGIC>MOL_PROPERTY
Delta U+W
SciTegic.value.DoubleValue
2.995

@<SCITEGIC>MOL_PROPERTY
U+W
SciTegic.value.DoubleValue
-33.282

@<SCITEGIC>MOL_PROPERTY
Grad RMS
SciTegic.value.DoubleValue
0.000000

@<SCITEGIC>MOL_PROPERTY
U
SciTegic.value.DoubleValue
25.224

@<SCITEGIC>MOL_PROPERTY
W
SciTegic.value.DoubleValue
-58.506

@<SCITEGIC>MOL_PROPERTY
W(PB)
SciTegic.value.DoubleValue
-60.411

@<SCITEGIC>MOL_PROPERTY
W(SA)
SciTegic.value.DoubleValue
1.905

@<SCITEGIC>MOL_PROPERTY
Valence
SciTegic.value.DoubleValue
4.945

@<SCITEGIC>MOL_PROPERTY
Coulomb
SciTegic.value.DoubleValue
19.467

@<SCITEGIC>MOL_PROPERTY
VdW
SciTegic.value.DoubleValue
0.813

@<SCITEGIC>MOL_PROPERTY
VdW6
SciTegic.value.DoubleValue
-5.458

@<SCITEGIC>MOL_PROPERTY
VdW12
SciTegic.value.DoubleValue
6.270

@<SCITEGIC>MOL_PROPERTY
Bond
SciTegic.value.DoubleValue
0.200

@<SCITEGIC>MOL_PROPERTY
Angle
SciTegic.value.DoubleValue
1.675

@<SCITEGIC>MOL_PROPERTY
Pdih
SciTegic.value.DoubleValue
3.070

@<SCITEGIC>MOL_PROPERTY
Idih
SciTegic.value.DoubleValue
0.000

@<SCITEGIC>MOL_PROPERTY
Tether
SciTegic.value.DoubleValue
0.000

@<TRIPOS>MOLECULE
guest-s10_confgen4.mol2 : confsearch ligand conformer 524
          20          19           1
SMALL
USER_CHARGES
 
@<TRIPOS>ATOM
       1    N1      19.246281   20.102775   21.650637 N.4        1 MOL1        -0.5937
       2    H1      20.101320   20.558127   21.322095 H          1 MOL1         0.3684
       3    H2      18.465869   20.732323   21.445031 H          1 MOL1         0.3684
       4    H3      19.116240   19.256685   21.091883 H          1 MOL1         0.3684
       5    C1      19.325166   19.781355   23.118192 C.3        1 MOL1         0.1270
       6    H4      18.363487   19.344402   23.404514 H          1 MOL1         0.0960
       7    C2      19.524744   21.075294   23.925441 C.3        1 MOL1        -0.2382
       8    H5      20.485901   21.547774   23.687117 H          1 MOL1         0.1009
       9    H6      19.501941   20.871432   25.003200 H          1 MOL1         0.1009
      10    H7      18.726489   21.795802   23.708663 H          1 MOL1         0.1009
      11    C3      20.440444   18.761307   23.449692 C.3        1 MOL1        -0.1392
      12    H8      21.374208   19.052021   22.950549 H          1 MOL1         0.0998
      13    H9      20.649185   18.808752   24.526846 H          1 MOL1         0.0998
      14    C4      20.093032   17.286626   23.116182 C.3        1 MOL1        -0.1302
      15    H10     19.183514   16.989149   23.656848 H          1 MOL1         0.0998
      16    H11     20.898651   16.648744   23.506195 H          1 MOL1         0.0998
      17    C5      19.919736   16.984885   21.610151 C.3        1 MOL1        -0.2317
      18    H12     19.878394   15.900552   21.443421 H          1 MOL1         0.1009
      19    H13     20.760486   17.378889   21.024304 H          1 MOL1         0.1009
      20    H14     18.985305   17.403377   21.218815 H          1 MOL1         0.1009
@<TRIPOS>BOND
    1     1     2    1
    2     1     3    1
    3     1     4    1
    4     1     5    1
    5     5     6    1
    6     5     7    1
    7     7     8    1
    8     7     9    1
    9     7    10    1
   10     5    11    1
   11    11    12    1
   12    11    13    1
   13    11    14    1
   14    14    15    1
   15    14    16    1
   16    14    17    1
   17    17    18    1
   18    17    19    1
   19    17    20    1
@<TRIPOS>SUBSTRUCTURE
       1 MOL1            1 RESIDUE      1      MOL     
@<SCITEGIC>MOL_PROPERTY
VConf Rank
SciTegic.value.IntegerValue
524

@<SCITEGIC>MOL_PROPERTY
Conf_Id
SciTegic.value.IntegerValue
54

@<SCITEGIC>MOL_PROPERTY
Delta U+W
SciTegic.value.DoubleValue
2.752

@<SCITEGIC>MOL_PROPERTY
U+W
SciTegic.value.DoubleValue
-33.525

@<SCITEGIC>MOL_PROPERTY
Grad RMS
SciTegic.value.DoubleValue
0.000000

@<SCITEGIC>MOL_PROPERTY
U
SciTegic.value.DoubleValue
24.337

@<SCITEGIC>MOL_PROPERTY
W
SciTegic.value.DoubleValue
-57.862

@<SCITEGIC>MOL_PROPERTY
W(PB)
SciTegic.value.DoubleValue
-59.764

@<SCITEGIC>MOL_PROPERTY
W(SA)
SciTegic.value.DoubleValue
1.901

@<SCITEGIC>MOL_PROPERTY
Valence
SciTegic.value.DoubleValue
3.593

@<SCITEGIC>MOL_PROPERTY
Coulomb
SciTegic.value.DoubleValue
20.067

@<SCITEGIC>MOL_PROPERTY
VdW
SciTegic.value.DoubleValue
0.677

@<SCITEGIC>MOL_PROPERTY
VdW6
SciTegic.value.DoubleValue
-5.466

@<SCITEGIC>MOL_PROPERTY
VdW12
SciTegic.value.DoubleValue
6.144

@<SCITEGIC>MOL_PROPERTY
Bond
SciTegic.value.DoubleValue
0.191

@<SCITEGIC>MOL_PROPERTY
Angle
SciTegic.value.DoubleValue
1.557

@<SCITEGIC>MOL_PROPERTY
Pdih
SciTegic.value.DoubleValue
1.845

@<SCITEGIC>MOL_PROPERTY
Idih
SciTegic.value.DoubleValue
0.000

@<SCITEGIC>MOL_PROPERTY
Tether
SciTegic.value.DoubleValue
0.000

@<TRIPOS>MOLECULE
guest-s10_confgen4.mol2 : confsearch ligand conformer 525
          20          19           1
SMALL
USER_CHARGES
 
@<TRIPOS>ATOM
       1    N1      18.571082   20.257681   23.776397 N.4        1 MOL1        -0.5937
       2    H1      17.950719   20.338833   24.586470 H          1 MOL1         0.3684
       3    H2      18.253590   20.938718   23.081344 H          1 MOL1         0.3684
       4    H3      19.506211   20.540002   24.078516 H          1 MOL1         0.3684
       5    C1      18.571285   18.859372   23.220863 C.3        1 MOL1         0.1270
       6    H4      17.534599   18.643660   22.943782 H          1 MOL1         0.0960
       7    C2      18.986274   17.837800   24.294649 C.3        1 MOL1        -0.2382
       8    H5      18.986892   16.820006   23.885299 H          1 MOL1         0.1009
       9    H6      18.281551   17.857058   25.134935 H          1 MOL1         0.1009
      10    H7      19.986028   18.049391   24.691844 H          1 MOL1         0.1009
      11    C3      19.424477   18.732024   21.935990 C.3        1 MOL1        -0.1392
      12    H8      19.308995   17.716364   21.534946 H          1 MOL1         0.0998
      13    H9      19.008294   19.405140   21.174996 H          1 MOL1         0.0998
      14    C4      20.932853   19.041615   22.118474 C.3        1 MOL1        -0.1302
      15    H10     21.379690   18.343665   22.839039 H          1 MOL1         0.0998
      16    H11     21.065867   20.051808   22.528329 H          1 MOL1         0.0998
      17    C5      21.698292   18.936539   20.781916 C.3        1 MOL1        -0.2317
      18    H12     22.764039   19.156006   20.927121 H          1 MOL1         0.1009
      19    H13     21.305862   19.648771   20.044389 H          1 MOL1         0.1009
      20    H14     21.617477   17.926850   20.358571 H          1 MOL1         0.1009
@<TRIPOS>BOND
    1     1     2    1
    2     1     3    1
    3     1     4    1
    4     1     5    1
    5     5     6    1
    6     5     7    1
    7     7     8    1
    8     7     9    1
    9     7    10    1
   10     5    11    1
   11    11    12    1
   12    11    13    1
   13    11    14    1
   14    14    15    1
   15    14    16    1
   16    14    17    1
   17    17    18    1
   18    17    19    1
   19    17    20    1
@<TRIPOS>SUBSTRUCTURE
       1 MOL1            1 RESIDUE      1      MOL     
@<SCITEGIC>MOL_PROPERTY
VConf Rank
SciTegic.value.IntegerValue
525

@<SCITEGIC>MOL_PROPERTY
Conf_Id
SciTegic.value.IntegerValue
63

@<SCITEGIC>MOL_PROPERTY
Delta U+W
SciTegic.value.DoubleValue
0.420

@<SCITEGIC>MOL_PROPERTY
U+W
SciTegic.value.DoubleValue
-35.856

@<SCITEGIC>MOL_PROPERTY
Grad RMS
SciTegic.value.DoubleValue
0.000000

@<SCITEGIC>MOL_PROPERTY
U
SciTegic.value.DoubleValue
22.625

@<SCITEGIC>MOL_PROPERTY
W
SciTegic.value.DoubleValue
-58.481

@<SCITEGIC>MOL_PROPERTY
W(PB)
SciTegic.value.DoubleValue
-60.400

@<SCITEGIC>MOL_PROPERTY
W(SA)
SciTegic.value.DoubleValue
1.919

@<SCITEGIC>MOL_PROPERTY
Valence
SciTegic.value.DoubleValue
2.404

@<SCITEGIC>MOL_PROPERTY
Coulomb
SciTegic.value.DoubleValue
19.464

@<SCITEGIC>MOL_PROPERTY
VdW
SciTegic.value.DoubleValue
0.757

@<SCITEGIC>MOL_PROPERTY
VdW6
SciTegic.value.DoubleValue
-5.074

@<SCITEGIC>MOL_PROPERTY
VdW12
SciTegic.value.DoubleValue
5.830

@<SCITEGIC>MOL_PROPERTY
Bond
SciTegic.value.DoubleValue
0.172

@<SCITEGIC>MOL_PROPERTY
Angle
SciTegic.value.DoubleValue
1.207

@<SCITEGIC>MOL_PROPERTY
Pdih
SciTegic.value.DoubleValue
1.025

@<SCITEGIC>MOL_PROPERTY
Idih
SciTegic.value.DoubleValue
0.000

@<SCITEGIC>MOL_PROPERTY
Tether
SciTegic.value.DoubleValue
0.000

@<TRIPOS>MOLECULE
guest-s10_confgen4.mol2 : confsearch ligand conformer 526
          20          19           1
SMALL
USER_CHARGES
 
@<TRIPOS>ATOM
       1    N1      20.916995   19.576156   23.885491 N.4        1 MOL1        -0.5937
       2    H1      21.145002   18.587301   24.016081 H          1 MOL1         0.3684
       3    H2      20.480556   19.908292   24.748989 H          1 MOL1         0.3684
       4    H3      21.800128   20.081540   23.775020 H          1 MOL1         0.3684
       5    C1      20.013866   19.776954   22.698808 C.3        1 MOL1         0.1270
       6    H4      20.554252   19.400971   21.824881 H          1 MOL1         0.0960
       7    C2      19.730312   21.271867   22.478935 C.3        1 MOL1        -0.2382
       8    H5      20.665834   21.829533   22.348385 H          1 MOL1         0.1009
       9    H6      19.191091   21.703884   23.331200 H          1 MOL1         0.1009
      10    H7      19.123628   21.425033   21.577771 H          1 MOL1         0.1009
      11    C3      18.689060   18.990785   22.824544 C.3        1 MOL1        -0.1392
      12    H8      18.123639   19.365516   23.688088 H          1 MOL1         0.0998
      13    H9      18.068727   19.192586   21.941146 H          1 MOL1         0.0998
      14    C4      18.870885   17.458036   22.964250 C.3        1 MOL1        -0.1302
      15    H10     17.879382   16.991905   23.051117 H          1 MOL1         0.0998
      16    H11     19.398095   17.221417   23.898395 H          1 MOL1         0.0998
      17    C5      19.618623   16.825102   21.768569 C.3        1 MOL1        -0.2317
      18    H12     19.109383   17.048328   20.821984 H          1 MOL1         0.1009
      19    H13     19.661159   15.733442   21.875984 H          1 MOL1         0.1009
      20    H14     20.650739   17.190485   21.696961 H          1 MOL1         0.1009
@<TRIPOS>BOND
    1     1     2    1
    2     1     3    1
    3     1     4    1
    4     1     5    1
    5     5     6    1
    6     5     7    1
    7     7     8    1
    8     7     9    1
    9     7    10    1
   10     5    11    1
   11    11    12    1
   12    11    13    1
   13    11    14    1
   14    14    15    1
   15    14    16    1
   16    14    17    1
   17    17    18    1
   18    17    19    1
   19    17    20    1
@<TRIPOS>SUBSTRUCTURE
       1 MOL1            1 RESIDUE      1      MOL     
@<SCITEGIC>MOL_PROPERTY
VConf Rank
SciTegic.value.IntegerValue
526

@<SCITEGIC>MOL_PROPERTY
Conf_Id
SciTegic.value.IntegerValue
50

@<SCITEGIC>MOL_PROPERTY
Delta U+W
SciTegic.value.DoubleValue
0.466

@<SCITEGIC>MOL_PROPERTY
U+W
SciTegic.value.DoubleValue
-35.811

@<SCITEGIC>MOL_PROPERTY
Grad RMS
SciTegic.value.DoubleValue
0.000000

@<SCITEGIC>MOL_PROPERTY
U
SciTegic.value.DoubleValue
22.369

@<SCITEGIC>MOL_PROPERTY
W
SciTegic.value.DoubleValue
-58.180

@<SCITEGIC>MOL_PROPERTY
W(PB)
SciTegic.value.DoubleValue
-60.103

@<SCITEGIC>MOL_PROPERTY
W(SA)
SciTegic.value.DoubleValue
1.923

@<SCITEGIC>MOL_PROPERTY
Valence
SciTegic.value.DoubleValue
2.168

@<SCITEGIC>MOL_PROPERTY
Coulomb
SciTegic.value.DoubleValue
19.636

@<SCITEGIC>MOL_PROPERTY
VdW
SciTegic.value.DoubleValue
0.566

@<SCITEGIC>MOL_PROPERTY
VdW6
SciTegic.value.DoubleValue
-5.263

@<SCITEGIC>MOL_PROPERTY
VdW12
SciTegic.value.DoubleValue
5.829

@<SCITEGIC>MOL_PROPERTY
Bond
SciTegic.value.DoubleValue
0.162

@<SCITEGIC>MOL_PROPERTY
Angle
SciTegic.value.DoubleValue
1.066

@<SCITEGIC>MOL_PROPERTY
Pdih
SciTegic.value.DoubleValue
0.939

@<SCITEGIC>MOL_PROPERTY
Idih
SciTegic.value.DoubleValue
0.000

@<SCITEGIC>MOL_PROPERTY
Tether
SciTegic.value.DoubleValue
0.000

@<TRIPOS>MOLECULE
guest-s10_confgen4.mol2 : confsearch ligand conformer 527
          20          19           1
SMALL
USER_CHARGES
 
@<TRIPOS>ATOM
       1    N1      19.924266   18.659390   20.475032 N.4        1 MOL1        -0.5937
       2    H1      19.442268   19.472341   20.081605 H          1 MOL1         0.3684
       3    H2      19.390743   17.827703   20.209474 H          1 MOL1         0.3684
       4    H3      20.835842   18.596135   20.013769 H          1 MOL1         0.3684
       5    C1      20.069411   18.769447   21.968819 C.3        1 MOL1         0.1270
       6    H4      20.645201   19.681841   22.152571 H          1 MOL1         0.0960
       7    C2      20.863910   17.566609   22.510958 C.3        1 MOL1        -0.2382
       8    H5      20.342756   16.623437   22.304823 H          1 MOL1         0.1009
       9    H6      21.014187   17.637921   23.593603 H          1 MOL1         0.1009
      10    H7      21.854523   17.515393   22.042779 H          1 MOL1         0.1009
      11    C3      18.698241   18.914883   22.673783 C.3        1 MOL1        -0.1392
      12    H8      17.943207   19.211108   21.933616 H          1 MOL1         0.0998
      13    H9      18.363399   17.945047   23.065334 H          1 MOL1         0.0998
      14    C4      18.681649   19.978904   23.800444 C.3        1 MOL1        -0.1302
      15    H10     17.655981   20.065985   24.185610 H          1 MOL1         0.0998
      16    H11     18.934146   20.962693   23.380342 H          1 MOL1         0.0998
      17    C5      19.629990   19.666450   24.979112 C.3        1 MOL1        -0.2317
      18    H12     19.431132   18.669969   25.394454 H          1 MOL1         0.1009
      19    H13     19.493036   20.398389   25.785679 H          1 MOL1         0.1009
      20    H14     20.681793   19.712400   24.670521 H          1 MOL1         0.1009
@<TRIPOS>BOND
    1     1     2    1
    2     1     3    1
    3     1     4    1
    4     1     5    1
    5     5     6    1
    6     5     7    1
    7     7     8    1
    8     7     9    1
    9     7    10    1
   10     5    11    1
   11    11    12    1
   12    11    13    1
   13    11    14    1
   14    14    15    1
   15    14    16    1
   16    14    17    1
   17    17    18    1
   18    17    19    1
   19    17    20    1
@<TRIPOS>SUBSTRUCTURE
       1 MOL1            1 RESIDUE      1      MOL     
@<SCITEGIC>MOL_PROPERTY
VConf Rank
SciTegic.value.IntegerValue
527

@<SCITEGIC>MOL_PROPERTY
Conf_Id
SciTegic.value.IntegerValue
3

@<SCITEGIC>MOL_PROPERTY
Delta U+W
SciTegic.value.DoubleValue
3.093

@<SCITEGIC>MOL_PROPERTY
U+W
SciTegic.value.DoubleValue
-33.184

@<SCITEGIC>MOL_PROPERTY
Grad RMS
SciTegic.value.DoubleValue
0.000000

@<SCITEGIC>MOL_PROPERTY
U
SciTegic.value.DoubleValue
25.256

@<SCITEGIC>MOL_PROPERTY
W
SciTegic.value.DoubleValue
-58.439

@<SCITEGIC>MOL_PROPERTY
W(PB)
SciTegic.value.DoubleValue
-60.337

@<SCITEGIC>MOL_PROPERTY
W(SA)
SciTegic.value.DoubleValue
1.898

@<SCITEGIC>MOL_PROPERTY
Valence
SciTegic.value.DoubleValue
4.963

@<SCITEGIC>MOL_PROPERTY
Coulomb
SciTegic.value.DoubleValue
19.511

@<SCITEGIC>MOL_PROPERTY
VdW
SciTegic.value.DoubleValue
0.782

@<SCITEGIC>MOL_PROPERTY
VdW6
SciTegic.value.DoubleValue
-5.429

@<SCITEGIC>MOL_PROPERTY
VdW12
SciTegic.value.DoubleValue
6.211

@<SCITEGIC>MOL_PROPERTY
Bond
SciTegic.value.DoubleValue
0.174

@<SCITEGIC>MOL_PROPERTY
Angle
SciTegic.value.DoubleValue
1.377

@<SCITEGIC>MOL_PROPERTY
Pdih
SciTegic.value.DoubleValue
3.412

@<SCITEGIC>MOL_PROPERTY
Idih
SciTegic.value.DoubleValue
0.000

@<SCITEGIC>MOL_PROPERTY
Tether
SciTegic.value.DoubleValue
0.000

@<TRIPOS>MOLECULE
guest-s10_confgen4.mol2 : confsearch ligand conformer 528
          20          19           1
SMALL
USER_CHARGES
 
@<TRIPOS>ATOM
       1    N1      21.588174   18.295804   21.698515 N.4        1 MOL1        -0.5937
       2    H1      22.207711   17.564019   22.056705 H          1 MOL1         0.3684
       3    H2      22.135463   19.159642   21.652810 H          1 MOL1         0.3684
       4    H3      21.338551   18.040256   20.739834 H          1 MOL1         0.3684
       5    C1      20.367928   18.456503   22.563128 C.3        1 MOL1         0.1270
       6    H4      20.731550   18.723082   23.560029 H          1 MOL1         0.0960
       7    C2      19.604209   17.123632   22.664557 C.3        1 MOL1        -0.2382
       8    H5      18.793283   17.184873   23.399529 H          1 MOL1         0.1009
       9    H6      20.274354   16.317526   22.987409 H          1 MOL1         0.1009
      10    H7      19.171203   16.839441   21.697484 H          1 MOL1         0.1009
      11    C3      19.466354   19.605294   22.051392 C.3        1 MOL1        -0.1392
      12    H8      20.082458   20.505071   21.923552 H          1 MOL1         0.0998
      13    H9      19.086796   19.351968   21.052644 H          1 MOL1         0.0998
      14    C4      18.270866   19.959924   22.972342 C.3        1 MOL1        -0.1302
      15    H10     17.561339   19.122709   23.016105 H          1 MOL1         0.0998
      16    H11     17.718468   20.797975   22.524720 H          1 MOL1         0.0998
      17    C5      18.704016   20.353143   24.403045 C.3        1 MOL1        -0.2317
      18    H12     19.416843   21.187825   24.384547 H          1 MOL1         0.1009
      19    H13     19.173816   19.511706   24.927769 H          1 MOL1         0.1009
      20    H14     17.834923   20.668073   24.995086 H          1 MOL1         0.1009
@<TRIPOS>BOND
    1     1     2    1
    2     1     3    1
    3     1     4    1
    4     1     5    1
    5     5     6    1
    6     5     7    1
    7     7     8    1
    8     7     9    1
    9     7    10    1
   10     5    11    1
   11    11    12    1
   12    11    13    1
   13    11    14    1
   14    14    15    1
   15    14    16    1
   16    14    17    1
   17    17    18    1
   18    17    19    1
   19    17    20    1
@<TRIPOS>SUBSTRUCTURE
       1 MOL1            1 RESIDUE      1      MOL     
@<SCITEGIC>MOL_PROPERTY
VConf Rank
SciTegic.value.IntegerValue
528

@<SCITEGIC>MOL_PROPERTY
Conf_Id
SciTegic.value.IntegerValue
64

@<SCITEGIC>MOL_PROPERTY
Delta U+W
SciTegic.value.DoubleValue
0.544

@<SCITEGIC>MOL_PROPERTY
U+W
SciTegic.value.DoubleValue
-35.732

@<SCITEGIC>MOL_PROPERTY
Grad RMS
SciTegic.value.DoubleValue
0.000000

@<SCITEGIC>MOL_PROPERTY
U
SciTegic.value.DoubleValue
22.800

@<SCITEGIC>MOL_PROPERTY
W
SciTegic.value.DoubleValue
-58.532

@<SCITEGIC>MOL_PROPERTY
W(PB)
SciTegic.value.DoubleValue
-60.437

@<SCITEGIC>MOL_PROPERTY
W(SA)
SciTegic.value.DoubleValue
1.905

@<SCITEGIC>MOL_PROPERTY
Valence
SciTegic.value.DoubleValue
2.662

@<SCITEGIC>MOL_PROPERTY
Coulomb
SciTegic.value.DoubleValue
19.485

@<SCITEGIC>MOL_PROPERTY
VdW
SciTegic.value.DoubleValue
0.653

@<SCITEGIC>MOL_PROPERTY
VdW6
SciTegic.value.DoubleValue
-5.460

@<SCITEGIC>MOL_PROPERTY
VdW12
SciTegic.value.DoubleValue
6.113

@<SCITEGIC>MOL_PROPERTY
Bond
SciTegic.value.DoubleValue
0.174

@<SCITEGIC>MOL_PROPERTY
Angle
SciTegic.value.DoubleValue
1.378

@<SCITEGIC>MOL_PROPERTY
Pdih
SciTegic.value.DoubleValue
1.109

@<SCITEGIC>MOL_PROPERTY
Idih
SciTegic.value.DoubleValue
0.000

@<SCITEGIC>MOL_PROPERTY
Tether
SciTegic.value.DoubleValue
0.000

@<TRIPOS>MOLECULE
guest-s10_confgen4.mol2 : confsearch ligand conformer 529
          20          19           1
SMALL
USER_CHARGES
 
@<TRIPOS>ATOM
       1    N1      19.365332   17.476841   21.214635 N.4        1 MOL1        -0.5937
       2    H1      20.377488   17.586509   21.120909 H          1 MOL1         0.3684
       3    H2      18.964688   17.521256   20.273824 H          1 MOL1         0.3684
       4    H3      19.190393   16.534850   21.574788 H          1 MOL1         0.3684
       5    C1      18.777706   18.531264   22.113367 C.3        1 MOL1         0.1270
       6    H4      17.701037   18.336136   22.139289 H          1 MOL1         0.0960
       7    C2      18.975867   19.933710   21.515369 C.3        1 MOL1        -0.2382
       8    H5      20.035740   20.146602   21.333559 H          1 MOL1         0.1009
       9    H6      18.574066   20.704467   22.184569 H          1 MOL1         0.1009
      10    H7      18.449968   20.018799   20.556640 H          1 MOL1         0.1009
      11    C3      19.292337   18.417405   23.570464 C.3        1 MOL1        -0.1392
      12    H8      18.709044   19.087048   24.216098 H          1 MOL1         0.0998
      13    H9      19.059559   17.403675   23.922100 H          1 MOL1         0.0998
      14    C4      20.810773   18.670007   23.784396 C.3        1 MOL1        -0.1302
      15    H10     21.387027   18.365160   22.901005 H          1 MOL1         0.0998
      16    H11     21.156671   18.024805   24.604183 H          1 MOL1         0.0998
      17    C5      21.147123   20.132152   24.160889 C.3        1 MOL1        -0.2317
      18    H12     20.871446   20.837127   23.369061 H          1 MOL1         0.1009
      19    H13     22.224132   20.243209   24.341673 H          1 MOL1         0.1009
      20    H14     20.624221   20.431923   25.078360 H          1 MOL1         0.1009
@<TRIPOS>BOND
    1     1     2    1
    2     1     3    1
    3     1     4    1
    4     1     5    1
    5     5     6    1
    6     5     7    1
    7     7     8    1
    8     7     9    1
    9     7    10    1
   10     5    11    1
   11    11    12    1
   12    11    13    1
   13    11    14    1
   14    14    15    1
   15    14    16    1
   16    14    17    1
   17    17    18    1
   18    17    19    1
   19    17    20    1
@<TRIPOS>SUBSTRUCTURE
       1 MOL1            1 RESIDUE      1      MOL     
@<SCITEGIC>MOL_PROPERTY
VConf Rank
SciTegic.value.IntegerValue
529

@<SCITEGIC>MOL_PROPERTY
Conf_Id
SciTegic.value.IntegerValue
35

@<SCITEGIC>MOL_PROPERTY
Delta U+W
SciTegic.value.DoubleValue
3.004

@<SCITEGIC>MOL_PROPERTY
U+W
SciTegic.value.DoubleValue
-33.272

@<SCITEGIC>MOL_PROPERTY
Grad RMS
SciTegic.value.DoubleValue
0.000000

@<SCITEGIC>MOL_PROPERTY
U
SciTegic.value.DoubleValue
25.367

@<SCITEGIC>MOL_PROPERTY
W
SciTegic.value.DoubleValue
-58.639

@<SCITEGIC>MOL_PROPERTY
W(PB)
SciTegic.value.DoubleValue
-60.512

@<SCITEGIC>MOL_PROPERTY
W(SA)
SciTegic.value.DoubleValue
1.873

@<SCITEGIC>MOL_PROPERTY
Valence
SciTegic.value.DoubleValue
4.943

@<SCITEGIC>MOL_PROPERTY
Coulomb
SciTegic.value.DoubleValue
19.661

@<SCITEGIC>MOL_PROPERTY
VdW
SciTegic.value.DoubleValue
0.764

@<SCITEGIC>MOL_PROPERTY
VdW6
SciTegic.value.DoubleValue
-5.871

@<SCITEGIC>MOL_PROPERTY
VdW12
SciTegic.value.DoubleValue
6.636

@<SCITEGIC>MOL_PROPERTY
Bond
SciTegic.value.DoubleValue
0.230

@<SCITEGIC>MOL_PROPERTY
Angle
SciTegic.value.DoubleValue
1.857

@<SCITEGIC>MOL_PROPERTY
Pdih
SciTegic.value.DoubleValue
2.855

@<SCITEGIC>MOL_PROPERTY
Idih
SciTegic.value.DoubleValue
0.000

@<SCITEGIC>MOL_PROPERTY
Tether
SciTegic.value.DoubleValue
0.000

@<TRIPOS>MOLECULE
guest-s10_confgen4.mol2 : confsearch ligand conformer 530
          20          19           1
SMALL
USER_CHARGES
 
@<TRIPOS>ATOM
       1    N1      18.095365   19.228424   22.263110 N.4        1 MOL1        -0.5937
       2    H1      17.490228   19.127072   21.443879 H          1 MOL1         0.3684
       3    H2      17.614209   19.845668   22.922717 H          1 MOL1         0.3684
       4    H3      18.174887   18.310702   22.705219 H          1 MOL1         0.3684
       5    C1      19.447097   19.770611   21.887190 C.3        1 MOL1         0.1270
       6    H4      19.252596   20.755463   21.451113 H          1 MOL1         0.0960
       7    C2      20.113836   18.911197   20.798439 C.3        1 MOL1        -0.2382
       8    H5      20.256870   17.876097   21.130707 H          1 MOL1         0.1009
       9    H6      21.092651   19.322965   20.523143 H          1 MOL1         0.1009
      10    H7      19.495267   18.890328   19.892953 H          1 MOL1         0.1009
      11    C3      20.372225   19.996907   23.110399 C.3        1 MOL1        -0.1392
      12    H8      21.182763   20.666837   22.794544 H          1 MOL1         0.0998
      13    H9      19.817676   20.553202   23.877361 H          1 MOL1         0.0998
      14    C4      21.019873   18.740173   23.756748 C.3        1 MOL1        -0.1302
      15    H10     21.674259   19.077566   24.572694 H          1 MOL1         0.0998
      16    H11     21.681509   18.239622   23.036804 H          1 MOL1         0.0998
      17    C5      20.012682   17.719609   24.333756 C.3        1 MOL1        -0.2317
      18    H12     19.283154   18.208652   24.992366 H          1 MOL1         0.1009
      19    H13     20.539039   16.960286   24.926670 H          1 MOL1         0.1009
      20    H14     19.474424   17.190164   23.539255 H          1 MOL1         0.1009
@<TRIPOS>BOND
    1     1     2    1
    2     1     3    1
    3     1     4    1
    4     1     5    1
    5     5     6    1
    6     5     7    1
    7     7     8    1
    8     7     9    1
    9     7    10    1
   10     5    11    1
   11    11    12    1
   12    11    13    1
   13    11    14    1
   14    14    15    1
   15    14    16    1
   16    14    17    1
   17    17    18    1
   18    17    19    1
   19    17    20    1
@<TRIPOS>SUBSTRUCTURE
       1 MOL1            1 RESIDUE      1      MOL     
@<SCITEGIC>MOL_PROPERTY
VConf Rank
SciTegic.value.IntegerValue
530

@<SCITEGIC>MOL_PROPERTY
Conf_Id
SciTegic.value.IntegerValue
55

@<SCITEGIC>MOL_PROPERTY
Delta U+W
SciTegic.value.DoubleValue
2.767

@<SCITEGIC>MOL_PROPERTY
U+W
SciTegic.value.DoubleValue
-33.509

@<SCITEGIC>MOL_PROPERTY
Grad RMS
SciTegic.value.DoubleValue
0.000000

@<SCITEGIC>MOL_PROPERTY
U
SciTegic.value.DoubleValue
24.552

@<SCITEGIC>MOL_PROPERTY
W
SciTegic.value.DoubleValue
-58.061

@<SCITEGIC>MOL_PROPERTY
W(PB)
SciTegic.value.DoubleValue
-59.930

@<SCITEGIC>MOL_PROPERTY
W(SA)
SciTegic.value.DoubleValue
1.869

@<SCITEGIC>MOL_PROPERTY
Valence
SciTegic.value.DoubleValue
3.726

@<SCITEGIC>MOL_PROPERTY
Coulomb
SciTegic.value.DoubleValue
20.219

@<SCITEGIC>MOL_PROPERTY
VdW
SciTegic.value.DoubleValue
0.606

@<SCITEGIC>MOL_PROPERTY
VdW6
SciTegic.value.DoubleValue
-6.395

@<SCITEGIC>MOL_PROPERTY
VdW12
SciTegic.value.DoubleValue
7.001

@<SCITEGIC>MOL_PROPERTY
Bond
SciTegic.value.DoubleValue
0.241

@<SCITEGIC>MOL_PROPERTY
Angle
SciTegic.value.DoubleValue
2.098

@<SCITEGIC>MOL_PROPERTY
Pdih
SciTegic.value.DoubleValue
1.387

@<SCITEGIC>MOL_PROPERTY
Idih
SciTegic.value.DoubleValue
0.000

@<SCITEGIC>MOL_PROPERTY
Tether
SciTegic.value.DoubleValue
0.000

@<TRIPOS>MOLECULE
guest-s10_confgen4.mol2 : confsearch ligand conformer 531
          20          19           1
SMALL
USER_CHARGES
 
@<TRIPOS>ATOM
       1    N1      18.097149   18.801083   21.647772 N.4        1 MOL1        -0.5937
       2    H1      17.678742   18.019829   22.158774 H          1 MOL1         0.3684
       3    H2      17.702843   18.794045   20.703246 H          1 MOL1         0.3684
       4    H3      17.787636   19.665174   22.099578 H          1 MOL1         0.3684
       5    C1      19.598485   18.700069   21.618643 C.3        1 MOL1         0.1270
       6    H4      19.961759   19.569193   21.061379 H          1 MOL1         0.0960
       7    C2      20.039954   17.430798   20.871632 C.3        1 MOL1        -0.2382
       8    H5      19.630678   17.416731   19.854008 H          1 MOL1         0.1009
       9    H6      19.698838   16.525799   21.389716 H          1 MOL1         0.1009
      10    H7      21.133141   17.386214   20.790435 H          1 MOL1         0.1009
      11    C3      20.223321   18.736586   23.030873 C.3        1 MOL1        -0.1392
      12    H8      19.855661   17.885928   23.620046 H          1 MOL1         0.0998
      13    H9      21.310245   18.608041   22.940654 H          1 MOL1         0.0998
      14    C4      19.938327   20.057605   23.785330 C.3        1 MOL1        -0.1302
      15    H10     18.857822   20.182104   23.938416 H          1 MOL1         0.0998
      16    H11     20.274275   20.910433   23.178645 H          1 MOL1         0.0998
      17    C5      20.647023   20.095232   25.156329 C.3        1 MOL1        -0.2317
      18    H12     20.309160   19.271248   25.798322 H          1 MOL1         0.1009
      19    H13     20.433128   21.037345   25.677632 H          1 MOL1         0.1009
      20    H14     21.735819   20.014467   25.041295 H          1 MOL1         0.1009
@<TRIPOS>BOND
    1     1     2    1
    2     1     3    1
    3     1     4    1
    4     1     5    1
    5     5     6    1
    6     5     7    1
    7     7     8    1
    8     7     9    1
    9     7    10    1
   10     5    11    1
   11    11    12    1
   12    11    13    1
   13    11    14    1
   14    14    15    1
   15    14    16    1
   16    14    17    1
   17    17    18    1
   18    17    19    1
   19    17    20    1
@<TRIPOS>SUBSTRUCTURE
       1 MOL1            1 RESIDUE      1      MOL     
@<SCITEGIC>MOL_PROPERTY
VConf Rank
SciTegic.value.IntegerValue
531

@<SCITEGIC>MOL_PROPERTY
Conf_Id
SciTegic.value.IntegerValue
74

@<SCITEGIC>MOL_PROPERTY
Delta U+W
SciTegic.value.DoubleValue
0.000

@<SCITEGIC>MOL_PROPERTY
U+W
SciTegic.value.DoubleValue
-36.276

@<SCITEGIC>MOL_PROPERTY
Grad RMS
SciTegic.value.DoubleValue
0.000000

@<SCITEGIC>MOL_PROPERTY
U
SciTegic.value.DoubleValue
22.080

@<SCITEGIC>MOL_PROPERTY
W
SciTegic.value.DoubleValue
-58.356

@<SCITEGIC>MOL_PROPERTY
W(PB)
SciTegic.value.DoubleValue
-60.289

@<SCITEGIC>MOL_PROPERTY
W(SA)
SciTegic.value.DoubleValue
1.932

@<SCITEGIC>MOL_PROPERTY
Valence
SciTegic.value.DoubleValue
1.885

@<SCITEGIC>MOL_PROPERTY
Coulomb
SciTegic.value.DoubleValue
19.559

@<SCITEGIC>MOL_PROPERTY
VdW
SciTegic.value.DoubleValue
0.637

@<SCITEGIC>MOL_PROPERTY
VdW6
SciTegic.value.DoubleValue
-4.482

@<SCITEGIC>MOL_PROPERTY
VdW12
SciTegic.value.DoubleValue
5.119

@<SCITEGIC>MOL_PROPERTY
Bond
SciTegic.value.DoubleValue
0.136

@<SCITEGIC>MOL_PROPERTY
Angle
SciTegic.value.DoubleValue
0.867

@<SCITEGIC>MOL_PROPERTY
Pdih
SciTegic.value.DoubleValue
0.882

@<SCITEGIC>MOL_PROPERTY
Idih
SciTegic.value.DoubleValue
0.000

@<SCITEGIC>MOL_PROPERTY
Tether
SciTegic.value.DoubleValue
0.000

@<TRIPOS>MOLECULE
guest-s10_confgen4.mol2 : confsearch ligand conformer 532
          20          19           1
SMALL
USER_CHARGES
 
@<TRIPOS>ATOM
       1    N1      20.258438   20.947686   21.540405 N.4        1 MOL1        -0.5937
       2    H1      19.591336   20.912921   20.764761 H          1 MOL1         0.3684
       3    H2      21.171023   20.667583   21.172358 H          1 MOL1         0.3684
       4    H3      20.334602   21.926571   21.829651 H          1 MOL1         0.3684
       5    C1      19.829242   20.067757   22.682325 C.3        1 MOL1         0.1270
       6    H4      18.853836   20.441264   23.009343 H          1 MOL1         0.0960
       7    C2      20.817433   20.196394   23.856094 C.3        1 MOL1        -0.2382
       8    H5      20.960496   21.249657   24.127001 H          1 MOL1         0.1009
       9    H6      21.797323   19.775757   23.598299 H          1 MOL1         0.1009
      10    H7      20.446021   19.680837   24.749110 H          1 MOL1         0.1009
      11    C3      19.656327   18.600995   22.223851 C.3        1 MOL1        -0.1392
      12    H8      19.029702   18.590454   21.322245 H          1 MOL1         0.0998
      13    H9      20.630473   18.188215   21.929742 H          1 MOL1         0.0998
      14    C4      19.001799   17.686170   23.287736 C.3        1 MOL1        -0.1302
      15    H10     18.056453   18.131449   23.628496 H          1 MOL1         0.0998
      16    H11     19.650723   17.602297   24.169646 H          1 MOL1         0.0998
      17    C5      18.730013   16.271251   22.732921 C.3        1 MOL1        -0.2317
      18    H12     18.047948   16.307273   21.873429 H          1 MOL1         0.1009
      19    H13     18.269814   15.635607   23.500555 H          1 MOL1         0.1009
      20    H14     19.661453   15.788102   22.410052 H          1 MOL1         0.1009
@<TRIPOS>BOND
    1     1     2    1
    2     1     3    1
    3     1     4    1
    4     1     5    1
    5     5     6    1
    6     5     7    1
    7     7     8    1
    8     7     9    1
    9     7    10    1
   10     5    11    1
   11    11    12    1
   12    11    13    1
   13    11    14    1
   14    14    15    1
   15    14    16    1
   16    14    17    1
   17    17    18    1
   18    17    19    1
   19    17    20    1
@<TRIPOS>SUBSTRUCTURE
       1 MOL1            1 RESIDUE      1      MOL     
@<SCITEGIC>MOL_PROPERTY
VConf Rank
SciTegic.value.IntegerValue
532

@<SCITEGIC>MOL_PROPERTY
Conf_Id
SciTegic.value.IntegerValue
80

@<SCITEGIC>MOL_PROPERTY
Delta U+W
SciTegic.value.DoubleValue
0.460

@<SCITEGIC>MOL_PROPERTY
U+W
SciTegic.value.DoubleValue
-35.817

@<SCITEGIC>MOL_PROPERTY
Grad RMS
SciTegic.value.DoubleValue
0.000000

@<SCITEGIC>MOL_PROPERTY
U
SciTegic.value.DoubleValue
22.495

@<SCITEGIC>MOL_PROPERTY
W
SciTegic.value.DoubleValue
-58.311

@<SCITEGIC>MOL_PROPERTY
W(PB)
SciTegic.value.DoubleValue
-60.259

@<SCITEGIC>MOL_PROPERTY
W(SA)
SciTegic.value.DoubleValue
1.948

@<SCITEGIC>MOL_PROPERTY
Valence
SciTegic.value.DoubleValue
2.419

@<SCITEGIC>MOL_PROPERTY
Coulomb
SciTegic.value.DoubleValue
19.304

@<SCITEGIC>MOL_PROPERTY
VdW
SciTegic.value.DoubleValue
0.772

@<SCITEGIC>MOL_PROPERTY
VdW6
SciTegic.value.DoubleValue
-4.635

@<SCITEGIC>MOL_PROPERTY
VdW12
SciTegic.value.DoubleValue
5.407

@<SCITEGIC>MOL_PROPERTY
Bond
SciTegic.value.DoubleValue
0.149

@<SCITEGIC>MOL_PROPERTY
Angle
SciTegic.value.DoubleValue
1.142

@<SCITEGIC>MOL_PROPERTY
Pdih
SciTegic.value.DoubleValue
1.129

@<SCITEGIC>MOL_PROPERTY
Idih
SciTegic.value.DoubleValue
0.000

@<SCITEGIC>MOL_PROPERTY
Tether
SciTegic.value.DoubleValue
0.000

@<TRIPOS>MOLECULE
guest-s10_confgen4.mol2 : confsearch ligand conformer 533
          20          19           1
SMALL
USER_CHARGES
 
@<TRIPOS>ATOM
       1    N1      20.213329   19.602742   20.482480 N.4        1 MOL1        -0.5937
       2    H1      19.515525   20.278688   20.160025 H          1 MOL1         0.3684
       3    H2      19.987720   18.701411   20.054236 H          1 MOL1         0.3684
       4    H3      21.117964   19.899879   20.107033 H          1 MOL1         0.3684
       5    C1      20.244111   19.508574   21.983458 C.3        1 MOL1         0.1270
       6    H4      20.497024   20.509084   22.347895 H          1 MOL1         0.0960
       7    C2      21.352572   18.541625   22.433548 C.3        1 MOL1        -0.2382
       8    H5      22.303888   18.789187   21.946873 H          1 MOL1         0.1009
       9    H6      21.101442   17.503552   22.182969 H          1 MOL1         0.1009
      10    H7      21.517834   18.609870   23.514769 H          1 MOL1         0.1009
      11    C3      18.851608   19.130798   22.545203 C.3        1 MOL1        -0.1392
      12    H8      18.127449   19.850985   22.141945 H          1 MOL1         0.0998
      13    H9      18.541360   18.149626   22.162090 H          1 MOL1         0.0998
      14    C4      18.737997   19.163318   24.092355 C.3        1 MOL1        -0.1302
      15    H10     17.741714   19.540854   24.362547 H          1 MOL1         0.0998
      16    H11     19.455902   19.881217   24.513304 H          1 MOL1         0.0998
      17    C5      18.914901   17.774953   24.751280 C.3        1 MOL1        -0.2317
      18    H12     18.153037   17.070827   24.392272 H          1 MOL1         0.1009
      19    H13     18.809276   17.850963   25.841257 H          1 MOL1         0.1009
      20    H14     19.899182   17.340904   24.543110 H          1 MOL1         0.1009
@<TRIPOS>BOND
    1     1     2    1
    2     1     3    1
    3     1     4    1
    4     1     5    1
    5     5     6    1
    6     5     7    1
    7     7     8    1
    8     7     9    1
    9     7    10    1
   10     5    11    1
   11    11    12    1
   12    11    13    1
   13    11    14    1
   14    14    15    1
   15    14    16    1
   16    14    17    1
   17    17    18    1
   18    17    19    1
   19    17    20    1
@<TRIPOS>SUBSTRUCTURE
       1 MOL1            1 RESIDUE      1      MOL     
@<SCITEGIC>MOL_PROPERTY
VConf Rank
SciTegic.value.IntegerValue
533

@<SCITEGIC>MOL_PROPERTY
Conf_Id
SciTegic.value.IntegerValue
52

@<SCITEGIC>MOL_PROPERTY
Delta U+W
SciTegic.value.DoubleValue
2.995

@<SCITEGIC>MOL_PROPERTY
U+W
SciTegic.value.DoubleValue
-33.282

@<SCITEGIC>MOL_PROPERTY
Grad RMS
SciTegic.value.DoubleValue
0.000000

@<SCITEGIC>MOL_PROPERTY
U
SciTegic.value.DoubleValue
25.224

@<SCITEGIC>MOL_PROPERTY
W
SciTegic.value.DoubleValue
-58.506

@<SCITEGIC>MOL_PROPERTY
W(PB)
SciTegic.value.DoubleValue
-60.411

@<SCITEGIC>MOL_PROPERTY
W(SA)
SciTegic.value.DoubleValue
1.905

@<SCITEGIC>MOL_PROPERTY
Valence
SciTegic.value.DoubleValue
4.945

@<SCITEGIC>MOL_PROPERTY
Coulomb
SciTegic.value.DoubleValue
19.467

@<SCITEGIC>MOL_PROPERTY
VdW
SciTegic.value.DoubleValue
0.813

@<SCITEGIC>MOL_PROPERTY
VdW6
SciTegic.value.DoubleValue
-5.458

@<SCITEGIC>MOL_PROPERTY
VdW12
SciTegic.value.DoubleValue
6.270

@<SCITEGIC>MOL_PROPERTY
Bond
SciTegic.value.DoubleValue
0.200

@<SCITEGIC>MOL_PROPERTY
Angle
SciTegic.value.DoubleValue
1.675

@<SCITEGIC>MOL_PROPERTY
Pdih
SciTegic.value.DoubleValue
3.070

@<SCITEGIC>MOL_PROPERTY
Idih
SciTegic.value.DoubleValue
0.000

@<SCITEGIC>MOL_PROPERTY
Tether
SciTegic.value.DoubleValue
0.000

@<TRIPOS>MOLECULE
guest-s10_confgen4.mol2 : confsearch ligand conformer 534
          20          19           1
SMALL
USER_CHARGES
 
@<TRIPOS>ATOM
       1    N1      18.417057   19.355885   23.600546 N.4        1 MOL1        -0.5937
       2    H1      18.699757   19.244673   24.577321 H          1 MOL1         0.3684
       3    H2      17.397200   19.276176   23.566128 H          1 MOL1         0.3684
       4    H3      18.662397   20.307035   23.317510 H          1 MOL1         0.3684
       5    C1      19.081291   18.334841   22.717647 C.3        1 MOL1         0.1270
       6    H4      18.695305   18.484922   21.704619 H          1 MOL1         0.0960
       7    C2      18.693278   16.918521   23.175078 C.3        1 MOL1        -0.2382
       8    H5      19.071375   16.709414   24.183629 H          1 MOL1         0.1009
       9    H6      19.101098   16.161804   22.493384 H          1 MOL1         0.1009
      10    H7      17.602920   16.798894   23.187062 H          1 MOL1         0.1009
      11    C3      20.620697   18.486308   22.678609 C.3        1 MOL1        -0.1392
      12    H8      21.012166   18.595802   23.698578 H          1 MOL1         0.0998
      13    H9      21.054194   17.555236   22.289675 H          1 MOL1         0.0998
      14    C4      21.137967   19.640983   21.780966 C.3        1 MOL1        -0.1302
      15    H10     20.780522   19.498184   20.751463 H          1 MOL1         0.0998
      16    H11     22.233842   19.572093   21.732617 H          1 MOL1         0.0998
      17    C5      20.760779   21.059380   22.265822 C.3        1 MOL1        -0.2317
      18    H12     21.324853   21.814549   21.702946 H          1 MOL1         0.1009
      19    H13     20.996398   21.193894   23.329639 H          1 MOL1         0.1009
      20    H14     19.697295   21.271675   22.106536 H          1 MOL1         0.1009
@<TRIPOS>BOND
    1     1     2    1
    2     1     3    1
    3     1     4    1
    4     1     5    1
    5     5     6    1
    6     5     7    1
    7     7     8    1
    8     7     9    1
    9     7    10    1
   10     5    11    1
   11    11    12    1
   12    11    13    1
   13    11    14    1
   14    14    15    1
   15    14    16    1
   16    14    17    1
   17    17    18    1
   18    17    19    1
   19    17    20    1
@<TRIPOS>SUBSTRUCTURE
       1 MOL1            1 RESIDUE      1      MOL     
@<SCITEGIC>MOL_PROPERTY
VConf Rank
SciTegic.value.IntegerValue
534

@<SCITEGIC>MOL_PROPERTY
Conf_Id
SciTegic.value.IntegerValue
54

@<SCITEGIC>MOL_PROPERTY
Delta U+W
SciTegic.value.DoubleValue
2.752

@<SCITEGIC>MOL_PROPERTY
U+W
SciTegic.value.DoubleValue
-33.525

@<SCITEGIC>MOL_PROPERTY
Grad RMS
SciTegic.value.DoubleValue
0.000000

@<SCITEGIC>MOL_PROPERTY
U
SciTegic.value.DoubleValue
24.337

@<SCITEGIC>MOL_PROPERTY
W
SciTegic.value.DoubleValue
-57.862

@<SCITEGIC>MOL_PROPERTY
W(PB)
SciTegic.value.DoubleValue
-59.764

@<SCITEGIC>MOL_PROPERTY
W(SA)
SciTegic.value.DoubleValue
1.901

@<SCITEGIC>MOL_PROPERTY
Valence
SciTegic.value.DoubleValue
3.593

@<SCITEGIC>MOL_PROPERTY
Coulomb
SciTegic.value.DoubleValue
20.067

@<SCITEGIC>MOL_PROPERTY
VdW
SciTegic.value.DoubleValue
0.677

@<SCITEGIC>MOL_PROPERTY
VdW6
SciTegic.value.DoubleValue
-5.466

@<SCITEGIC>MOL_PROPERTY
VdW12
SciTegic.value.DoubleValue
6.144

@<SCITEGIC>MOL_PROPERTY
Bond
SciTegic.value.DoubleValue
0.191

@<SCITEGIC>MOL_PROPERTY
Angle
SciTegic.value.DoubleValue
1.557

@<SCITEGIC>MOL_PROPERTY
Pdih
SciTegic.value.DoubleValue
1.845

@<SCITEGIC>MOL_PROPERTY
Idih
SciTegic.value.DoubleValue
0.000

@<SCITEGIC>MOL_PROPERTY
Tether
SciTegic.value.DoubleValue
0.000

@<TRIPOS>MOLECULE
guest-s10_confgen4.mol2 : confsearch ligand conformer 535
          20          19           1
SMALL
USER_CHARGES
 
@<TRIPOS>ATOM
       1    N1      20.396268   20.078045   21.085153 N.4        1 MOL1        -0.5937
       2    H1      20.181957   20.891984   20.502719 H          1 MOL1         0.3684
       3    H2      20.894217   19.405500   20.495711 H          1 MOL1         0.3684
       4    H3      21.043617   20.386231   21.814131 H          1 MOL1         0.3684
       5    C1      19.148383   19.479090   21.675002 C.3        1 MOL1         0.1270
       6    H4      18.517025   19.198294   20.826142 H          1 MOL1         0.0960
       7    C2      18.374369   20.519269   22.504322 C.3        1 MOL1        -0.2382
       8    H5      17.466401   20.078315   22.934003 H          1 MOL1         0.1009
       9    H6      18.067205   21.361707   21.872629 H          1 MOL1         0.1009
      10    H7      18.982940   20.920094   23.323482 H          1 MOL1         0.1009
      11    C3      19.433530   18.188492   22.480050 C.3        1 MOL1        -0.1392
      12    H8      18.477540   17.756230   22.804038 H          1 MOL1         0.0998
      13    H9      19.883838   17.450066   21.803769 H          1 MOL1         0.0998
      14    C4      20.354268   18.376358   23.713456 C.3        1 MOL1        -0.1302
      15    H10     19.895752   19.073513   24.427424 H          1 MOL1         0.0998
      16    H11     21.312591   18.817206   23.407791 H          1 MOL1         0.0998
      17    C5      20.623345   17.035040   24.428854 C.3        1 MOL1        -0.2317
      18    H12     21.274109   17.184062   25.300270 H          1 MOL1         0.1009
      19    H13     21.118522   16.321226   23.757668 H          1 MOL1         0.1009
      20    H14     19.688199   16.580578   24.781258 H          1 MOL1         0.1009
@<TRIPOS>BOND
    1     1     2    1
    2     1     3    1
    3     1     4    1
    4     1     5    1
    5     5     6    1
    6     5     7    1
    7     7     8    1
    8     7     9    1
    9     7    10    1
   10     5    11    1
   11    11    12    1
   12    11    13    1
   13    11    14    1
   14    14    15    1
   15    14    16    1
   16    14    17    1
   17    17    18    1
   18    17    19    1
   19    17    20    1
@<TRIPOS>SUBSTRUCTURE
       1 MOL1            1 RESIDUE      1      MOL     
@<SCITEGIC>MOL_PROPERTY
VConf Rank
SciTegic.value.IntegerValue
535

@<SCITEGIC>MOL_PROPERTY
Conf_Id
SciTegic.value.IntegerValue
63

@<SCITEGIC>MOL_PROPERTY
Delta U+W
SciTegic.value.DoubleValue
0.420

@<SCITEGIC>MOL_PROPERTY
U+W
SciTegic.value.DoubleValue
-35.856

@<SCITEGIC>MOL_PROPERTY
Grad RMS
SciTegic.value.DoubleValue
0.000000

@<SCITEGIC>MOL_PROPERTY
U
SciTegic.value.DoubleValue
22.625

@<SCITEGIC>MOL_PROPERTY
W
SciTegic.value.DoubleValue
-58.481

@<SCITEGIC>MOL_PROPERTY
W(PB)
SciTegic.value.DoubleValue
-60.400

@<SCITEGIC>MOL_PROPERTY
W(SA)
SciTegic.value.DoubleValue
1.919

@<SCITEGIC>MOL_PROPERTY
Valence
SciTegic.value.DoubleValue
2.404

@<SCITEGIC>MOL_PROPERTY
Coulomb
SciTegic.value.DoubleValue
19.464

@<SCITEGIC>MOL_PROPERTY
VdW
SciTegic.value.DoubleValue
0.757

@<SCITEGIC>MOL_PROPERTY
VdW6
SciTegic.value.DoubleValue
-5.074

@<SCITEGIC>MOL_PROPERTY
VdW12
SciTegic.value.DoubleValue
5.830

@<SCITEGIC>MOL_PROPERTY
Bond
SciTegic.value.DoubleValue
0.172

@<SCITEGIC>MOL_PROPERTY
Angle
SciTegic.value.DoubleValue
1.207

@<SCITEGIC>MOL_PROPERTY
Pdih
SciTegic.value.DoubleValue
1.025

@<SCITEGIC>MOL_PROPERTY
Idih
SciTegic.value.DoubleValue
0.000

@<SCITEGIC>MOL_PROPERTY
Tether
SciTegic.value.DoubleValue
0.000

@<TRIPOS>MOLECULE
guest-s10_confgen4.mol2 : confsearch ligand conformer 536
          20          19           1
SMALL
USER_CHARGES
 
@<TRIPOS>ATOM
       1    N1      20.606072   19.961509   21.609393 N.4        1 MOL1        -0.5937
       2    H1      20.255912   20.757005   22.149253 H          1 MOL1         0.3684
       3    H2      20.138474   19.976833   20.699701 H          1 MOL1         0.3684
       4    H3      21.603507   20.119972   21.443400 H          1 MOL1         0.3684
       5    C1      20.365957   18.662991   22.330763 C.3        1 MOL1         0.1270
       6    H4      20.898808   18.729376   23.284069 H          1 MOL1         0.0960
       7    C2      20.951818   17.484168   21.536625 C.3        1 MOL1        -0.2382
       8    H5      22.023905   17.631354   21.357174 H          1 MOL1         0.1009
       9    H6      20.454790   17.373230   20.564817 H          1 MOL1         0.1009
      10    H7      20.833489   16.544294   22.090031 H          1 MOL1         0.1009
      11    C3      18.868796   18.420212   22.628333 C.3        1 MOL1        -0.1392
      12    H8      18.318567   18.334168   21.681930 H          1 MOL1         0.0998
      13    H9      18.757847   17.452962   23.136314 H          1 MOL1         0.0998
      14    C4      18.208433   19.517998   23.500506 C.3        1 MOL1        -0.1302
      15    H10     17.150999   19.259414   23.651735 H          1 MOL1         0.0998
      16    H11     18.210638   20.478824   22.968177 H          1 MOL1         0.0998
      17    C5      18.885363   19.684491   24.880149 C.3        1 MOL1        -0.2317
      18    H12     18.895019   18.735461   25.431899 H          1 MOL1         0.1009
      19    H13     18.342496   20.419446   25.488595 H          1 MOL1         0.1009
      20    H14     19.920469   20.035428   24.783738 H          1 MOL1         0.1009
@<TRIPOS>BOND
    1     1     2    1
    2     1     3    1
    3     1     4    1
    4     1     5    1
    5     5     6    1
    6     5     7    1
    7     7     8    1
    8     7     9    1
    9     7    10    1
   10     5    11    1
   11    11    12    1
   12    11    13    1
   13    11    14    1
   14    14    15    1
   15    14    16    1
   16    14    17    1
   17    17    18    1
   18    17    19    1
   19    17    20    1
@<TRIPOS>SUBSTRUCTURE
       1 MOL1            1 RESIDUE      1      MOL     
@<SCITEGIC>MOL_PROPERTY
VConf Rank
SciTegic.value.IntegerValue
536

@<SCITEGIC>MOL_PROPERTY
Conf_Id
SciTegic.value.IntegerValue
50

@<SCITEGIC>MOL_PROPERTY
Delta U+W
SciTegic.value.DoubleValue
0.466

@<SCITEGIC>MOL_PROPERTY
U+W
SciTegic.value.DoubleValue
-35.811

@<SCITEGIC>MOL_PROPERTY
Grad RMS
SciTegic.value.DoubleValue
0.000000

@<SCITEGIC>MOL_PROPERTY
U
SciTegic.value.DoubleValue
22.369

@<SCITEGIC>MOL_PROPERTY
W
SciTegic.value.DoubleValue
-58.180

@<SCITEGIC>MOL_PROPERTY
W(PB)
SciTegic.value.DoubleValue
-60.103

@<SCITEGIC>MOL_PROPERTY
W(SA)
SciTegic.value.DoubleValue
1.923

@<SCITEGIC>MOL_PROPERTY
Valence
SciTegic.value.DoubleValue
2.168

@<SCITEGIC>MOL_PROPERTY
Coulomb
SciTegic.value.DoubleValue
19.636

@<SCITEGIC>MOL_PROPERTY
VdW
SciTegic.value.DoubleValue
0.566

@<SCITEGIC>MOL_PROPERTY
VdW6
SciTegic.value.DoubleValue
-5.263

@<SCITEGIC>MOL_PROPERTY
VdW12
SciTegic.value.DoubleValue
5.829

@<SCITEGIC>MOL_PROPERTY
Bond
SciTegic.value.DoubleValue
0.162

@<SCITEGIC>MOL_PROPERTY
Angle
SciTegic.value.DoubleValue
1.066

@<SCITEGIC>MOL_PROPERTY
Pdih
SciTegic.value.DoubleValue
0.939

@<SCITEGIC>MOL_PROPERTY
Idih
SciTegic.value.DoubleValue
0.000

@<SCITEGIC>MOL_PROPERTY
Tether
SciTegic.value.DoubleValue
0.000

@<TRIPOS>MOLECULE
guest-s10_confgen4.mol2 : confsearch ligand conformer 537
          20          19           1
SMALL
USER_CHARGES
 
@<TRIPOS>ATOM
       1    N1      20.743199   19.494329   24.729361 N.4        1 MOL1        -0.5937
       2    H1      21.689286   19.112290   24.645919 H          1 MOL1         0.3684
       3    H2      20.271539   18.985270   25.481204 H          1 MOL1         0.3684
       4    H3      20.835989   20.467569   25.032557 H          1 MOL1         0.3684
       5    C1      19.986647   19.391265   23.432601 C.3        1 MOL1         0.1270
       6    H4      20.564965   19.958342   22.696576 H          1 MOL1         0.0960
       7    C2      18.599087   20.043358   23.578948 C.3        1 MOL1        -0.2382
       8    H5      18.001207   19.532832   24.344173 H          1 MOL1         0.1009
       9    H6      18.038307   20.012800   22.638533 H          1 MOL1         0.1009
      10    H7      18.695975   21.096036   23.871540 H          1 MOL1         0.1009
      11    C3      19.882259   17.927155   22.938923 C.3        1 MOL1        -0.1392
      12    H8      20.629081   17.316811   23.463719 H          1 MOL1         0.0998
      13    H9      18.907853   17.499393   23.210153 H          1 MOL1         0.0998
      14    C4      20.134109   17.757931   21.419148 C.3        1 MOL1        -0.1302
      15    H10     20.117098   16.685786   21.178009 H          1 MOL1         0.0998
      16    H11     21.145898   18.109793   21.173062 H          1 MOL1         0.0998
      17    C5      19.106876   18.484893   20.523295 C.3        1 MOL1        -0.2317
      18    H12     18.080741   18.186258   20.774077 H          1 MOL1         0.1009
      19    H13     19.277937   18.239510   19.467091 H          1 MOL1         0.1009
      20    H14     19.187625   19.574426   20.623441 H          1 MOL1         0.1009
@<TRIPOS>BOND
    1     1     2    1
    2     1     3    1
    3     1     4    1
    4     1     5    1
    5     5     6    1
    6     5     7    1
    7     7     8    1
    8     7     9    1
    9     7    10    1
   10     5    11    1
   11    11    12    1
   12    11    13    1
   13    11    14    1
   14    14    15    1
   15    14    16    1
   16    14    17    1
   17    17    18    1
   18    17    19    1
   19    17    20    1
@<TRIPOS>SUBSTRUCTURE
       1 MOL1            1 RESIDUE      1      MOL     
@<SCITEGIC>MOL_PROPERTY
VConf Rank
SciTegic.value.IntegerValue
537

@<SCITEGIC>MOL_PROPERTY
Conf_Id
SciTegic.value.IntegerValue
3

@<SCITEGIC>MOL_PROPERTY
Delta U+W
SciTegic.value.DoubleValue
3.093

@<SCITEGIC>MOL_PROPERTY
U+W
SciTegic.value.DoubleValue
-33.184

@<SCITEGIC>MOL_PROPERTY
Grad RMS
SciTegic.value.DoubleValue
0.000000

@<SCITEGIC>MOL_PROPERTY
U
SciTegic.value.DoubleValue
25.256

@<SCITEGIC>MOL_PROPERTY
W
SciTegic.value.DoubleValue
-58.439

@<SCITEGIC>MOL_PROPERTY
W(PB)
SciTegic.value.DoubleValue
-60.337

@<SCITEGIC>MOL_PROPERTY
W(SA)
SciTegic.value.DoubleValue
1.898

@<SCITEGIC>MOL_PROPERTY
Valence
SciTegic.value.DoubleValue
4.963

@<SCITEGIC>MOL_PROPERTY
Coulomb
SciTegic.value.DoubleValue
19.511

@<SCITEGIC>MOL_PROPERTY
VdW
SciTegic.value.DoubleValue
0.782

@<SCITEGIC>MOL_PROPERTY
VdW6
SciTegic.value.DoubleValue
-5.429

@<SCITEGIC>MOL_PROPERTY
VdW12
SciTegic.value.DoubleValue
6.211

@<SCITEGIC>MOL_PROPERTY
Bond
SciTegic.value.DoubleValue
0.174

@<SCITEGIC>MOL_PROPERTY
Angle
SciTegic.value.DoubleValue
1.377

@<SCITEGIC>MOL_PROPERTY
Pdih
SciTegic.value.DoubleValue
3.412

@<SCITEGIC>MOL_PROPERTY
Idih
SciTegic.value.DoubleValue
0.000

@<SCITEGIC>MOL_PROPERTY
Tether
SciTegic.value.DoubleValue
0.000

@<TRIPOS>MOLECULE
guest-s10_confgen4.mol2 : confsearch ligand conformer 538
          20          19           1
SMALL
USER_CHARGES
 
@<TRIPOS>ATOM
       1    N1      18.819276   20.970062   23.346534 N.4        1 MOL1        -0.5937
       2    H1      18.085437   21.085066   24.050729 H          1 MOL1         0.3684
       3    H2      18.450583   21.333611   22.463513 H          1 MOL1         0.3684
       4    H3      19.601295   21.569485   23.621893 H          1 MOL1         0.3684
       5    C1      19.242500   19.532123   23.221650 C.3        1 MOL1         0.1270
       6    H4      18.347915   18.973458   22.930604 H          1 MOL1         0.0960
       7    C2      19.728996   18.997145   24.580775 C.3        1 MOL1        -0.2382
       8    H5      19.908917   17.916579   24.541507 H          1 MOL1         0.1009
       9    H6      18.974840   19.172349   25.357748 H          1 MOL1         0.1009
      10    H7      20.658698   19.489576   24.891666 H          1 MOL1         0.1009
      11    C3      20.307520   19.356109   22.112967 C.3        1 MOL1        -0.1392
      12    H8      19.937330   19.826246   21.192393 H          1 MOL1         0.0998
      13    H9      21.216201   19.906127   22.391384 H          1 MOL1         0.0998
      14    C4      20.683348   17.886647   21.792748 C.3        1 MOL1        -0.1302
      15    H10     21.181161   17.423402   22.655220 H          1 MOL1         0.0998
      16    H11     21.424072   17.881895   20.980872 H          1 MOL1         0.0998
      17    C5      19.469279   17.029595   21.367720 C.3        1 MOL1        -0.2317
      18    H12     18.953087   17.475137   20.507374 H          1 MOL1         0.1009
      19    H13     18.745141   16.922667   22.185189 H          1 MOL1         0.1009
      20    H14     19.792711   16.021187   21.078715 H          1 MOL1         0.1009
@<TRIPOS>BOND
    1     1     2    1
    2     1     3    1
    3     1     4    1
    4     1     5    1
    5     5     6    1
    6     5     7    1
    7     7     8    1
    8     7     9    1
    9     7    10    1
   10     5    11    1
   11    11    12    1
   12    11    13    1
   13    11    14    1
   14    14    15    1
   15    14    16    1
   16    14    17    1
   17    17    18    1
   18    17    19    1
   19    17    20    1
@<TRIPOS>SUBSTRUCTURE
       1 MOL1            1 RESIDUE      1      MOL     
@<SCITEGIC>MOL_PROPERTY
VConf Rank
SciTegic.value.IntegerValue
538

@<SCITEGIC>MOL_PROPERTY
Conf_Id
SciTegic.value.IntegerValue
64

@<SCITEGIC>MOL_PROPERTY
Delta U+W
SciTegic.value.DoubleValue
0.544

@<SCITEGIC>MOL_PROPERTY
U+W
SciTegic.value.DoubleValue
-35.732

@<SCITEGIC>MOL_PROPERTY
Grad RMS
SciTegic.value.DoubleValue
0.000000

@<SCITEGIC>MOL_PROPERTY
U
SciTegic.value.DoubleValue
22.800

@<SCITEGIC>MOL_PROPERTY
W
SciTegic.value.DoubleValue
-58.532

@<SCITEGIC>MOL_PROPERTY
W(PB)
SciTegic.value.DoubleValue
-60.437

@<SCITEGIC>MOL_PROPERTY
W(SA)
SciTegic.value.DoubleValue
1.905

@<SCITEGIC>MOL_PROPERTY
Valence
SciTegic.value.DoubleValue
2.662

@<SCITEGIC>MOL_PROPERTY
Coulomb
SciTegic.value.DoubleValue
19.485

@<SCITEGIC>MOL_PROPERTY
VdW
SciTegic.value.DoubleValue
0.653

@<SCITEGIC>MOL_PROPERTY
VdW6
SciTegic.value.DoubleValue
-5.460

@<SCITEGIC>MOL_PROPERTY
VdW12
SciTegic.value.DoubleValue
6.113

@<SCITEGIC>MOL_PROPERTY
Bond
SciTegic.value.DoubleValue
0.174

@<SCITEGIC>MOL_PROPERTY
Angle
SciTegic.value.DoubleValue
1.378

@<SCITEGIC>MOL_PROPERTY
Pdih
SciTegic.value.DoubleValue
1.109

@<SCITEGIC>MOL_PROPERTY
Idih
SciTegic.value.DoubleValue
0.000

@<SCITEGIC>MOL_PROPERTY
Tether
SciTegic.value.DoubleValue
0.000

@<TRIPOS>MOLECULE
guest-s10_confgen4.mol2 : confsearch ligand conformer 539
          20          19           1
SMALL
USER_CHARGES
 
@<TRIPOS>ATOM
       1    N1      18.500931   19.901951   21.338768 N.4        1 MOL1        -0.5937
       2    H1      18.988251   19.242045   20.728591 H          1 MOL1         0.3684
       3    H2      18.519520   20.815540   20.877659 H          1 MOL1         0.3684
       4    H3      17.521916   19.607715   21.389902 H          1 MOL1         0.3684
       5    C1      19.133326   19.961140   22.703101 C.3        1 MOL1         0.1270
       6    H4      18.552648   20.695266   23.270407 H          1 MOL1         0.0960
       7    C2      20.576143   20.485022   22.616208 C.3        1 MOL1        -0.2382
       8    H5      21.187789   19.867971   21.947744 H          1 MOL1         0.1009
       9    H6      21.047019   20.499982   23.606860 H          1 MOL1         0.1009
      10    H7      20.588255   21.510309   22.226835 H          1 MOL1         0.1009
      11    C3      19.023975   18.614859   23.462383 C.3        1 MOL1        -0.1392
      12    H8      19.337967   18.758026   24.504692 H          1 MOL1         0.0998
      13    H9      17.958760   18.354214   23.515873 H          1 MOL1         0.0998
      14    C4      19.788654   17.412389   22.842255 C.3        1 MOL1        -0.1302
      15    H10     19.839306   17.501842   21.749180 H          1 MOL1         0.0998
      16    H11     19.213542   16.497100   23.040937 H          1 MOL1         0.0998
      17    C5      21.207158   17.214281   23.426503 C.3        1 MOL1        -0.2317
      18    H12     21.859442   18.071874   23.228923 H          1 MOL1         0.1009
      19    H13     21.683020   16.328877   22.985389 H          1 MOL1         0.1009
      20    H14     21.166994   17.062539   24.512967 H          1 MOL1         0.1009
@<TRIPOS>BOND
    1     1     2    1
    2     1     3    1
    3     1     4    1
    4     1     5    1
    5     5     6    1
    6     5     7    1
    7     7     8    1
    8     7     9    1
    9     7    10    1
   10     5    11    1
   11    11    12    1
   12    11    13    1
   13    11    14    1
   14    14    15    1
   15    14    16    1
   16    14    17    1
   17    17    18    1
   18    17    19    1
   19    17    20    1
@<TRIPOS>SUBSTRUCTURE
       1 MOL1            1 RESIDUE      1      MOL     
@<SCITEGIC>MOL_PROPERTY
VConf Rank
SciTegic.value.IntegerValue
539

@<SCITEGIC>MOL_PROPERTY
Conf_Id
SciTegic.value.IntegerValue
35

@<SCITEGIC>MOL_PROPERTY
Delta U+W
SciTegic.value.DoubleValue
3.004

@<SCITEGIC>MOL_PROPERTY
U+W
SciTegic.value.DoubleValue
-33.272

@<SCITEGIC>MOL_PROPERTY
Grad RMS
SciTegic.value.DoubleValue
0.000000

@<SCITEGIC>MOL_PROPERTY
U
SciTegic.value.DoubleValue
25.367

@<SCITEGIC>MOL_PROPERTY
W
SciTegic.value.DoubleValue
-58.639

@<SCITEGIC>MOL_PROPERTY
W(PB)
SciTegic.value.DoubleValue
-60.512

@<SCITEGIC>MOL_PROPERTY
W(SA)
SciTegic.value.DoubleValue
1.873

@<SCITEGIC>MOL_PROPERTY
Valence
SciTegic.value.DoubleValue
4.943

@<SCITEGIC>MOL_PROPERTY
Coulomb
SciTegic.value.DoubleValue
19.661

@<SCITEGIC>MOL_PROPERTY
VdW
SciTegic.value.DoubleValue
0.764

@<SCITEGIC>MOL_PROPERTY
VdW6
SciTegic.value.DoubleValue
-5.871

@<SCITEGIC>MOL_PROPERTY
VdW12
SciTegic.value.DoubleValue
6.636

@<SCITEGIC>MOL_PROPERTY
Bond
SciTegic.value.DoubleValue
0.230

@<SCITEGIC>MOL_PROPERTY
Angle
SciTegic.value.DoubleValue
1.857

@<SCITEGIC>MOL_PROPERTY
Pdih
SciTegic.value.DoubleValue
2.855

@<SCITEGIC>MOL_PROPERTY
Idih
SciTegic.value.DoubleValue
0.000

@<SCITEGIC>MOL_PROPERTY
Tether
SciTegic.value.DoubleValue
0.000

@<TRIPOS>MOLECULE
guest-s10_confgen4.mol2 : confsearch ligand conformer 540
          20          19           1
SMALL
USER_CHARGES
 
@<TRIPOS>ATOM
       1    N1      20.819518   19.339556   21.280120 N.4        1 MOL1        -0.5937
       2    H1      21.791168   19.218764   20.981947 H          1 MOL1         0.3684
       3    H2      20.402763   20.054607   20.677956 H          1 MOL1         0.3684
       4    H3      20.328157   18.462312   21.098452 H          1 MOL1         0.3684
       5    C1      20.731219   19.722464   22.732031 C.3        1 MOL1         0.1270
       6    H4      21.260531   20.677112   22.812055 H          1 MOL1         0.0960
       7    C2      21.472065   18.711701   23.625348 C.3        1 MOL1        -0.2382
       8    H5      21.055082   17.702393   23.526770 H          1 MOL1         0.1009
       9    H6      21.412054   19.007695   24.679960 H          1 MOL1         0.1009
      10    H7      22.533500   18.664109   23.353213 H          1 MOL1         0.1009
      11    C3      19.277002   19.975250   23.206021 C.3        1 MOL1        -0.1392
      12    H8      19.327456   20.538658   24.147067 H          1 MOL1         0.0998
      13    H9      18.781939   20.646143   22.491856 H          1 MOL1         0.0998
      14    C4      18.378630   18.729527   23.446226 C.3        1 MOL1        -0.1302
      15    H10     17.405767   19.079742   23.818667 H          1 MOL1         0.0998
      16    H11     18.795499   18.108623   24.250794 H          1 MOL1         0.0998
      17    C5      18.132981   17.859601   22.192509 C.3        1 MOL1        -0.2317
      18    H12     17.796492   18.469591   21.344082 H          1 MOL1         0.1009
      19    H13     17.353800   17.113228   22.394932 H          1 MOL1         0.1009
      20    H14     19.034985   17.310467   21.899064 H          1 MOL1         0.1009
@<TRIPOS>BOND
    1     1     2    1
    2     1     3    1
    3     1     4    1
    4     1     5    1
    5     5     6    1
    6     5     7    1
    7     7     8    1
    8     7     9    1
    9     7    10    1
   10     5    11    1
   11    11    12    1
   12    11    13    1
   13    11    14    1
   14    14    15    1
   15    14    16    1
   16    14    17    1
   17    17    18    1
   18    17    19    1
   19    17    20    1
@<TRIPOS>SUBSTRUCTURE
       1 MOL1            1 RESIDUE      1      MOL     
@<SCITEGIC>MOL_PROPERTY
VConf Rank
SciTegic.value.IntegerValue
540

@<SCITEGIC>MOL_PROPERTY
Conf_Id
SciTegic.value.IntegerValue
55

@<SCITEGIC>MOL_PROPERTY
Delta U+W
SciTegic.value.DoubleValue
2.767

@<SCITEGIC>MOL_PROPERTY
U+W
SciTegic.value.DoubleValue
-33.509

@<SCITEGIC>MOL_PROPERTY
Grad RMS
SciTegic.value.DoubleValue
0.000000

@<SCITEGIC>MOL_PROPERTY
U
SciTegic.value.DoubleValue
24.552

@<SCITEGIC>MOL_PROPERTY
W
SciTegic.value.DoubleValue
-58.061

@<SCITEGIC>MOL_PROPERTY
W(PB)
SciTegic.value.DoubleValue
-59.930

@<SCITEGIC>MOL_PROPERTY
W(SA)
SciTegic.value.DoubleValue
1.869

@<SCITEGIC>MOL_PROPERTY
Valence
SciTegic.value.DoubleValue
3.726

@<SCITEGIC>MOL_PROPERTY
Coulomb
SciTegic.value.DoubleValue
20.219

@<SCITEGIC>MOL_PROPERTY
VdW
SciTegic.value.DoubleValue
0.606

@<SCITEGIC>MOL_PROPERTY
VdW6
SciTegic.value.DoubleValue
-6.395

@<SCITEGIC>MOL_PROPERTY
VdW12
SciTegic.value.DoubleValue
7.001

@<SCITEGIC>MOL_PROPERTY
Bond
SciTegic.value.DoubleValue
0.241

@<SCITEGIC>MOL_PROPERTY
Angle
SciTegic.value.DoubleValue
2.098

@<SCITEGIC>MOL_PROPERTY
Pdih
SciTegic.value.DoubleValue
1.387

@<SCITEGIC>MOL_PROPERTY
Idih
SciTegic.value.DoubleValue
0.000

@<SCITEGIC>MOL_PROPERTY
Tether
SciTegic.value.DoubleValue
0.000

@<TRIPOS>MOLECULE
guest-s10_confgen4.mol2 : confsearch ligand conformer 541
          20          19           1
SMALL
USER_CHARGES
 
@<TRIPOS>ATOM
       1    N1      19.588567   17.211668   21.811530 N.4        1 MOL1        -0.5937
       2    H1      20.166387   17.432235   20.996657 H          1 MOL1         0.3684
       3    H2      18.952579   16.457248   21.539451 H          1 MOL1         0.3684
       4    H3      20.207762   16.840252   22.536257 H          1 MOL1         0.3684
       5    C1      18.833969   18.420389   22.295923 C.3        1 MOL1         0.1270
       6    H4      18.249972   18.099820   23.164295 H          1 MOL1         0.0960
       7    C2      17.857990   18.916175   21.216279 C.3        1 MOL1        -0.2382
       8    H5      17.164752   18.118177   20.923221 H          1 MOL1         0.1009
       9    H6      18.393986   19.249841   20.318968 H          1 MOL1         0.1009
      10    H7      17.258727   19.756493   21.588286 H          1 MOL1         0.1009
      11    C3      19.770251   19.565902   22.740136 C.3        1 MOL1        -0.1392
      12    H8      20.385838   19.890813   21.890782 H          1 MOL1         0.0998
      13    H9      19.158703   20.430178   23.031861 H          1 MOL1         0.0998
      14    C4      20.682232   19.176456   23.928472 C.3        1 MOL1        -0.1302
      15    H10     21.345224   18.348560   23.643067 H          1 MOL1         0.0998
      16    H11     20.066763   18.817429   24.765454 H          1 MOL1         0.0998
      17    C5      21.542389   20.368091   24.401167 C.3        1 MOL1        -0.2317
      18    H12     22.192146   20.730914   23.594055 H          1 MOL1         0.1009
      19    H13     22.183269   20.074043   25.242531 H          1 MOL1         0.1009
      20    H14     20.912500   21.203240   24.734333 H          1 MOL1         0.1009
@<TRIPOS>BOND
    1     1     2    1
    2     1     3    1
    3     1     4    1
    4     1     5    1
    5     5     6    1
    6     5     7    1
    7     7     8    1
    8     7     9    1
    9     7    10    1
   10     5    11    1
   11    11    12    1
   12    11    13    1
   13    11    14    1
   14    14    15    1
   15    14    16    1
   16    14    17    1
   17    17    18    1
   18    17    19    1
   19    17    20    1
@<TRIPOS>SUBSTRUCTURE
       1 MOL1            1 RESIDUE      1      MOL     
@<SCITEGIC>MOL_PROPERTY
VConf Rank
SciTegic.value.IntegerValue
541

@<SCITEGIC>MOL_PROPERTY
Conf_Id
SciTegic.value.IntegerValue
74

@<SCITEGIC>MOL_PROPERTY
Delta U+W
SciTegic.value.DoubleValue
0.000

@<SCITEGIC>MOL_PROPERTY
U+W
SciTegic.value.DoubleValue
-36.276

@<SCITEGIC>MOL_PROPERTY
Grad RMS
SciTegic.value.DoubleValue
0.000000

@<SCITEGIC>MOL_PROPERTY
U
SciTegic.value.DoubleValue
22.080

@<SCITEGIC>MOL_PROPERTY
W
SciTegic.value.DoubleValue
-58.356

@<SCITEGIC>MOL_PROPERTY
W(PB)
SciTegic.value.DoubleValue
-60.289

@<SCITEGIC>MOL_PROPERTY
W(SA)
SciTegic.value.DoubleValue
1.932

@<SCITEGIC>MOL_PROPERTY
Valence
SciTegic.value.DoubleValue
1.885

@<SCITEGIC>MOL_PROPERTY
Coulomb
SciTegic.value.DoubleValue
19.559

@<SCITEGIC>MOL_PROPERTY
VdW
SciTegic.value.DoubleValue
0.637

@<SCITEGIC>MOL_PROPERTY
VdW6
SciTegic.value.DoubleValue
-4.482

@<SCITEGIC>MOL_PROPERTY
VdW12
SciTegic.value.DoubleValue
5.119

@<SCITEGIC>MOL_PROPERTY
Bond
SciTegic.value.DoubleValue
0.136

@<SCITEGIC>MOL_PROPERTY
Angle
SciTegic.value.DoubleValue
0.867

@<SCITEGIC>MOL_PROPERTY
Pdih
SciTegic.value.DoubleValue
0.882

@<SCITEGIC>MOL_PROPERTY
Idih
SciTegic.value.DoubleValue
0.000

@<SCITEGIC>MOL_PROPERTY
Tether
SciTegic.value.DoubleValue
0.000

@<TRIPOS>MOLECULE
guest-s10_confgen4.mol2 : confsearch ligand conformer 542
          20          19           1
SMALL
USER_CHARGES
 
@<TRIPOS>ATOM
       1    N1      21.634860   19.113168   24.167777 N.4        1 MOL1        -0.5937
       2    H1      22.230277   19.766767   23.651884 H          1 MOL1         0.3684
       3    H2      22.014734   18.174105   24.024312 H          1 MOL1         0.3684
       4    H3      21.735606   19.333314   25.162295 H          1 MOL1         0.3684
       5    C1      20.199616   19.202158   23.726619 C.3        1 MOL1         0.1270
       6    H4      19.881416   20.231521   23.919040 H          1 MOL1         0.0960
       7    C2      19.322775   18.256939   24.568350 C.3        1 MOL1        -0.2382
       8    H5      19.477806   18.437373   25.639159 H          1 MOL1         0.1009
       9    H6      19.561005   17.205930   24.362909 H          1 MOL1         0.1009
      10    H7      18.257266   18.414091   24.365329 H          1 MOL1         0.1009
      11    C3      20.062467   18.929124   22.210660 C.3        1 MOL1        -0.1392
      12    H8      20.788742   19.556809   21.677557 H          1 MOL1         0.0998
      13    H9      20.336008   17.887454   21.996307 H          1 MOL1         0.0998
      14    C4      18.650932   19.224383   21.647142 C.3        1 MOL1        -0.1302
      15    H10     18.350819   20.246938   21.916181 H          1 MOL1         0.0998
      16    H11     17.912056   18.546984   22.095577 H          1 MOL1         0.0998
      17    C5      18.605569   19.065178   20.112125 C.3        1 MOL1        -0.2317
      18    H12     19.301318   19.758301   19.621461 H          1 MOL1         0.1009
      19    H13     17.597837   19.274346   19.730270 H          1 MOL1         0.1009
      20    H14     18.873347   18.043358   19.813063 H          1 MOL1         0.1009
@<TRIPOS>BOND
    1     1     2    1
    2     1     3    1
    3     1     4    1
    4     1     5    1
    5     5     6    1
    6     5     7    1
    7     7     8    1
    8     7     9    1
    9     7    10    1
   10     5    11    1
   11    11    12    1
   12    11    13    1
   13    11    14    1
   14    14    15    1
   15    14    16    1
   16    14    17    1
   17    17    18    1
   18    17    19    1
   19    17    20    1
@<TRIPOS>SUBSTRUCTURE
       1 MOL1            1 RESIDUE      1      MOL     
@<SCITEGIC>MOL_PROPERTY
VConf Rank
SciTegic.value.IntegerValue
542

@<SCITEGIC>MOL_PROPERTY
Conf_Id
SciTegic.value.IntegerValue
80

@<SCITEGIC>MOL_PROPERTY
Delta U+W
SciTegic.value.DoubleValue
0.460

@<SCITEGIC>MOL_PROPERTY
U+W
SciTegic.value.DoubleValue
-35.817

@<SCITEGIC>MOL_PROPERTY
Grad RMS
SciTegic.value.DoubleValue
0.000000

@<SCITEGIC>MOL_PROPERTY
U
SciTegic.value.DoubleValue
22.495

@<SCITEGIC>MOL_PROPERTY
W
SciTegic.value.DoubleValue
-58.311

@<SCITEGIC>MOL_PROPERTY
W(PB)
SciTegic.value.DoubleValue
-60.259

@<SCITEGIC>MOL_PROPERTY
W(SA)
SciTegic.value.DoubleValue
1.948

@<SCITEGIC>MOL_PROPERTY
Valence
SciTegic.value.DoubleValue
2.419

@<SCITEGIC>MOL_PROPERTY
Coulomb
SciTegic.value.DoubleValue
19.304

@<SCITEGIC>MOL_PROPERTY
VdW
SciTegic.value.DoubleValue
0.772

@<SCITEGIC>MOL_PROPERTY
VdW6
SciTegic.value.DoubleValue
-4.635

@<SCITEGIC>MOL_PROPERTY
VdW12
SciTegic.value.DoubleValue
5.407

@<SCITEGIC>MOL_PROPERTY
Bond
SciTegic.value.DoubleValue
0.149

@<SCITEGIC>MOL_PROPERTY
Angle
SciTegic.value.DoubleValue
1.142

@<SCITEGIC>MOL_PROPERTY
Pdih
SciTegic.value.DoubleValue
1.129

@<SCITEGIC>MOL_PROPERTY
Idih
SciTegic.value.DoubleValue
0.000

@<SCITEGIC>MOL_PROPERTY
Tether
SciTegic.value.DoubleValue
0.000

@<TRIPOS>MOLECULE
guest-s10_confgen4.mol2 : confsearch ligand conformer 543
          20          19           1
SMALL
USER_CHARGES
 
@<TRIPOS>ATOM
       1    N1      17.377956   18.603374   22.522259 N.4        1 MOL1        -0.5937
       2    H1      17.067106   17.739418   22.974768 H          1 MOL1         0.3684
       3    H2      17.396775   18.431585   21.513883 H          1 MOL1         0.3684
       4    H3      16.659628   19.311299   22.696797 H          1 MOL1         0.3684
       5    C1      18.722292   19.045512   23.032185 C.3        1 MOL1         0.1270
       6    H4      18.603086   19.209239   24.107724 H          1 MOL1         0.0960
       7    C2      19.122896   20.383065   22.386643 C.3        1 MOL1        -0.2382
       8    H5      18.310156   21.114441   22.474317 H          1 MOL1         0.1009
       9    H6      19.355229   20.257602   21.321873 H          1 MOL1         0.1009
      10    H7      19.997729   20.813862   22.886732 H          1 MOL1         0.1009
      11    C3      19.785050   17.937798   22.830072 C.3        1 MOL1        -0.1392
      12    H8      19.395360   17.019848   23.289638 H          1 MOL1         0.0998
      13    H9      19.898658   17.711395   21.761632 H          1 MOL1         0.0998
      14    C4      21.169100   18.233274   23.466266 C.3        1 MOL1        -0.1302
      15    H10     21.579803   17.294193   23.863215 H          1 MOL1         0.0998
      16    H11     21.057203   18.901911   24.331350 H          1 MOL1         0.0998
      17    C5      22.194738   18.814760   22.464780 C.3        1 MOL1        -0.2317
      18    H12     22.369783   18.118404   21.634379 H          1 MOL1         0.1009
      19    H13     23.158587   18.989487   22.960208 H          1 MOL1         0.1009
      20    H14     21.862701   19.768591   22.039928 H          1 MOL1         0.1009
@<TRIPOS>BOND
    1     1     2    1
    2     1     3    1
    3     1     4    1
    4     1     5    1
    5     5     6    1
    6     5     7    1
    7     7     8    1
    8     7     9    1
    9     7    10    1
   10     5    11    1
   11    11    12    1
   12    11    13    1
   13    11    14    1
   14    14    15    1
   15    14    16    1
   16    14    17    1
   17    17    18    1
   18    17    19    1
   19    17    20    1
@<TRIPOS>SUBSTRUCTURE
       1 MOL1            1 RESIDUE      1      MOL     
@<SCITEGIC>MOL_PROPERTY
VConf Rank
SciTegic.value.IntegerValue
543

@<SCITEGIC>MOL_PROPERTY
Conf_Id
SciTegic.value.IntegerValue
52

@<SCITEGIC>MOL_PROPERTY
Delta U+W
SciTegic.value.DoubleValue
2.995

@<SCITEGIC>MOL_PROPERTY
U+W
SciTegic.value.DoubleValue
-33.282

@<SCITEGIC>MOL_PROPERTY
Grad RMS
SciTegic.value.DoubleValue
0.000000

@<SCITEGIC>MOL_PROPERTY
U
SciTegic.value.DoubleValue
25.224

@<SCITEGIC>MOL_PROPERTY
W
SciTegic.value.DoubleValue
-58.506

@<SCITEGIC>MOL_PROPERTY
W(PB)
SciTegic.value.DoubleValue
-60.411

@<SCITEGIC>MOL_PROPERTY
W(SA)
SciTegic.value.DoubleValue
1.905

@<SCITEGIC>MOL_PROPERTY
Valence
SciTegic.value.DoubleValue
4.945

@<SCITEGIC>MOL_PROPERTY
Coulomb
SciTegic.value.DoubleValue
19.467

@<SCITEGIC>MOL_PROPERTY
VdW
SciTegic.value.DoubleValue
0.813

@<SCITEGIC>MOL_PROPERTY
VdW6
SciTegic.value.DoubleValue
-5.458

@<SCITEGIC>MOL_PROPERTY
VdW12
SciTegic.value.DoubleValue
6.270

@<SCITEGIC>MOL_PROPERTY
Bond
SciTegic.value.DoubleValue
0.200

@<SCITEGIC>MOL_PROPERTY
Angle
SciTegic.value.DoubleValue
1.675

@<SCITEGIC>MOL_PROPERTY
Pdih
SciTegic.value.DoubleValue
3.070

@<SCITEGIC>MOL_PROPERTY
Idih
SciTegic.value.DoubleValue
0.000

@<SCITEGIC>MOL_PROPERTY
Tether
SciTegic.value.DoubleValue
0.000

@<TRIPOS>MOLECULE
guest-s10_confgen4.mol2 : confsearch ligand conformer 544
          20          19           1
SMALL
USER_CHARGES
 
@<TRIPOS>ATOM
       1    N1      20.308971   18.248399   24.061338 N.4        1 MOL1        -0.5937
       2    H1      19.604226   18.424430   24.781563 H          1 MOL1         0.3684
       3    H2      21.179484   18.000239   24.539116 H          1 MOL1         0.3684
       4    H3      20.004630   17.430474   23.529022 H          1 MOL1         0.3684
       5    C1      20.490731   19.444931   23.167736 C.3        1 MOL1         0.1270
       6    H4      21.288182   19.199921   22.459374 H          1 MOL1         0.0960
       7    C2      20.943877   20.654944   24.002173 C.3        1 MOL1        -0.2382
       8    H5      20.170689   20.953481   24.721140 H          1 MOL1         0.1009
       9    H6      21.161569   21.515395   23.357285 H          1 MOL1         0.1009
      10    H7      21.858474   20.421279   24.560966 H          1 MOL1         0.1009
      11    C3      19.215454   19.791783   22.363002 C.3        1 MOL1        -0.1392
      12    H8      18.341696   19.792358   23.027923 H          1 MOL1         0.0998
      13    H9      19.307166   20.819879   21.987914 H          1 MOL1         0.0998
      14    C4      18.952562   18.879584   21.136059 C.3        1 MOL1        -0.1302
      15    H10     19.812240   18.921588   20.452521 H          1 MOL1         0.0998
      16    H11     18.101779   19.294411   20.577387 H          1 MOL1         0.0998
      17    C5      18.637341   17.405587   21.478367 C.3        1 MOL1        -0.2317
      18    H12     18.268794   16.880337   20.587541 H          1 MOL1         0.1009
      19    H13     17.861520   17.332010   22.251676 H          1 MOL1         0.1009
      20    H14     19.531007   16.869240   21.817676 H          1 MOL1         0.1009
@<TRIPOS>BOND
    1     1     2    1
    2     1     3    1
    3     1     4    1
    4     1     5    1
    5     5     6    1
    6     5     7    1
    7     7     8    1
    8     7     9    1
    9     7    10    1
   10     5    11    1
   11    11    12    1
   12    11    13    1
   13    11    14    1
   14    14    15    1
   15    14    16    1
   16    14    17    1
   17    17    18    1
   18    17    19    1
   19    17    20    1
@<TRIPOS>SUBSTRUCTURE
       1 MOL1            1 RESIDUE      1      MOL     
@<SCITEGIC>MOL_PROPERTY
VConf Rank
SciTegic.value.IntegerValue
544

@<SCITEGIC>MOL_PROPERTY
Conf_Id
SciTegic.value.IntegerValue
54

@<SCITEGIC>MOL_PROPERTY
Delta U+W
SciTegic.value.DoubleValue
2.752

@<SCITEGIC>MOL_PROPERTY
U+W
SciTegic.value.DoubleValue
-33.525

@<SCITEGIC>MOL_PROPERTY
Grad RMS
SciTegic.value.DoubleValue
0.000000

@<SCITEGIC>MOL_PROPERTY
U
SciTegic.value.DoubleValue
24.337

@<SCITEGIC>MOL_PROPERTY
W
SciTegic.value.DoubleValue
-57.862

@<SCITEGIC>MOL_PROPERTY
W(PB)
SciTegic.value.DoubleValue
-59.764

@<SCITEGIC>MOL_PROPERTY
W(SA)
SciTegic.value.DoubleValue
1.901

@<SCITEGIC>MOL_PROPERTY
Valence
SciTegic.value.DoubleValue
3.593

@<SCITEGIC>MOL_PROPERTY
Coulomb
SciTegic.value.DoubleValue
20.067

@<SCITEGIC>MOL_PROPERTY
VdW
SciTegic.value.DoubleValue
0.677

@<SCITEGIC>MOL_PROPERTY
VdW6
SciTegic.value.DoubleValue
-5.466

@<SCITEGIC>MOL_PROPERTY
VdW12
SciTegic.value.DoubleValue
6.144

@<SCITEGIC>MOL_PROPERTY
Bond
SciTegic.value.DoubleValue
0.191

@<SCITEGIC>MOL_PROPERTY
Angle
SciTegic.value.DoubleValue
1.557

@<SCITEGIC>MOL_PROPERTY
Pdih
SciTegic.value.DoubleValue
1.845

@<SCITEGIC>MOL_PROPERTY
Idih
SciTegic.value.DoubleValue
0.000

@<SCITEGIC>MOL_PROPERTY
Tether
SciTegic.value.DoubleValue
0.000

@<TRIPOS>MOLECULE
guest-s10_confgen4.mol2 : confsearch ligand conformer 545
          20          19           1
SMALL
USER_CHARGES
 
@<TRIPOS>ATOM
       1    N1      20.678954   17.909963   24.221705 N.4        1 MOL1        -0.5937
       2    H1      20.586336   17.606276   25.194768 H          1 MOL1         0.3684
       3    H2      21.678351   18.026690   24.033840 H          1 MOL1         0.3684
       4    H3      20.342120   17.146871   23.630367 H          1 MOL1         0.3684
       5    C1      19.915927   19.181431   23.966667 C.3        1 MOL1         0.1270
       6    H4      20.332587   19.926921   24.651255 H          1 MOL1         0.0960
       7    C2      18.426634   19.012192   24.316251 C.3        1 MOL1        -0.2382
       8    H5      17.873602   19.940591   24.127300 H          1 MOL1         0.1009
       9    H6      18.307714   18.765434   25.378351 H          1 MOL1         0.1009
      10    H7      17.960968   18.209533   23.732354 H          1 MOL1         0.1009
      11    C3      20.118910   19.716395   22.528730 C.3        1 MOL1        -0.1392
      12    H8      19.612101   20.686288   22.438239 H          1 MOL1         0.0998
      13    H9      21.187666   19.920526   22.382107 H          1 MOL1         0.0998
      14    C4      19.622400   18.772666   21.403032 C.3        1 MOL1        -0.1302
      15    H10     18.542830   18.597551   21.502409 H          1 MOL1         0.0998
      16    H11     20.113226   17.793606   21.484841 H          1 MOL1         0.0998
      17    C5      19.905456   19.361631   20.004344 C.3        1 MOL1        -0.2317
      18    H12     19.546861   18.684173   19.218515 H          1 MOL1         0.1009
      19    H13     20.981497   19.515388   19.850349 H          1 MOL1         0.1009
      20    H14     19.399936   20.327176   19.872449 H          1 MOL1         0.1009
@<TRIPOS>BOND
    1     1     2    1
    2     1     3    1
    3     1     4    1
    4     1     5    1
    5     5     6    1
    6     5     7    1
    7     7     8    1
    8     7     9    1
    9     7    10    1
   10     5    11    1
   11    11    12    1
   12    11    13    1
   13    11    14    1
   14    14    15    1
   15    14    16    1
   16    14    17    1
   17    17    18    1
   18    17    19    1
   19    17    20    1
@<TRIPOS>SUBSTRUCTURE
       1 MOL1            1 RESIDUE      1      MOL     
@<SCITEGIC>MOL_PROPERTY
VConf Rank
SciTegic.value.IntegerValue
545

@<SCITEGIC>MOL_PROPERTY
Conf_Id
SciTegic.value.IntegerValue
63

@<SCITEGIC>MOL_PROPERTY
Delta U+W
SciTegic.value.DoubleValue
0.420

@<SCITEGIC>MOL_PROPERTY
U+W
SciTegic.value.DoubleValue
-35.856

@<SCITEGIC>MOL_PROPERTY
Grad RMS
SciTegic.value.DoubleValue
0.000000

@<SCITEGIC>MOL_PROPERTY
U
SciTegic.value.DoubleValue
22.625

@<SCITEGIC>MOL_PROPERTY
W
SciTegic.value.DoubleValue
-58.481

@<SCITEGIC>MOL_PROPERTY
W(PB)
SciTegic.value.DoubleValue
-60.400

@<SCITEGIC>MOL_PROPERTY
W(SA)
SciTegic.value.DoubleValue
1.919

@<SCITEGIC>MOL_PROPERTY
Valence
SciTegic.value.DoubleValue
2.404

@<SCITEGIC>MOL_PROPERTY
Coulomb
SciTegic.value.DoubleValue
19.464

@<SCITEGIC>MOL_PROPERTY
VdW
SciTegic.value.DoubleValue
0.757

@<SCITEGIC>MOL_PROPERTY
VdW6
SciTegic.value.DoubleValue
-5.074

@<SCITEGIC>MOL_PROPERTY
VdW12
SciTegic.value.DoubleValue
5.830

@<SCITEGIC>MOL_PROPERTY
Bond
SciTegic.value.DoubleValue
0.172

@<SCITEGIC>MOL_PROPERTY
Angle
SciTegic.value.DoubleValue
1.207

@<SCITEGIC>MOL_PROPERTY
Pdih
SciTegic.value.DoubleValue
1.025

@<SCITEGIC>MOL_PROPERTY
Idih
SciTegic.value.DoubleValue
0.000

@<SCITEGIC>MOL_PROPERTY
Tether
SciTegic.value.DoubleValue
0.000

@<TRIPOS>MOLECULE
guest-s10_confgen4.mol2 : confsearch ligand conformer 546
          20          19           1
SMALL
USER_CHARGES
 
@<TRIPOS>ATOM
       1    N1      20.645716   20.269880   22.019145 N.4        1 MOL1        -0.5937
       2    H1      21.393031   19.942062   22.636340 H          1 MOL1         0.3684
       3    H2      20.340813   21.183760   22.363060 H          1 MOL1         0.3684
       4    H3      21.055426   20.412942   21.092207 H          1 MOL1         0.3684
       5    C1      19.505037   19.289616   21.973211 C.3        1 MOL1         0.1270
       6    H4      19.914247   18.348100   21.594762 H          1 MOL1         0.0960
       7    C2      18.418564   19.766067   20.995416 C.3        1 MOL1        -0.2382
       8    H5      18.837113   19.915651   19.992580 H          1 MOL1         0.1009
       9    H6      17.974624   20.713647   21.325207 H          1 MOL1         0.1009
      10    H7      17.615547   19.023113   20.912919 H          1 MOL1         0.1009
      11    C3      18.895094   19.026668   23.368851 C.3        1 MOL1        -0.1392
      12    H8      18.463754   19.957996   23.759244 H          1 MOL1         0.0998
      13    H9      18.059635   18.321369   23.266430 H          1 MOL1         0.0998
      14    C4      19.899367   18.460138   24.404408 C.3        1 MOL1        -0.1302
      15    H10     19.375440   18.312224   25.359146 H          1 MOL1         0.0998
      16    H11     20.691850   19.193573   24.605928 H          1 MOL1         0.0998
      17    C5      20.529548   17.118462   23.966064 C.3        1 MOL1        -0.2317
      18    H12     19.755457   16.368135   23.758764 H          1 MOL1         0.1009
      19    H13     21.177011   16.720760   24.758334 H          1 MOL1         0.1009
      20    H14     21.144083   17.234971   23.064583 H          1 MOL1         0.1009
@<TRIPOS>BOND
    1     1     2    1
    2     1     3    1
    3     1     4    1
    4     1     5    1
    5     5     6    1
    6     5     7    1
    7     7     8    1
    8     7     9    1
    9     7    10    1
   10     5    11    1
   11    11    12    1
   12    11    13    1
   13    11    14    1
   14    14    15    1
   15    14    16    1
   16    14    17    1
   17    17    18    1
   18    17    19    1
   19    17    20    1
@<TRIPOS>SUBSTRUCTURE
       1 MOL1            1 RESIDUE      1      MOL     
@<SCITEGIC>MOL_PROPERTY
VConf Rank
SciTegic.value.IntegerValue
546

@<SCITEGIC>MOL_PROPERTY
Conf_Id
SciTegic.value.IntegerValue
50

@<SCITEGIC>MOL_PROPERTY
Delta U+W
SciTegic.value.DoubleValue
0.466

@<SCITEGIC>MOL_PROPERTY
U+W
SciTegic.value.DoubleValue
-35.811

@<SCITEGIC>MOL_PROPERTY
Grad RMS
SciTegic.value.DoubleValue
0.000000

@<SCITEGIC>MOL_PROPERTY
U
SciTegic.value.DoubleValue
22.369

@<SCITEGIC>MOL_PROPERTY
W
SciTegic.value.DoubleValue
-58.180

@<SCITEGIC>MOL_PROPERTY
W(PB)
SciTegic.value.DoubleValue
-60.103

@<SCITEGIC>MOL_PROPERTY
W(SA)
SciTegic.value.DoubleValue
1.923

@<SCITEGIC>MOL_PROPERTY
Valence
SciTegic.value.DoubleValue
2.168

@<SCITEGIC>MOL_PROPERTY
Coulomb
SciTegic.value.DoubleValue
19.636

@<SCITEGIC>MOL_PROPERTY
VdW
SciTegic.value.DoubleValue
0.566

@<SCITEGIC>MOL_PROPERTY
VdW6
SciTegic.value.DoubleValue
-5.263

@<SCITEGIC>MOL_PROPERTY
VdW12
SciTegic.value.DoubleValue
5.829

@<SCITEGIC>MOL_PROPERTY
Bond
SciTegic.value.DoubleValue
0.162

@<SCITEGIC>MOL_PROPERTY
Angle
SciTegic.value.DoubleValue
1.066

@<SCITEGIC>MOL_PROPERTY
Pdih
SciTegic.value.DoubleValue
0.939

@<SCITEGIC>MOL_PROPERTY
Idih
SciTegic.value.DoubleValue
0.000

@<SCITEGIC>MOL_PROPERTY
Tether
SciTegic.value.DoubleValue
0.000

@<TRIPOS>MOLECULE
guest-s10_confgen4.mol2 : confsearch ligand conformer 547
          20          19           1
SMALL
USER_CHARGES
 
@<TRIPOS>ATOM
       1    N1      18.417741   19.594146   20.968779 N.4        1 MOL1        -0.5937
       2    H1      17.577438   19.998064   21.391552 H          1 MOL1         0.3684
       3    H2      18.132653   18.751401   20.463431 H          1 MOL1         0.3684
       4    H3      18.758733   20.264478   20.274434 H          1 MOL1         0.3684
       5    C1      19.467960   19.290052   22.002775 C.3        1 MOL1         0.1270
       6    H4      19.703291   20.242726   22.487330 H          1 MOL1         0.0960
       7    C2      20.740737   18.755883   21.319645 C.3        1 MOL1        -0.2382
       8    H5      20.537619   17.822455   20.780088 H          1 MOL1         0.1009
       9    H6      21.535435   18.557608   22.046921 H          1 MOL1         0.1009
      10    H7      21.127698   19.486363   20.598682 H          1 MOL1         0.1009
      11    C3      18.946912   18.314121   23.086427 C.3        1 MOL1        -0.1392
      12    H8      17.849801   18.288530   23.049467 H          1 MOL1         0.0998
      13    H9      19.273764   17.288646   22.868293 H          1 MOL1         0.0998
      14    C4      19.350512   18.706290   24.530412 C.3        1 MOL1        -0.1302
      15    H10     18.873743   18.005819   25.230386 H          1 MOL1         0.0998
      16    H11     18.944044   19.699342   24.768557 H          1 MOL1         0.0998
      17    C5      20.874265   18.702090   24.784173 C.3        1 MOL1        -0.2317
      18    H12     21.318310   17.734987   24.514796 H          1 MOL1         0.1009
      19    H13     21.086542   18.883462   25.845815 H          1 MOL1         0.1009
      20    H14     21.378482   19.489580   24.210366 H          1 MOL1         0.1009
@<TRIPOS>BOND
    1     1     2    1
    2     1     3    1
    3     1     4    1
    4     1     5    1
    5     5     6    1
    6     5     7    1
    7     7     8    1
    8     7     9    1
    9     7    10    1
   10     5    11    1
   11    11    12    1
   12    11    13    1
   13    11    14    1
   14    14    15    1
   15    14    16    1
   16    14    17    1
   17    17    18    1
   18    17    19    1
   19    17    20    1
@<TRIPOS>SUBSTRUCTURE
       1 MOL1            1 RESIDUE      1      MOL     
@<SCITEGIC>MOL_PROPERTY
VConf Rank
SciTegic.value.IntegerValue
547

@<SCITEGIC>MOL_PROPERTY
Conf_Id
SciTegic.value.IntegerValue
3

@<SCITEGIC>MOL_PROPERTY
Delta U+W
SciTegic.value.DoubleValue
3.093

@<SCITEGIC>MOL_PROPERTY
U+W
SciTegic.value.DoubleValue
-33.184

@<SCITEGIC>MOL_PROPERTY
Grad RMS
SciTegic.value.DoubleValue
0.000000

@<SCITEGIC>MOL_PROPERTY
U
SciTegic.value.DoubleValue
25.256

@<SCITEGIC>MOL_PROPERTY
W
SciTegic.value.DoubleValue
-58.439

@<SCITEGIC>MOL_PROPERTY
W(PB)
SciTegic.value.DoubleValue
-60.337

@<SCITEGIC>MOL_PROPERTY
W(SA)
SciTegic.value.DoubleValue
1.898

@<SCITEGIC>MOL_PROPERTY
Valence
SciTegic.value.DoubleValue
4.963

@<SCITEGIC>MOL_PROPERTY
Coulomb
SciTegic.value.DoubleValue
19.511

@<SCITEGIC>MOL_PROPERTY
VdW
SciTegic.value.DoubleValue
0.782

@<SCITEGIC>MOL_PROPERTY
VdW6
SciTegic.value.DoubleValue
-5.429

@<SCITEGIC>MOL_PROPERTY
VdW12
SciTegic.value.DoubleValue
6.211

@<SCITEGIC>MOL_PROPERTY
Bond
SciTegic.value.DoubleValue
0.174

@<SCITEGIC>MOL_PROPERTY
Angle
SciTegic.value.DoubleValue
1.377

@<SCITEGIC>MOL_PROPERTY
Pdih
SciTegic.value.DoubleValue
3.412

@<SCITEGIC>MOL_PROPERTY
Idih
SciTegic.value.DoubleValue
0.000

@<SCITEGIC>MOL_PROPERTY
Tether
SciTegic.value.DoubleValue
0.000

@<TRIPOS>MOLECULE
guest-s10_confgen4.mol2 : confsearch ligand conformer 548
          20          19           1
SMALL
USER_CHARGES
 
@<TRIPOS>ATOM
       1    N1      19.929694   21.003653   21.829334 N.4        1 MOL1        -0.5937
       2    H1      19.186588   21.707470   21.820937 H          1 MOL1         0.3684
       3    H2      20.160044   20.795554   20.853904 H          1 MOL1         0.3684
       4    H3      20.753943   21.437043   22.252974 H          1 MOL1         0.3684
       5    C1      19.509536   19.767769   22.576623 C.3        1 MOL1         0.1270
       6    H4      18.627602   19.380667   22.057546 H          1 MOL1         0.0960
       7    C2      19.106911   20.125067   24.018959 C.3        1 MOL1        -0.2382
       8    H5      18.667009   19.263304   24.534116 H          1 MOL1         0.1009
       9    H6      18.355576   20.924193   24.024052 H          1 MOL1         0.1009
      10    H7      19.972321   20.467873   24.599508 H          1 MOL1         0.1009
      11    C3      20.613631   18.684488   22.532974 C.3        1 MOL1        -0.1392
      12    H8      20.914340   18.531253   21.488168 H          1 MOL1         0.0998
      13    H9      21.506004   19.053906   23.055407 H          1 MOL1         0.0998
      14    C4      20.209210   17.312256   23.130072 C.3        1 MOL1        -0.1302
      15    H10     20.029706   17.403805   24.209734 H          1 MOL1         0.0998
      16    H11     21.055801   16.619438   23.024591 H          1 MOL1         0.0998
      17    C5      18.968894   16.695081   22.444609 C.3        1 MOL1        -0.2317
      18    H12     19.124016   16.596156   21.362339 H          1 MOL1         0.1009
      19    H13     18.071905   17.305440   22.608735 H          1 MOL1         0.1009
      20    H14     18.765577   15.694049   22.846621 H          1 MOL1         0.1009
@<TRIPOS>BOND
    1     1     2    1
    2     1     3    1
    3     1     4    1
    4     1     5    1
    5     5     6    1
    6     5     7    1
    7     7     8    1
    8     7     9    1
    9     7    10    1
   10     5    11    1
   11    11    12    1
   12    11    13    1
   13    11    14    1
   14    14    15    1
   15    14    16    1
   16    14    17    1
   17    17    18    1
   18    17    19    1
   19    17    20    1
@<TRIPOS>SUBSTRUCTURE
       1 MOL1            1 RESIDUE      1      MOL     
@<SCITEGIC>MOL_PROPERTY
VConf Rank
SciTegic.value.IntegerValue
548

@<SCITEGIC>MOL_PROPERTY
Conf_Id
SciTegic.value.IntegerValue
64

@<SCITEGIC>MOL_PROPERTY
Delta U+W
SciTegic.value.DoubleValue
0.544

@<SCITEGIC>MOL_PROPERTY
U+W
SciTegic.value.DoubleValue
-35.732

@<SCITEGIC>MOL_PROPERTY
Grad RMS
SciTegic.value.DoubleValue
0.000000

@<SCITEGIC>MOL_PROPERTY
U
SciTegic.value.DoubleValue
22.800

@<SCITEGIC>MOL_PROPERTY
W
SciTegic.value.DoubleValue
-58.532

@<SCITEGIC>MOL_PROPERTY
W(PB)
SciTegic.value.DoubleValue
-60.437

@<SCITEGIC>MOL_PROPERTY
W(SA)
SciTegic.value.DoubleValue
1.905

@<SCITEGIC>MOL_PROPERTY
Valence
SciTegic.value.DoubleValue
2.662

@<SCITEGIC>MOL_PROPERTY
Coulomb
SciTegic.value.DoubleValue
19.485

@<SCITEGIC>MOL_PROPERTY
VdW
SciTegic.value.DoubleValue
0.653

@<SCITEGIC>MOL_PROPERTY
VdW6
SciTegic.value.DoubleValue
-5.460

@<SCITEGIC>MOL_PROPERTY
VdW12
SciTegic.value.DoubleValue
6.113

@<SCITEGIC>MOL_PROPERTY
Bond
SciTegic.value.DoubleValue
0.174

@<SCITEGIC>MOL_PROPERTY
Angle
SciTegic.value.DoubleValue
1.378

@<SCITEGIC>MOL_PROPERTY
Pdih
SciTegic.value.DoubleValue
1.109

@<SCITEGIC>MOL_PROPERTY
Idih
SciTegic.value.DoubleValue
0.000

@<SCITEGIC>MOL_PROPERTY
Tether
SciTegic.value.DoubleValue
0.000

@<TRIPOS>MOLECULE
guest-s10_confgen4.mol2 : confsearch ligand conformer 549
          20          19           1
SMALL
USER_CHARGES
 
@<TRIPOS>ATOM
       1    N1      18.144891   19.413055   21.461980 N.4        1 MOL1        -0.5937
       2    H1      17.894006   19.876509   22.338073 H          1 MOL1         0.3684
       3    H2      17.319248   18.901144   21.139685 H          1 MOL1         0.3684
       4    H3      18.337254   20.144040   20.771822 H          1 MOL1         0.3684
       5    C1      19.325113   18.496742   21.641643 C.3        1 MOL1         0.1270
       6    H4      19.505389   18.045313   20.660993 H          1 MOL1         0.0960
       7    C2      18.990389   17.356697   22.617340 C.3        1 MOL1        -0.2382
       8    H5      18.666436   17.743309   23.590630 H          1 MOL1         0.1009
       9    H6      19.859910   16.705879   22.771314 H          1 MOL1         0.1009
      10    H7      18.178073   16.737295   22.218024 H          1 MOL1         0.1009
      11    C3      20.613997   19.264683   22.028921 C.3        1 MOL1        -0.1392
      12    H8      21.473505   18.583530   21.976259 H          1 MOL1         0.0998
      13    H9      20.794389   20.016541   21.249401 H          1 MOL1         0.0998
      14    C4      20.596659   19.985544   23.405614 C.3        1 MOL1        -0.1302
      15    H10     19.581417   20.315083   23.662650 H          1 MOL1         0.0998
      16    H11     21.196800   20.902641   23.323481 H          1 MOL1         0.0998
      17    C5      21.187867   19.136385   24.555461 C.3        1 MOL1        -0.2317
      18    H12     20.613838   18.219934   24.730346 H          1 MOL1         0.1009
      19    H13     21.190095   19.708507   25.492283 H          1 MOL1         0.1009
      20    H14     22.225339   18.850113   24.339258 H          1 MOL1         0.1009
@<TRIPOS>BOND
    1     1     2    1
    2     1     3    1
    3     1     4    1
    4     1     5    1
    5     5     6    1
    6     5     7    1
    7     7     8    1
    8     7     9    1
    9     7    10    1
   10     5    11    1
   11    11    12    1
   12    11    13    1
   13    11    14    1
   14    14    15    1
   15    14    16    1
   16    14    17    1
   17    17    18    1
   18    17    19    1
   19    17    20    1
@<TRIPOS>SUBSTRUCTURE
       1 MOL1            1 RESIDUE      1      MOL     
@<SCITEGIC>MOL_PROPERTY
VConf Rank
SciTegic.value.IntegerValue
549

@<SCITEGIC>MOL_PROPERTY
Conf_Id
SciTegic.value.IntegerValue
35

@<SCITEGIC>MOL_PROPERTY
Delta U+W
SciTegic.value.DoubleValue
3.004

@<SCITEGIC>MOL_PROPERTY
U+W
SciTegic.value.DoubleValue
-33.272

@<SCITEGIC>MOL_PROPERTY
Grad RMS
SciTegic.value.DoubleValue
0.000000

@<SCITEGIC>MOL_PROPERTY
U
SciTegic.value.DoubleValue
25.367

@<SCITEGIC>MOL_PROPERTY
W
SciTegic.value.DoubleValue
-58.639

@<SCITEGIC>MOL_PROPERTY
W(PB)
SciTegic.value.DoubleValue
-60.512

@<SCITEGIC>MOL_PROPERTY
W(SA)
SciTegic.value.DoubleValue
1.873

@<SCITEGIC>MOL_PROPERTY
Valence
SciTegic.value.DoubleValue
4.943

@<SCITEGIC>MOL_PROPERTY
Coulomb
SciTegic.value.DoubleValue
19.661

@<SCITEGIC>MOL_PROPERTY
VdW
SciTegic.value.DoubleValue
0.764

@<SCITEGIC>MOL_PROPERTY
VdW6
SciTegic.value.DoubleValue
-5.871

@<SCITEGIC>MOL_PROPERTY
VdW12
SciTegic.value.DoubleValue
6.636

@<SCITEGIC>MOL_PROPERTY
Bond
SciTegic.value.DoubleValue
0.230

@<SCITEGIC>MOL_PROPERTY
Angle
SciTegic.value.DoubleValue
1.857

@<SCITEGIC>MOL_PROPERTY
Pdih
SciTegic.value.DoubleValue
2.855

@<SCITEGIC>MOL_PROPERTY
Idih
SciTegic.value.DoubleValue
0.000

@<SCITEGIC>MOL_PROPERTY
Tether
SciTegic.value.DoubleValue
0.000

@<TRIPOS>MOLECULE
guest-s10_confgen4.mol2 : confsearch ligand conformer 550
          20          19           1
SMALL
USER_CHARGES
 
@<TRIPOS>ATOM
       1    N1      20.041224   19.792559   21.134619 N.4        1 MOL1        -0.5937
       2    H1      20.356201   19.562246   20.188391 H          1 MOL1         0.3684
       3    H2      20.091260   20.810096   21.233086 H          1 MOL1         0.3684
       4    H3      19.057476   19.526190   21.207316 H          1 MOL1         0.3684
       5    C1      20.872167   19.096790   22.177645 C.3        1 MOL1         0.1270
       6    H4      21.891303   19.467655   22.030174 H          1 MOL1         0.0960
       7    C2      20.900992   17.575095   21.949340 C.3        1 MOL1        -0.2382
       8    H5      19.895011   17.140627   21.988499 H          1 MOL1         0.1009
       9    H6      21.519881   17.079758   22.707653 H          1 MOL1         0.1009
      10    H7      21.328965   17.342002   20.966754 H          1 MOL1         0.1009
      11    C3      20.464937   19.469371   23.626320 C.3        1 MOL1        -0.1392
      12    H8      21.292797   19.182968   24.288259 H          1 MOL1         0.0998
      13    H9      20.394053   20.562022   23.705735 H          1 MOL1         0.0998
      14    C4      19.164566   18.829316   24.188423 C.3        1 MOL1        -0.1302
      15    H10     19.047624   19.158385   25.230471 H          1 MOL1         0.0998
      16    H11     19.266967   17.736610   24.234677 H          1 MOL1         0.0998
      17    C5      17.877565   19.198545   23.416269 C.3        1 MOL1        -0.2317
      18    H12     17.792638   20.284493   23.279724 H          1 MOL1         0.1009
      19    H13     16.992050   18.863179   23.971753 H          1 MOL1         0.1009
      20    H14     17.842931   18.713637   22.433960 H          1 MOL1         0.1009
@<TRIPOS>BOND
    1     1     2    1
    2     1     3    1
    3     1     4    1
    4     1     5    1
    5     5     6    1
    6     5     7    1
    7     7     8    1
    8     7     9    1
    9     7    10    1
   10     5    11    1
   11    11    12    1
   12    11    13    1
   13    11    14    1
   14    14    15    1
   15    14    16    1
   16    14    17    1
   17    17    18    1
   18    17    19    1
   19    17    20    1
@<TRIPOS>SUBSTRUCTURE
       1 MOL1            1 RESIDUE      1      MOL     
@<SCITEGIC>MOL_PROPERTY
VConf Rank
SciTegic.value.IntegerValue
550

@<SCITEGIC>MOL_PROPERTY
Conf_Id
SciTegic.value.IntegerValue
55

@<SCITEGIC>MOL_PROPERTY
Delta U+W
SciTegic.value.DoubleValue
2.767

@<SCITEGIC>MOL_PROPERTY
U+W
SciTegic.value.DoubleValue
-33.509

@<SCITEGIC>MOL_PROPERTY
Grad RMS
SciTegic.value.DoubleValue
0.000000

@<SCITEGIC>MOL_PROPERTY
U
SciTegic.value.DoubleValue
24.552

@<SCITEGIC>MOL_PROPERTY
W
SciTegic.value.DoubleValue
-58.061

@<SCITEGIC>MOL_PROPERTY
W(PB)
SciTegic.value.DoubleValue
-59.930

@<SCITEGIC>MOL_PROPERTY
W(SA)
SciTegic.value.DoubleValue
1.869

@<SCITEGIC>MOL_PROPERTY
Valence
SciTegic.value.DoubleValue
3.726

@<SCITEGIC>MOL_PROPERTY
Coulomb
SciTegic.value.DoubleValue
20.219

@<SCITEGIC>MOL_PROPERTY
VdW
SciTegic.value.DoubleValue
0.606

@<SCITEGIC>MOL_PROPERTY
VdW6
SciTegic.value.DoubleValue
-6.395

@<SCITEGIC>MOL_PROPERTY
VdW12
SciTegic.value.DoubleValue
7.001

@<SCITEGIC>MOL_PROPERTY
Bond
SciTegic.value.DoubleValue
0.241

@<SCITEGIC>MOL_PROPERTY
Angle
SciTegic.value.DoubleValue
2.098

@<SCITEGIC>MOL_PROPERTY
Pdih
SciTegic.value.DoubleValue
1.387

@<SCITEGIC>MOL_PROPERTY
Idih
SciTegic.value.DoubleValue
0.000

@<SCITEGIC>MOL_PROPERTY
Tether
SciTegic.value.DoubleValue
0.000

@<TRIPOS>MOLECULE
guest-s10_confgen4.mol2 : confsearch ligand conformer 551
          20          19           1
SMALL
USER_CHARGES
 
@<TRIPOS>ATOM
       1    N1      19.657975   18.997322   24.687339 N.4        1 MOL1        -0.5937
       2    H1      18.670530   18.747402   24.782413 H          1 MOL1         0.3684
       3    H2      19.926037   19.508790   25.532442 H          1 MOL1         0.3684
       4    H3      20.195787   18.127148   24.675645 H          1 MOL1         0.3684
       5    C1      19.903013   19.814871   23.447730 C.3        1 MOL1         0.1270
       6    H4      20.975143   20.033359   23.421513 H          1 MOL1         0.0960
       7    C2      19.141904   21.148761   23.521344 C.3        1 MOL1        -0.2382
       8    H5      19.428246   21.710430   24.419008 H          1 MOL1         0.1009
       9    H6      18.057236   20.986321   23.551366 H          1 MOL1         0.1009
      10    H7      19.369214   21.776220   22.650560 H          1 MOL1         0.1009
      11    C3      19.533213   19.056441   22.153829 C.3        1 MOL1        -0.1392
      12    H8      18.464584   18.803843   22.165807 H          1 MOL1         0.0998
      13    H9      19.687122   19.724196   21.295643 H          1 MOL1         0.0998
      14    C4      20.371855   17.772711   21.943502 C.3        1 MOL1        -0.1302
      15    H10     20.191757   17.062960   22.762186 H          1 MOL1         0.0998
      16    H11     21.442243   18.021571   21.967578 H          1 MOL1         0.0998
      17    C5      20.036894   17.086590   20.601734 C.3        1 MOL1        -0.2317
      18    H12     18.978576   16.797784   20.559196 H          1 MOL1         0.1009
      19    H13     20.639066   16.178261   20.469781 H          1 MOL1         0.1009
      20    H14     20.243612   17.752946   19.754107 H          1 MOL1         0.1009
@<TRIPOS>BOND
    1     1     2    1
    2     1     3    1
    3     1     4    1
    4     1     5    1
    5     5     6    1
    6     5     7    1
    7     7     8    1
    8     7     9    1
    9     7    10    1
   10     5    11    1
   11    11    12    1
   12    11    13    1
   13    11    14    1
   14    14    15    1
   15    14    16    1
   16    14    17    1
   17    17    18    1
   18    17    19    1
   19    17    20    1
@<TRIPOS>SUBSTRUCTURE
       1 MOL1            1 RESIDUE      1      MOL     
@<SCITEGIC>MOL_PROPERTY
VConf Rank
SciTegic.value.IntegerValue
551

@<SCITEGIC>MOL_PROPERTY
Conf_Id
SciTegic.value.IntegerValue
74

@<SCITEGIC>MOL_PROPERTY
Delta U+W
SciTegic.value.DoubleValue
0.000

@<SCITEGIC>MOL_PROPERTY
U+W
SciTegic.value.DoubleValue
-36.276

@<SCITEGIC>MOL_PROPERTY
Grad RMS
SciTegic.value.DoubleValue
0.000000

@<SCITEGIC>MOL_PROPERTY
U
SciTegic.value.DoubleValue
22.080

@<SCITEGIC>MOL_PROPERTY
W
SciTegic.value.DoubleValue
-58.356

@<SCITEGIC>MOL_PROPERTY
W(PB)
SciTegic.value.DoubleValue
-60.289

@<SCITEGIC>MOL_PROPERTY
W(SA)
SciTegic.value.DoubleValue
1.932

@<SCITEGIC>MOL_PROPERTY
Valence
SciTegic.value.DoubleValue
1.885

@<SCITEGIC>MOL_PROPERTY
Coulomb
SciTegic.value.DoubleValue
19.559

@<SCITEGIC>MOL_PROPERTY
VdW
SciTegic.value.DoubleValue
0.637

@<SCITEGIC>MOL_PROPERTY
VdW6
SciTegic.value.DoubleValue
-4.482

@<SCITEGIC>MOL_PROPERTY
VdW12
SciTegic.value.DoubleValue
5.119

@<SCITEGIC>MOL_PROPERTY
Bond
SciTegic.value.DoubleValue
0.136

@<SCITEGIC>MOL_PROPERTY
Angle
SciTegic.value.DoubleValue
0.867

@<SCITEGIC>MOL_PROPERTY
Pdih
SciTegic.value.DoubleValue
0.882

@<SCITEGIC>MOL_PROPERTY
Idih
SciTegic.value.DoubleValue
0.000

@<SCITEGIC>MOL_PROPERTY
Tether
SciTegic.value.DoubleValue
0.000

@<TRIPOS>MOLECULE
guest-s10_confgen4.mol2 : confsearch ligand conformer 552
          20          19           1
SMALL
USER_CHARGES
 
@<TRIPOS>ATOM
       1    N1      19.667848   18.901672   20.330300 N.4        1 MOL1        -0.5937
       2    H1      18.748374   18.487483   20.154592 H          1 MOL1         0.3684
       3    H2      20.367456   18.171442   20.175257 H          1 MOL1         0.3684
       4    H3      19.816192   19.621201   19.617593 H          1 MOL1         0.3684
       5    C1      19.763759   19.473254   21.718306 C.3        1 MOL1         0.1270
       6    H4      18.986700   20.240669   21.789845 H          1 MOL1         0.0960
       7    C2      21.132782   20.147000   21.924807 C.3        1 MOL1        -0.2382
       8    H5      21.332286   20.869874   21.124262 H          1 MOL1         0.1009
       9    H6      21.943364   19.407719   21.924808 H          1 MOL1         0.1009
      10    H7      21.168515   20.696535   22.872414 H          1 MOL1         0.1009
      11    C3      19.477614   18.394271   22.788542 C.3        1 MOL1        -0.1392
      12    H8      18.544017   17.880804   22.523189 H          1 MOL1         0.0998
      13    H9      20.268138   17.632419   22.766141 H          1 MOL1         0.0998
      14    C4      19.337266   18.958411   24.223537 C.3        1 MOL1        -0.1302
      15    H10     18.590524   19.764853   24.233420 H          1 MOL1         0.0998
      16    H11     20.286986   19.399411   24.554371 H          1 MOL1         0.0998
      17    C5      18.920130   17.862755   25.228135 C.3        1 MOL1        -0.2317
      18    H12     17.950804   17.424776   24.956437 H          1 MOL1         0.1009
      19    H13     18.828997   18.278823   26.239901 H          1 MOL1         0.1009
      20    H14     19.662704   17.054866   25.262162 H          1 MOL1         0.1009
@<TRIPOS>BOND
    1     1     2    1
    2     1     3    1
    3     1     4    1
    4     1     5    1
    5     5     6    1
    6     5     7    1
    7     7     8    1
    8     7     9    1
    9     7    10    1
   10     5    11    1
   11    11    12    1
   12    11    13    1
   13    11    14    1
   14    14    15    1
   15    14    16    1
   16    14    17    1
   17    17    18    1
   18    17    19    1
   19    17    20    1
@<TRIPOS>SUBSTRUCTURE
       1 MOL1            1 RESIDUE      1      MOL     
@<SCITEGIC>MOL_PROPERTY
VConf Rank
SciTegic.value.IntegerValue
552

@<SCITEGIC>MOL_PROPERTY
Conf_Id
SciTegic.value.IntegerValue
80

@<SCITEGIC>MOL_PROPERTY
Delta U+W
SciTegic.value.DoubleValue
0.460

@<SCITEGIC>MOL_PROPERTY
U+W
SciTegic.value.DoubleValue
-35.817

@<SCITEGIC>MOL_PROPERTY
Grad RMS
SciTegic.value.DoubleValue
0.000000

@<SCITEGIC>MOL_PROPERTY
U
SciTegic.value.DoubleValue
22.495

@<SCITEGIC>MOL_PROPERTY
W
SciTegic.value.DoubleValue
-58.311

@<SCITEGIC>MOL_PROPERTY
W(PB)
SciTegic.value.DoubleValue
-60.259

@<SCITEGIC>MOL_PROPERTY
W(SA)
SciTegic.value.DoubleValue
1.948

@<SCITEGIC>MOL_PROPERTY
Valence
SciTegic.value.DoubleValue
2.419

@<SCITEGIC>MOL_PROPERTY
Coulomb
SciTegic.value.DoubleValue
19.304

@<SCITEGIC>MOL_PROPERTY
VdW
SciTegic.value.DoubleValue
0.772

@<SCITEGIC>MOL_PROPERTY
VdW6
SciTegic.value.DoubleValue
-4.635

@<SCITEGIC>MOL_PROPERTY
VdW12
SciTegic.value.DoubleValue
5.407

@<SCITEGIC>MOL_PROPERTY
Bond
SciTegic.value.DoubleValue
0.149

@<SCITEGIC>MOL_PROPERTY
Angle
SciTegic.value.DoubleValue
1.142

@<SCITEGIC>MOL_PROPERTY
Pdih
SciTegic.value.DoubleValue
1.129

@<SCITEGIC>MOL_PROPERTY
Idih
SciTegic.value.DoubleValue
0.000

@<SCITEGIC>MOL_PROPERTY
Tether
SciTegic.value.DoubleValue
0.000

@<TRIPOS>MOLECULE
guest-s10_confgen4.mol2 : confsearch ligand conformer 553
          20          19           1
SMALL
USER_CHARGES
 
@<TRIPOS>ATOM
       1    N1      20.861603   20.562441   21.413490 N.4        1 MOL1        -0.5937
       2    H1      21.753532   20.217456   21.048444 H          1 MOL1         0.3684
       3    H2      21.070859   21.172449   22.207714 H          1 MOL1         0.3684
       4    H3      20.441939   21.145548   20.684460 H          1 MOL1         0.3684
       5    C1      19.949094   19.434020   21.809398 C.3        1 MOL1         0.1270
       6    H4      19.778884   18.845345   20.902596 H          1 MOL1         0.0960
       7    C2      18.593486   19.986455   22.282051 C.3        1 MOL1        -0.2382
       8    H5      18.189747   20.699002   21.552384 H          1 MOL1         0.1009
       9    H6      18.687682   20.501954   23.245815 H          1 MOL1         0.1009
      10    H7      17.856684   19.181978   22.386675 H          1 MOL1         0.1009
      11    C3      20.623331   18.516022   22.858217 C.3        1 MOL1        -0.1392
      12    H8      21.592989   18.204238   22.448040 H          1 MOL1         0.0998
      13    H9      20.853715   19.085275   23.768493 H          1 MOL1         0.0998
      14    C4      19.827109   17.232827   23.214709 C.3        1 MOL1        -0.1302
      15    H10     20.539413   16.409876   23.367979 H          1 MOL1         0.0998
      16    H11     19.193795   16.928802   22.369459 H          1 MOL1         0.0998
      17    C5      18.978813   17.372849   24.500719 C.3        1 MOL1        -0.2317
      18    H12     19.614009   17.602385   25.366141 H          1 MOL1         0.1009
      19    H13     18.450479   16.435080   24.716208 H          1 MOL1         0.1009
      20    H14     18.226674   18.165057   24.415657 H          1 MOL1         0.1009
@<TRIPOS>BOND
    1     1     2    1
    2     1     3    1
    3     1     4    1
    4     1     5    1
    5     5     6    1
    6     5     7    1
    7     7     8    1
    8     7     9    1
    9     7    10    1
   10     5    11    1
   11    11    12    1
   12    11    13    1
   13    11    14    1
   14    14    15    1
   15    14    16    1
   16    14    17    1
   17    17    18    1
   18    17    19    1
   19    17    20    1
@<TRIPOS>SUBSTRUCTURE
       1 MOL1            1 RESIDUE      1      MOL     
@<SCITEGIC>MOL_PROPERTY
VConf Rank
SciTegic.value.IntegerValue
553

@<SCITEGIC>MOL_PROPERTY
Conf_Id
SciTegic.value.IntegerValue
52

@<SCITEGIC>MOL_PROPERTY
Delta U+W
SciTegic.value.DoubleValue
2.995

@<SCITEGIC>MOL_PROPERTY
U+W
SciTegic.value.DoubleValue
-33.282

@<SCITEGIC>MOL_PROPERTY
Grad RMS
SciTegic.value.DoubleValue
0.000000

@<SCITEGIC>MOL_PROPERTY
U
SciTegic.value.DoubleValue
25.224

@<SCITEGIC>MOL_PROPERTY
W
SciTegic.value.DoubleValue
-58.506

@<SCITEGIC>MOL_PROPERTY
W(PB)
SciTegic.value.DoubleValue
-60.411

@<SCITEGIC>MOL_PROPERTY
W(SA)
SciTegic.value.DoubleValue
1.905

@<SCITEGIC>MOL_PROPERTY
Valence
SciTegic.value.DoubleValue
4.945

@<SCITEGIC>MOL_PROPERTY
Coulomb
SciTegic.value.DoubleValue
19.467

@<SCITEGIC>MOL_PROPERTY
VdW
SciTegic.value.DoubleValue
0.813

@<SCITEGIC>MOL_PROPERTY
VdW6
SciTegic.value.DoubleValue
-5.458

@<SCITEGIC>MOL_PROPERTY
VdW12
SciTegic.value.DoubleValue
6.270

@<SCITEGIC>MOL_PROPERTY
Bond
SciTegic.value.DoubleValue
0.200

@<SCITEGIC>MOL_PROPERTY
Angle
SciTegic.value.DoubleValue
1.675

@<SCITEGIC>MOL_PROPERTY
Pdih
SciTegic.value.DoubleValue
3.070

@<SCITEGIC>MOL_PROPERTY
Idih
SciTegic.value.DoubleValue
0.000

@<SCITEGIC>MOL_PROPERTY
Tether
SciTegic.value.DoubleValue
0.000

@<TRIPOS>MOLECULE
guest-s10_confgen4.mol2 : confsearch ligand conformer 554
          20          19           1
SMALL
USER_CHARGES
 
@<TRIPOS>ATOM
       1    N1      20.615198   17.949662   23.612749 N.4        1 MOL1        -0.5937
       2    H1      20.601445   17.089519   23.059267 H          1 MOL1         0.3684
       3    H2      20.831914   17.688752   24.578465 H          1 MOL1         0.3684
       4    H3      21.387284   18.523543   23.267019 H          1 MOL1         0.3684
       5    C1      19.305023   18.683104   23.519190 C.3        1 MOL1         0.1270
       6    H4      19.379029   19.559367   24.170666 H          1 MOL1         0.0960
       7    C2      18.168347   17.789100   24.043101 C.3        1 MOL1        -0.2382
       8    H5      18.040375   16.899647   23.413534 H          1 MOL1         0.1009
       9    H6      17.217152   18.335524   24.060257 H          1 MOL1         0.1009
      10    H7      18.376361   17.455978   25.067355 H          1 MOL1         0.1009
      11    C3      18.991039   19.169453   22.084228 C.3        1 MOL1        -0.1392
      12    H8      19.160623   18.355234   21.367387 H          1 MOL1         0.0998
      13    H9      17.920424   19.405894   22.021275 H          1 MOL1         0.0998
      14    C4      19.765976   20.439130   21.643772 C.3        1 MOL1        -0.1302
      15    H10     19.553466   21.262686   22.339926 H          1 MOL1         0.0998
      16    H11     19.372723   20.758813   20.668487 H          1 MOL1         0.0998
      17    C5      21.295177   20.254492   21.514702 C.3        1 MOL1        -0.2317
      18    H12     21.740372   21.122690   21.011391 H          1 MOL1         0.1009
      19    H13     21.541553   19.364412   20.921093 H          1 MOL1         0.1009
      20    H14     21.776911   20.173268   22.495912 H          1 MOL1         0.1009
@<TRIPOS>BOND
    1     1     2    1
    2     1     3    1
    3     1     4    1
    4     1     5    1
    5     5     6    1
    6     5     7    1
    7     7     8    1
    8     7     9    1
    9     7    10    1
   10     5    11    1
   11    11    12    1
   12    11    13    1
   13    11    14    1
   14    14    15    1
   15    14    16    1
   16    14    17    1
   17    17    18    1
   18    17    19    1
   19    17    20    1
@<TRIPOS>SUBSTRUCTURE
       1 MOL1            1 RESIDUE      1      MOL     
@<SCITEGIC>MOL_PROPERTY
VConf Rank
SciTegic.value.IntegerValue
554

@<SCITEGIC>MOL_PROPERTY
Conf_Id
SciTegic.value.IntegerValue
54

@<SCITEGIC>MOL_PROPERTY
Delta U+W
SciTegic.value.DoubleValue
2.752

@<SCITEGIC>MOL_PROPERTY
U+W
SciTegic.value.DoubleValue
-33.525

@<SCITEGIC>MOL_PROPERTY
Grad RMS
SciTegic.value.DoubleValue
0.000000

@<SCITEGIC>MOL_PROPERTY
U
SciTegic.value.DoubleValue
24.337

@<SCITEGIC>MOL_PROPERTY
W
SciTegic.value.DoubleValue
-57.862

@<SCITEGIC>MOL_PROPERTY
W(PB)
SciTegic.value.DoubleValue
-59.764

@<SCITEGIC>MOL_PROPERTY
W(SA)
SciTegic.value.DoubleValue
1.901

@<SCITEGIC>MOL_PROPERTY
Valence
SciTegic.value.DoubleValue
3.593

@<SCITEGIC>MOL_PROPERTY
Coulomb
SciTegic.value.DoubleValue
20.067

@<SCITEGIC>MOL_PROPERTY
VdW
SciTegic.value.DoubleValue
0.677

@<SCITEGIC>MOL_PROPERTY
VdW6
SciTegic.value.DoubleValue
-5.466

@<SCITEGIC>MOL_PROPERTY
VdW12
SciTegic.value.DoubleValue
6.144

@<SCITEGIC>MOL_PROPERTY
Bond
SciTegic.value.DoubleValue
0.191

@<SCITEGIC>MOL_PROPERTY
Angle
SciTegic.value.DoubleValue
1.557

@<SCITEGIC>MOL_PROPERTY
Pdih
SciTegic.value.DoubleValue
1.845

@<SCITEGIC>MOL_PROPERTY
Idih
SciTegic.value.DoubleValue
0.000

@<SCITEGIC>MOL_PROPERTY
Tether
SciTegic.value.DoubleValue
0.000

@<TRIPOS>MOLECULE
guest-s10_confgen4.mol2 : confsearch ligand conformer 555
          20          19           1
SMALL
USER_CHARGES
 
@<TRIPOS>ATOM
       1    N1      21.618395   18.279781   23.285052 N.4        1 MOL1        -0.5937
       2    H1      22.328061   18.336090   24.020483 H          1 MOL1         0.3684
       3    H2      22.107719   18.101297   22.403907 H          1 MOL1         0.3684
       4    H3      21.036384   17.463079   23.484325 H          1 MOL1         0.3684
       5    C1      20.795849   19.537774   23.216072 C.3        1 MOL1         0.1270
       6    H4      21.501795   20.350469   23.018109 H          1 MOL1         0.0960
       7    C2      20.118852   19.830584   24.566916 C.3        1 MOL1        -0.2382
       8    H5      19.518834   20.747336   24.511991 H          1 MOL1         0.1009
       9    H6      20.872788   19.973926   25.350574 H          1 MOL1         0.1009
      10    H7      19.463720   19.008931   24.879535 H          1 MOL1         0.1009
      11    C3      19.780425   19.518896   22.048335 C.3        1 MOL1        -0.1392
      12    H8      19.280225   20.495208   21.999847 H          1 MOL1         0.0998
      13    H9      20.336202   19.418462   21.106829 H          1 MOL1         0.0998
      14    C4      18.710626   18.399369   22.129171 C.3        1 MOL1        -0.1302
      15    H10     18.108978   18.513632   23.040750 H          1 MOL1         0.0998
      16    H11     19.194946   17.415423   22.187878 H          1 MOL1         0.0998
      17    C5      17.770668   18.424783   20.904768 C.3        1 MOL1        -0.2317
      18    H12     17.018155   17.628813   20.977027 H          1 MOL1         0.1009
      19    H13     18.331017   18.274026   19.972834 H          1 MOL1         0.1009
      20    H14     17.240435   19.383424   20.833467 H          1 MOL1         0.1009
@<TRIPOS>BOND
    1     1     2    1
    2     1     3    1
    3     1     4    1
    4     1     5    1
    5     5     6    1
    6     5     7    1
    7     7     8    1
    8     7     9    1
    9     7    10    1
   10     5    11    1
   11    11    12    1
   12    11    13    1
   13    11    14    1
   14    14    15    1
   15    14    16    1
   16    14    17    1
   17    17    18    1
   18    17    19    1
   19    17    20    1
@<TRIPOS>SUBSTRUCTURE
       1 MOL1            1 RESIDUE      1      MOL     
@<SCITEGIC>MOL_PROPERTY
VConf Rank
SciTegic.value.IntegerValue
555

@<SCITEGIC>MOL_PROPERTY
Conf_Id
SciTegic.value.IntegerValue
63

@<SCITEGIC>MOL_PROPERTY
Delta U+W
SciTegic.value.DoubleValue
0.420

@<SCITEGIC>MOL_PROPERTY
U+W
SciTegic.value.DoubleValue
-35.856

@<SCITEGIC>MOL_PROPERTY
Grad RMS
SciTegic.value.DoubleValue
0.000000

@<SCITEGIC>MOL_PROPERTY
U
SciTegic.value.DoubleValue
22.625

@<SCITEGIC>MOL_PROPERTY
W
SciTegic.value.DoubleValue
-58.481

@<SCITEGIC>MOL_PROPERTY
W(PB)
SciTegic.value.DoubleValue
-60.400

@<SCITEGIC>MOL_PROPERTY
W(SA)
SciTegic.value.DoubleValue
1.919

@<SCITEGIC>MOL_PROPERTY
Valence
SciTegic.value.DoubleValue
2.404

@<SCITEGIC>MOL_PROPERTY
Coulomb
SciTegic.value.DoubleValue
19.464

@<SCITEGIC>MOL_PROPERTY
VdW
SciTegic.value.DoubleValue
0.757

@<SCITEGIC>MOL_PROPERTY
VdW6
SciTegic.value.DoubleValue
-5.074

@<SCITEGIC>MOL_PROPERTY
VdW12
SciTegic.value.DoubleValue
5.830

@<SCITEGIC>MOL_PROPERTY
Bond
SciTegic.value.DoubleValue
0.172

@<SCITEGIC>MOL_PROPERTY
Angle
SciTegic.value.DoubleValue
1.207

@<SCITEGIC>MOL_PROPERTY
Pdih
SciTegic.value.DoubleValue
1.025

@<SCITEGIC>MOL_PROPERTY
Idih
SciTegic.value.DoubleValue
0.000

@<SCITEGIC>MOL_PROPERTY
Tether
SciTegic.value.DoubleValue
0.000

@<TRIPOS>MOLECULE
guest-s10_confgen4.mol2 : confsearch ligand conformer 556
          20          19           1
SMALL
USER_CHARGES
 
@<TRIPOS>ATOM
       1    N1      18.670071   17.938416   23.774959 N.4        1 MOL1        -0.5937
       2    H1      19.307442   17.191918   23.486215 H          1 MOL1         0.3684
       3    H2      17.769435   17.767194   23.321130 H          1 MOL1         0.3684
       4    H3      18.526867   17.844876   24.784060 H          1 MOL1         0.3684
       5    C1      19.218117   19.293674   23.418447 C.3        1 MOL1         0.1270
       6    H4      20.172585   19.395259   23.943615 H          1 MOL1         0.0960
       7    C2      18.279501   20.406301   23.912988 C.3        1 MOL1        -0.2382
       8    H5      18.121577   20.328491   24.995689 H          1 MOL1         0.1009
       9    H6      17.300989   20.349398   23.420006 H          1 MOL1         0.1009
      10    H7      18.707251   21.395939   23.709840 H          1 MOL1         0.1009
      11    C3      19.480444   19.445146   21.902788 C.3        1 MOL1        -0.1392
      12    H8      18.530274   19.362402   21.358578 H          1 MOL1         0.0998
      13    H9      19.859632   20.456640   21.705243 H          1 MOL1         0.0998
      14    C4      20.485944   18.416296   21.326302 C.3        1 MOL1        -0.1302
      15    H10     20.601562   18.601807   20.249213 H          1 MOL1         0.0998
      16    H11     20.081672   17.398839   21.415244 H          1 MOL1         0.0998
      17    C5      21.876233   18.485763   21.998343 C.3        1 MOL1        -0.2317
      18    H12     22.301294   19.495055   21.921976 H          1 MOL1         0.1009
      19    H13     22.573632   17.791586   21.511700 H          1 MOL1         0.1009
      20    H14     21.826837   18.214130   23.060262 H          1 MOL1         0.1009
@<TRIPOS>BOND
    1     1     2    1
    2     1     3    1
    3     1     4    1
    4     1     5    1
    5     5     6    1
    6     5     7    1
    7     7     8    1
    8     7     9    1
    9     7    10    1
   10     5    11    1
   11    11    12    1
   12    11    13    1
   13    11    14    1
   14    14    15    1
   15    14    16    1
   16    14    17    1
   17    17    18    1
   18    17    19    1
   19    17    20    1
@<TRIPOS>SUBSTRUCTURE
       1 MOL1            1 RESIDUE      1      MOL     
@<SCITEGIC>MOL_PROPERTY
VConf Rank
SciTegic.value.IntegerValue
556

@<SCITEGIC>MOL_PROPERTY
Conf_Id
SciTegic.value.IntegerValue
50

@<SCITEGIC>MOL_PROPERTY
Delta U+W
SciTegic.value.DoubleValue
0.466

@<SCITEGIC>MOL_PROPERTY
U+W
SciTegic.value.DoubleValue
-35.811

@<SCITEGIC>MOL_PROPERTY
Grad RMS
SciTegic.value.DoubleValue
0.000000

@<SCITEGIC>MOL_PROPERTY
U
SciTegic.value.DoubleValue
22.369

@<SCITEGIC>MOL_PROPERTY
W
SciTegic.value.DoubleValue
-58.180

@<SCITEGIC>MOL_PROPERTY
W(PB)
SciTegic.value.DoubleValue
-60.103

@<SCITEGIC>MOL_PROPERTY
W(SA)
SciTegic.value.DoubleValue
1.923

@<SCITEGIC>MOL_PROPERTY
Valence
SciTegic.value.DoubleValue
2.168

@<SCITEGIC>MOL_PROPERTY
Coulomb
SciTegic.value.DoubleValue
19.636

@<SCITEGIC>MOL_PROPERTY
VdW
SciTegic.value.DoubleValue
0.566

@<SCITEGIC>MOL_PROPERTY
VdW6
SciTegic.value.DoubleValue
-5.263

@<SCITEGIC>MOL_PROPERTY
VdW12
SciTegic.value.DoubleValue
5.829

@<SCITEGIC>MOL_PROPERTY
Bond
SciTegic.value.DoubleValue
0.162

@<SCITEGIC>MOL_PROPERTY
Angle
SciTegic.value.DoubleValue
1.066

@<SCITEGIC>MOL_PROPERTY
Pdih
SciTegic.value.DoubleValue
0.939

@<SCITEGIC>MOL_PROPERTY
Idih
SciTegic.value.DoubleValue
0.000

@<SCITEGIC>MOL_PROPERTY
Tether
SciTegic.value.DoubleValue
0.000

@<TRIPOS>MOLECULE
guest-s10_confgen4.mol2 : confsearch ligand conformer 557
          20          19           1
SMALL
USER_CHARGES
 
@<TRIPOS>ATOM
       1    N1      18.123032   17.237235   22.415898 N.4        1 MOL1        -0.5937
       2    H1      18.278150   16.570336   23.176937 H          1 MOL1         0.3684
       3    H2      18.375460   16.769695   21.541508 H          1 MOL1         0.3684
       4    H3      17.117754   17.426674   22.380349 H          1 MOL1         0.3684
       5    C1      18.914884   18.501233   22.615552 C.3        1 MOL1         0.1270
       6    H4      18.580283   18.923065   23.568370 H          1 MOL1         0.0960
       7    C2      18.596464   19.505373   21.492041 C.3        1 MOL1        -0.2382
       8    H5      18.873656   19.101187   20.510479 H          1 MOL1         0.1009
       9    H6      19.134419   20.449357   21.630922 H          1 MOL1         0.1009
      10    H7      17.524308   19.736101   21.472683 H          1 MOL1         0.1009
      11    C3      20.434404   18.221179   22.719763 C.3        1 MOL1        -0.1392
      12    H8      20.589679   17.154905   22.931000 H          1 MOL1         0.0998
      13    H9      20.925560   18.405711   21.755021 H          1 MOL1         0.0998
      14    C4      21.144514   19.021444   23.840968 C.3        1 MOL1        -0.1302
      15    H10     22.194665   18.700884   23.889519 H          1 MOL1         0.0998
      16    H11     20.701694   18.763451   24.813301 H          1 MOL1         0.0998
      17    C5      21.101248   20.553561   23.648668 C.3        1 MOL1        -0.2317
      18    H12     21.498372   20.841160   22.666524 H          1 MOL1         0.1009
      19    H13     21.708668   21.053283   24.414409 H          1 MOL1         0.1009
      20    H14     20.078468   20.940210   23.738417 H          1 MOL1         0.1009
@<TRIPOS>BOND
    1     1     2    1
    2     1     3    1
    3     1     4    1
    4     1     5    1
    5     5     6    1
    6     5     7    1
    7     7     8    1
    8     7     9    1
    9     7    10    1
   10     5    11    1
   11    11    12    1
   12    11    13    1
   13    11    14    1
   14    14    15    1
   15    14    16    1
   16    14    17    1
   17    17    18    1
   18    17    19    1
   19    17    20    1
@<TRIPOS>SUBSTRUCTURE
       1 MOL1            1 RESIDUE      1      MOL     
@<SCITEGIC>MOL_PROPERTY
VConf Rank
SciTegic.value.IntegerValue
557

@<SCITEGIC>MOL_PROPERTY
Conf_Id
SciTegic.value.IntegerValue
3

@<SCITEGIC>MOL_PROPERTY
Delta U+W
SciTegic.value.DoubleValue
3.093

@<SCITEGIC>MOL_PROPERTY
U+W
SciTegic.value.DoubleValue
-33.184

@<SCITEGIC>MOL_PROPERTY
Grad RMS
SciTegic.value.DoubleValue
0.000000

@<SCITEGIC>MOL_PROPERTY
U
SciTegic.value.DoubleValue
25.256

@<SCITEGIC>MOL_PROPERTY
W
SciTegic.value.DoubleValue
-58.439

@<SCITEGIC>MOL_PROPERTY
W(PB)
SciTegic.value.DoubleValue
-60.337

@<SCITEGIC>MOL_PROPERTY
W(SA)
SciTegic.value.DoubleValue
1.898

@<SCITEGIC>MOL_PROPERTY
Valence
SciTegic.value.DoubleValue
4.963

@<SCITEGIC>MOL_PROPERTY
Coulomb
SciTegic.value.DoubleValue
19.511

@<SCITEGIC>MOL_PROPERTY
VdW
SciTegic.value.DoubleValue
0.782

@<SCITEGIC>MOL_PROPERTY
VdW6
SciTegic.value.DoubleValue
-5.429

@<SCITEGIC>MOL_PROPERTY
VdW12
SciTegic.value.DoubleValue
6.211

@<SCITEGIC>MOL_PROPERTY
Bond
SciTegic.value.DoubleValue
0.174

@<SCITEGIC>MOL_PROPERTY
Angle
SciTegic.value.DoubleValue
1.377

@<SCITEGIC>MOL_PROPERTY
Pdih
SciTegic.value.DoubleValue
3.412

@<SCITEGIC>MOL_PROPERTY
Idih
SciTegic.value.DoubleValue
0.000

@<SCITEGIC>MOL_PROPERTY
Tether
SciTegic.value.DoubleValue
0.000

@<TRIPOS>MOLECULE
guest-s10_confgen4.mol2 : confsearch ligand conformer 558
          20          19           1
SMALL
USER_CHARGES
 
@<TRIPOS>ATOM
       1    N1      21.032591   17.144914   22.381177 N.4        1 MOL1        -0.5937
       2    H1      22.021102   17.235695   22.131700 H          1 MOL1         0.3684
       3    H2      20.569334   16.658272   21.608906 H          1 MOL1         0.3684
       4    H3      20.980952   16.536132   23.201788 H          1 MOL1         0.3684
       5    C1      20.406278   18.486180   22.647862 C.3        1 MOL1         0.1270
       6    H4      20.511964   19.062949   21.724140 H          1 MOL1         0.0960
       7    C2      21.166546   19.218934   23.768204 C.3        1 MOL1        -0.2382
       8    H5      20.812811   20.250381   23.880113 H          1 MOL1         0.1009
       9    H6      22.238574   19.266557   23.541000 H          1 MOL1         0.1009
      10    H7      21.045097   18.707279   24.730986 H          1 MOL1         0.1009
      11    C3      18.897935   18.346974   22.964017 C.3        1 MOL1        -0.1392
      12    H8      18.426824   17.749216   22.172648 H          1 MOL1         0.0998
      13    H9      18.772646   17.774924   23.892885 H          1 MOL1         0.0998
      14    C4      18.127807   19.686725   23.086790 C.3        1 MOL1        -0.1302
      15    H10     18.485983   20.254561   23.956011 H          1 MOL1         0.0998
      16    H11     17.069777   19.467211   23.287351 H          1 MOL1         0.0998
      17    C5      18.225515   20.560438   21.815480 C.3        1 MOL1        -0.2317
      18    H12     17.874911   20.012067   20.931442 H          1 MOL1         0.1009
      19    H13     19.256021   20.888571   21.629870 H          1 MOL1         0.1009
      20    H14     17.605638   21.460487   21.918832 H          1 MOL1         0.1009
@<TRIPOS>BOND
    1     1     2    1
    2     1     3    1
    3     1     4    1
    4     1     5    1
    5     5     6    1
    6     5     7    1
    7     7     8    1
    8     7     9    1
    9     7    10    1
   10     5    11    1
   11    11    12    1
   12    11    13    1
   13    11    14    1
   14    14    15    1
   15    14    16    1
   16    14    17    1
   17    17    18    1
   18    17    19    1
   19    17    20    1
@<TRIPOS>SUBSTRUCTURE
       1 MOL1            1 RESIDUE      1      MOL     
@<SCITEGIC>MOL_PROPERTY
VConf Rank
SciTegic.value.IntegerValue
558

@<SCITEGIC>MOL_PROPERTY
Conf_Id
SciTegic.value.IntegerValue
64

@<SCITEGIC>MOL_PROPERTY
Delta U+W
SciTegic.value.DoubleValue
0.544

@<SCITEGIC>MOL_PROPERTY
U+W
SciTegic.value.DoubleValue
-35.732

@<SCITEGIC>MOL_PROPERTY
Grad RMS
SciTegic.value.DoubleValue
0.000000

@<SCITEGIC>MOL_PROPERTY
U
SciTegic.value.DoubleValue
22.800

@<SCITEGIC>MOL_PROPERTY
W
SciTegic.value.DoubleValue
-58.532

@<SCITEGIC>MOL_PROPERTY
W(PB)
SciTegic.value.DoubleValue
-60.437

@<SCITEGIC>MOL_PROPERTY
W(SA)
SciTegic.value.DoubleValue
1.905

@<SCITEGIC>MOL_PROPERTY
Valence
SciTegic.value.DoubleValue
2.662

@<SCITEGIC>MOL_PROPERTY
Coulomb
SciTegic.value.DoubleValue
19.485

@<SCITEGIC>MOL_PROPERTY
VdW
SciTegic.value.DoubleValue
0.653

@<SCITEGIC>MOL_PROPERTY
VdW6
SciTegic.value.DoubleValue
-5.460

@<SCITEGIC>MOL_PROPERTY
VdW12
SciTegic.value.DoubleValue
6.113

@<SCITEGIC>MOL_PROPERTY
Bond
SciTegic.value.DoubleValue
0.174

@<SCITEGIC>MOL_PROPERTY
Angle
SciTegic.value.DoubleValue
1.378

@<SCITEGIC>MOL_PROPERTY
Pdih
SciTegic.value.DoubleValue
1.109

@<SCITEGIC>MOL_PROPERTY
Idih
SciTegic.value.DoubleValue
0.000

@<SCITEGIC>MOL_PROPERTY
Tether
SciTegic.value.DoubleValue
0.000

@<TRIPOS>MOLECULE
guest-s10_confgen4.mol2 : confsearch ligand conformer 559
          20          19           1
SMALL
USER_CHARGES
 
@<TRIPOS>ATOM
       1    N1      19.006399   20.858802   22.386555 N.4        1 MOL1        -0.5937
       2    H1      18.809587   20.710722   23.378830 H          1 MOL1         0.3684
       3    H2      18.150963   21.219840   21.955865 H          1 MOL1         0.3684
       4    H3      19.713815   21.595570   22.320244 H          1 MOL1         0.3684
       5    C1      19.464639   19.589578   21.720282 C.3        1 MOL1         0.1270
       6    H4      19.636500   19.847892   20.670663 H          1 MOL1         0.0960
       7    C2      18.358794   18.522054   21.755250 C.3        1 MOL1        -0.2382
       8    H5      18.037826   18.309899   22.781739 H          1 MOL1         0.1009
       9    H6      18.703152   17.587177   21.296163 H          1 MOL1         0.1009
      10    H7      17.479584   18.863265   21.195308 H          1 MOL1         0.1009
      11    C3      20.814077   19.080531   22.286698 C.3        1 MOL1        -0.1392
      12    H8      21.188105   18.262652   21.656877 H          1 MOL1         0.0998
      13    H9      21.545308   19.891190   22.170016 H          1 MOL1         0.0998
      14    C4      20.810809   18.638847   23.776708 C.3        1 MOL1        -0.1302
      15    H10     20.077476   19.216115   24.354950 H          1 MOL1         0.0998
      16    H11     21.791041   18.880304   24.211251 H          1 MOL1         0.0998
      17    C5      20.568781   17.123543   23.971696 C.3        1 MOL1        -0.2317
      18    H12     19.586410   16.810518   23.601642 H          1 MOL1         0.1009
      19    H13     20.619523   16.861305   25.036413 H          1 MOL1         0.1009
      20    H14     21.331826   16.533140   23.448027 H          1 MOL1         0.1009
@<TRIPOS>BOND
    1     1     2    1
    2     1     3    1
    3     1     4    1
    4     1     5    1
    5     5     6    1
    6     5     7    1
    7     7     8    1
    8     7     9    1
    9     7    10    1
   10     5    11    1
   11    11    12    1
   12    11    13    1
   13    11    14    1
   14    14    15    1
   15    14    16    1
   16    14    17    1
   17    17    18    1
   18    17    19    1
   19    17    20    1
@<TRIPOS>SUBSTRUCTURE
       1 MOL1            1 RESIDUE      1      MOL     
@<SCITEGIC>MOL_PROPERTY
VConf Rank
SciTegic.value.IntegerValue
559

@<SCITEGIC>MOL_PROPERTY
Conf_Id
SciTegic.value.IntegerValue
35

@<SCITEGIC>MOL_PROPERTY
Delta U+W
SciTegic.value.DoubleValue
3.004

@<SCITEGIC>MOL_PROPERTY
U+W
SciTegic.value.DoubleValue
-33.272

@<SCITEGIC>MOL_PROPERTY
Grad RMS
SciTegic.value.DoubleValue
0.000000

@<SCITEGIC>MOL_PROPERTY
U
SciTegic.value.DoubleValue
25.367

@<SCITEGIC>MOL_PROPERTY
W
SciTegic.value.DoubleValue
-58.639

@<SCITEGIC>MOL_PROPERTY
W(PB)
SciTegic.value.DoubleValue
-60.512

@<SCITEGIC>MOL_PROPERTY
W(SA)
SciTegic.value.DoubleValue
1.873

@<SCITEGIC>MOL_PROPERTY
Valence
SciTegic.value.DoubleValue
4.943

@<SCITEGIC>MOL_PROPERTY
Coulomb
SciTegic.value.DoubleValue
19.661

@<SCITEGIC>MOL_PROPERTY
VdW
SciTegic.value.DoubleValue
0.764

@<SCITEGIC>MOL_PROPERTY
VdW6
SciTegic.value.DoubleValue
-5.871

@<SCITEGIC>MOL_PROPERTY
VdW12
SciTegic.value.DoubleValue
6.636

@<SCITEGIC>MOL_PROPERTY
Bond
SciTegic.value.DoubleValue
0.230

@<SCITEGIC>MOL_PROPERTY
Angle
SciTegic.value.DoubleValue
1.857

@<SCITEGIC>MOL_PROPERTY
Pdih
SciTegic.value.DoubleValue
2.855

@<SCITEGIC>MOL_PROPERTY
Idih
SciTegic.value.DoubleValue
0.000

@<SCITEGIC>MOL_PROPERTY
Tether
SciTegic.value.DoubleValue
0.000

@<TRIPOS>MOLECULE
guest-s10_confgen4.mol2 : confsearch ligand conformer 560
          20          19           1
SMALL
USER_CHARGES
 
@<TRIPOS>ATOM
       1    N1      20.813935   20.074927   23.665756 N.4        1 MOL1        -0.5937
       2    H1      20.709271   20.703387   24.466809 H          1 MOL1         0.3684
       3    H2      21.677742   20.337370   23.183529 H          1 MOL1         0.3684
       4    H3      20.941745   19.128464   24.028894 H          1 MOL1         0.3684
       5    C1      19.625598   20.149561   22.746654 C.3        1 MOL1         0.1270
       6    H4      19.594738   21.186406   22.397471 H          1 MOL1         0.0960
       7    C2      18.312621   19.881920   23.503602 C.3        1 MOL1        -0.2382
       8    H5      18.307224   18.887710   23.966000 H          1 MOL1         0.1009
       9    H6      17.452287   19.951589   22.826556 H          1 MOL1         0.1009
      10    H7      18.170142   20.622820   24.299676 H          1 MOL1         0.1009
      11    C3      19.774490   19.257016   21.487882 C.3        1 MOL1        -0.1392
      12    H8      19.041786   19.602776   20.746845 H          1 MOL1         0.0998
      13    H9      20.756679   19.443324   21.034217 H          1 MOL1         0.0998
      14    C4      19.577154   17.726075   21.671927 C.3        1 MOL1        -0.1302
      15    H10     19.670278   17.251102   20.685239 H          1 MOL1         0.0998
      16    H11     18.553070   17.511435   22.006312 H          1 MOL1         0.0998
      17    C5      20.587994   17.055642   22.629865 C.3        1 MOL1        -0.2317
      18    H12     21.620537   17.323368   22.370406 H          1 MOL1         0.1009
      19    H13     20.502453   15.962924   22.568051 H          1 MOL1         0.1009
      20    H14     20.400867   17.333729   23.673378 H          1 MOL1         0.1009
@<TRIPOS>BOND
    1     1     2    1
    2     1     3    1
    3     1     4    1
    4     1     5    1
    5     5     6    1
    6     5     7    1
    7     7     8    1
    8     7     9    1
    9     7    10    1
   10     5    11    1
   11    11    12    1
   12    11    13    1
   13    11    14    1
   14    14    15    1
   15    14    16    1
   16    14    17    1
   17    17    18    1
   18    17    19    1
   19    17    20    1
@<TRIPOS>SUBSTRUCTURE
       1 MOL1            1 RESIDUE      1      MOL     
@<SCITEGIC>MOL_PROPERTY
VConf Rank
SciTegic.value.IntegerValue
560

@<SCITEGIC>MOL_PROPERTY
Conf_Id
SciTegic.value.IntegerValue
55

@<SCITEGIC>MOL_PROPERTY
Delta U+W
SciTegic.value.DoubleValue
2.767

@<SCITEGIC>MOL_PROPERTY
U+W
SciTegic.value.DoubleValue
-33.509

@<SCITEGIC>MOL_PROPERTY
Grad RMS
SciTegic.value.DoubleValue
0.000000

@<SCITEGIC>MOL_PROPERTY
U
SciTegic.value.DoubleValue
24.552

@<SCITEGIC>MOL_PROPERTY
W
SciTegic.value.DoubleValue
-58.061

@<SCITEGIC>MOL_PROPERTY
W(PB)
SciTegic.value.DoubleValue
-59.930

@<SCITEGIC>MOL_PROPERTY
W(SA)
SciTegic.value.DoubleValue
1.869

@<SCITEGIC>MOL_PROPERTY
Valence
SciTegic.value.DoubleValue
3.726

@<SCITEGIC>MOL_PROPERTY
Coulomb
SciTegic.value.DoubleValue
20.219

@<SCITEGIC>MOL_PROPERTY
VdW
SciTegic.value.DoubleValue
0.606

@<SCITEGIC>MOL_PROPERTY
VdW6
SciTegic.value.DoubleValue
-6.395

@<SCITEGIC>MOL_PROPERTY
VdW12
SciTegic.value.DoubleValue
7.001

@<SCITEGIC>MOL_PROPERTY
Bond
SciTegic.value.DoubleValue
0.241

@<SCITEGIC>MOL_PROPERTY
Angle
SciTegic.value.DoubleValue
2.098

@<SCITEGIC>MOL_PROPERTY
Pdih
SciTegic.value.DoubleValue
1.387

@<SCITEGIC>MOL_PROPERTY
Idih
SciTegic.value.DoubleValue
0.000

@<SCITEGIC>MOL_PROPERTY
Tether
SciTegic.value.DoubleValue
0.000

@<TRIPOS>MOLECULE
guest-s10_confgen4.mol2 : confsearch ligand conformer 561
          20          19           1
SMALL
USER_CHARGES
 
@<TRIPOS>ATOM
       1    N1      18.678826   17.822034   21.507978 N.4        1 MOL1        -0.5937
       2    H1      17.953581   17.556176   22.178711 H          1 MOL1         0.3684
       3    H2      18.709747   17.095255   20.787914 H          1 MOL1         0.3684
       4    H3      18.375447   18.686941   21.053578 H          1 MOL1         0.3684
       5    C1      20.015549   17.989956   22.178824 C.3        1 MOL1         0.1270
       6    H4      20.726361   18.275858   21.397226 H          1 MOL1         0.0960
       7    C2      20.483370   16.659517   22.791231 C.3        1 MOL1        -0.2382
       8    H5      20.529410   15.874627   22.026318 H          1 MOL1         0.1009
       9    H6      19.801806   16.325175   23.583368 H          1 MOL1         0.1009
      10    H7      21.486434   16.760561   23.224002 H          1 MOL1         0.1009
      11    C3      20.005628   19.100917   23.252052 C.3        1 MOL1        -0.1392
      12    H8      19.281256   18.849289   24.038109 H          1 MOL1         0.0998
      13    H9      20.991442   19.135801   23.734774 H          1 MOL1         0.0998
      14    C4      19.684220   20.499754   22.672854 C.3        1 MOL1        -0.1302
      15    H10     18.677786   20.506663   22.233004 H          1 MOL1         0.0998
      16    H11     20.387753   20.735311   21.861807 H          1 MOL1         0.0998
      17    C5      19.766338   21.597409   23.755312 C.3        1 MOL1        -0.2317
      18    H12     19.051965   21.406177   24.566703 H          1 MOL1         0.1009
      19    H13     19.534425   22.581586   23.327883 H          1 MOL1         0.1009
      20    H14     20.772662   21.648919   24.191077 H          1 MOL1         0.1009
@<TRIPOS>BOND
    1     1     2    1
    2     1     3    1
    3     1     4    1
    4     1     5    1
    5     5     6    1
    6     5     7    1
    7     7     8    1
    8     7     9    1
    9     7    10    1
   10     5    11    1
   11    11    12    1
   12    11    13    1
   13    11    14    1
   14    14    15    1
   15    14    16    1
   16    14    17    1
   17    17    18    1
   18    17    19    1
   19    17    20    1
@<TRIPOS>SUBSTRUCTURE
       1 MOL1            1 RESIDUE      1      MOL     
@<SCITEGIC>MOL_PROPERTY
VConf Rank
SciTegic.value.IntegerValue
561

@<SCITEGIC>MOL_PROPERTY
Conf_Id
SciTegic.value.IntegerValue
74

@<SCITEGIC>MOL_PROPERTY
Delta U+W
SciTegic.value.DoubleValue
0.000

@<SCITEGIC>MOL_PROPERTY
U+W
SciTegic.value.DoubleValue
-36.276

@<SCITEGIC>MOL_PROPERTY
Grad RMS
SciTegic.value.DoubleValue
0.000000

@<SCITEGIC>MOL_PROPERTY
U
SciTegic.value.DoubleValue
22.080

@<SCITEGIC>MOL_PROPERTY
W
SciTegic.value.DoubleValue
-58.356

@<SCITEGIC>MOL_PROPERTY
W(PB)
SciTegic.value.DoubleValue
-60.289

@<SCITEGIC>MOL_PROPERTY
W(SA)
SciTegic.value.DoubleValue
1.932

@<SCITEGIC>MOL_PROPERTY
Valence
SciTegic.value.DoubleValue
1.885

@<SCITEGIC>MOL_PROPERTY
Coulomb
SciTegic.value.DoubleValue
19.559

@<SCITEGIC>MOL_PROPERTY
VdW
SciTegic.value.DoubleValue
0.637

@<SCITEGIC>MOL_PROPERTY
VdW6
SciTegic.value.DoubleValue
-4.482

@<SCITEGIC>MOL_PROPERTY
VdW12
SciTegic.value.DoubleValue
5.119

@<SCITEGIC>MOL_PROPERTY
Bond
SciTegic.value.DoubleValue
0.136

@<SCITEGIC>MOL_PROPERTY
Angle
SciTegic.value.DoubleValue
0.867

@<SCITEGIC>MOL_PROPERTY
Pdih
SciTegic.value.DoubleValue
0.882

@<SCITEGIC>MOL_PROPERTY
Idih
SciTegic.value.DoubleValue
0.000

@<SCITEGIC>MOL_PROPERTY
Tether
SciTegic.value.DoubleValue
0.000

@<TRIPOS>MOLECULE
guest-s10_confgen4.mol2 : confsearch ligand conformer 562
          20          19           1
SMALL
USER_CHARGES
 
@<TRIPOS>ATOM
       1    N1      18.522246   20.743674   21.740882 N.4        1 MOL1        -0.5937
       2    H1      17.566279   20.377643   21.742987 H          1 MOL1         0.3684
       3    H2      18.880888   20.658210   20.786524 H          1 MOL1         0.3684
       4    H3      18.463600   21.742787   21.955391 H          1 MOL1         0.3684
       5    C1      19.396883   20.019054   22.726987 C.3        1 MOL1         0.1270
       6    H4      18.940522   20.167334   23.710660 H          1 MOL1         0.0960
       7    C2      20.806281   20.638741   22.746617 C.3        1 MOL1        -0.2382
       8    H5      20.749546   21.722672   22.905034 H          1 MOL1         0.1009
       9    H6      21.331686   20.460736   21.800127 H          1 MOL1         0.1009
      10    H7      21.413189   20.224834   23.559985 H          1 MOL1         0.1009
      11    C3      19.431481   18.501017   22.433975 C.3        1 MOL1        -0.1392
      12    H8      18.398583   18.144425   22.326151 H          1 MOL1         0.0998
      13    H9      19.924127   18.321789   21.469078 H          1 MOL1         0.0998
      14    C4      20.126560   17.666677   23.537562 C.3        1 MOL1        -0.1302
      15    H10     19.674860   17.893464   24.513576 H          1 MOL1         0.0998
      16    H11     21.188701   17.936613   23.607505 H          1 MOL1         0.0998
      17    C5      20.014749   16.151695   23.261862 C.3        1 MOL1        -0.2317
      18    H12     18.965074   15.831963   23.227353 H          1 MOL1         0.1009
      19    H13     20.515491   15.576009   24.051122 H          1 MOL1         0.1009
      20    H14     20.483712   15.888902   22.304640 H          1 MOL1         0.1009
@<TRIPOS>BOND
    1     1     2    1
    2     1     3    1
    3     1     4    1
    4     1     5    1
    5     5     6    1
    6     5     7    1
    7     7     8    1
    8     7     9    1
    9     7    10    1
   10     5    11    1
   11    11    12    1
   12    11    13    1
   13    11    14    1
   14    14    15    1
   15    14    16    1
   16    14    17    1
   17    17    18    1
   18    17    19    1
   19    17    20    1
@<TRIPOS>SUBSTRUCTURE
       1 MOL1            1 RESIDUE      1      MOL     
@<SCITEGIC>MOL_PROPERTY
VConf Rank
SciTegic.value.IntegerValue
562

@<SCITEGIC>MOL_PROPERTY
Conf_Id
SciTegic.value.IntegerValue
80

@<SCITEGIC>MOL_PROPERTY
Delta U+W
SciTegic.value.DoubleValue
0.460

@<SCITEGIC>MOL_PROPERTY
U+W
SciTegic.value.DoubleValue
-35.817

@<SCITEGIC>MOL_PROPERTY
Grad RMS
SciTegic.value.DoubleValue
0.000000

@<SCITEGIC>MOL_PROPERTY
U
SciTegic.value.DoubleValue
22.495

@<SCITEGIC>MOL_PROPERTY
W
SciTegic.value.DoubleValue
-58.311

@<SCITEGIC>MOL_PROPERTY
W(PB)
SciTegic.value.DoubleValue
-60.259

@<SCITEGIC>MOL_PROPERTY
W(SA)
SciTegic.value.DoubleValue
1.948

@<SCITEGIC>MOL_PROPERTY
Valence
SciTegic.value.DoubleValue
2.419

@<SCITEGIC>MOL_PROPERTY
Coulomb
SciTegic.value.DoubleValue
19.304

@<SCITEGIC>MOL_PROPERTY
VdW
SciTegic.value.DoubleValue
0.772

@<SCITEGIC>MOL_PROPERTY
VdW6
SciTegic.value.DoubleValue
-4.635

@<SCITEGIC>MOL_PROPERTY
VdW12
SciTegic.value.DoubleValue
5.407

@<SCITEGIC>MOL_PROPERTY
Bond
SciTegic.value.DoubleValue
0.149

@<SCITEGIC>MOL_PROPERTY
Angle
SciTegic.value.DoubleValue
1.142

@<SCITEGIC>MOL_PROPERTY
Pdih
SciTegic.value.DoubleValue
1.129

@<SCITEGIC>MOL_PROPERTY
Idih
SciTegic.value.DoubleValue
0.000

@<SCITEGIC>MOL_PROPERTY
Tether
SciTegic.value.DoubleValue
0.000

@<TRIPOS>MOLECULE
guest-s10_confgen4.mol2 : confsearch ligand conformer 563
          20          19           1
SMALL
USER_CHARGES
 
@<TRIPOS>ATOM
       1    N1      18.658852   18.811525   24.864033 N.4        1 MOL1        -0.5937
       2    H1      19.289850   19.107162   25.613867 H          1 MOL1         0.3684
       3    H2      18.600057   17.790689   24.897595 H          1 MOL1         0.3684
       4    H3      17.729762   19.177217   25.089146 H          1 MOL1         0.3684
       5    C1      19.129376   19.293529   23.519032 C.3        1 MOL1         0.1270
       6    H4      19.154499   20.386148   23.576939 H          1 MOL1         0.0960
       7    C2      18.120369   18.895816   22.428167 C.3        1 MOL1        -0.2382
       8    H5      17.103178   19.188525   22.715893 H          1 MOL1         0.1009
       9    H6      18.127314   17.812556   22.255099 H          1 MOL1         0.1009
      10    H7      18.344721   19.402158   21.482497 H          1 MOL1         0.1009
      11    C3      20.564831   18.795417   23.221222 C.3        1 MOL1        -0.1392
      12    H8      21.198798   19.093370   24.066799 H          1 MOL1         0.0998
      13    H9      20.589298   17.697794   23.202376 H          1 MOL1         0.0998
      14    C4      21.202639   19.368808   21.928138 C.3        1 MOL1        -0.1302
      15    H10     22.272827   19.539701   22.111474 H          1 MOL1         0.0998
      16    H11     20.776096   20.354862   21.696355 H          1 MOL1         0.0998
      17    C5      21.074033   18.425805   20.708614 C.3        1 MOL1        -0.2317
      18    H12     21.564466   17.463306   20.904035 H          1 MOL1         0.1009
      19    H13     21.554392   18.870180   19.827269 H          1 MOL1         0.1009
      20    H14     20.028479   18.224490   20.450097 H          1 MOL1         0.1009
@<TRIPOS>BOND
    1     1     2    1
    2     1     3    1
    3     1     4    1
    4     1     5    1
    5     5     6    1
    6     5     7    1
    7     7     8    1
    8     7     9    1
    9     7    10    1
   10     5    11    1
   11    11    12    1
   12    11    13    1
   13    11    14    1
   14    14    15    1
   15    14    16    1
   16    14    17    1
   17    17    18    1
   18    17    19    1
   19    17    20    1
@<TRIPOS>SUBSTRUCTURE
       1 MOL1            1 RESIDUE      1      MOL     
@<SCITEGIC>MOL_PROPERTY
VConf Rank
SciTegic.value.IntegerValue
563

@<SCITEGIC>MOL_PROPERTY
Conf_Id
SciTegic.value.IntegerValue
52

@<SCITEGIC>MOL_PROPERTY
Delta U+W
SciTegic.value.DoubleValue
2.995

@<SCITEGIC>MOL_PROPERTY
U+W
SciTegic.value.DoubleValue
-33.282

@<SCITEGIC>MOL_PROPERTY
Grad RMS
SciTegic.value.DoubleValue
0.000000

@<SCITEGIC>MOL_PROPERTY
U
SciTegic.value.DoubleValue
25.224

@<SCITEGIC>MOL_PROPERTY
W
SciTegic.value.DoubleValue
-58.506

@<SCITEGIC>MOL_PROPERTY
W(PB)
SciTegic.value.DoubleValue
-60.411

@<SCITEGIC>MOL_PROPERTY
W(SA)
SciTegic.value.DoubleValue
1.905

@<SCITEGIC>MOL_PROPERTY
Valence
SciTegic.value.DoubleValue
4.945

@<SCITEGIC>MOL_PROPERTY
Coulomb
SciTegic.value.DoubleValue
19.467

@<SCITEGIC>MOL_PROPERTY
VdW
SciTegic.value.DoubleValue
0.813

@<SCITEGIC>MOL_PROPERTY
VdW6
SciTegic.value.DoubleValue
-5.458

@<SCITEGIC>MOL_PROPERTY
VdW12
SciTegic.value.DoubleValue
6.270

@<SCITEGIC>MOL_PROPERTY
Bond
SciTegic.value.DoubleValue
0.200

@<SCITEGIC>MOL_PROPERTY
Angle
SciTegic.value.DoubleValue
1.675

@<SCITEGIC>MOL_PROPERTY
Pdih
SciTegic.value.DoubleValue
3.070

@<SCITEGIC>MOL_PROPERTY
Idih
SciTegic.value.DoubleValue
0.000

@<SCITEGIC>MOL_PROPERTY
Tether
SciTegic.value.DoubleValue
0.000

@<TRIPOS>MOLECULE
guest-s10_confgen4.mol2 : confsearch ligand conformer 564
          20          19           1
SMALL
USER_CHARGES
 
@<TRIPOS>ATOM
       1    N1      19.868869   18.984579   21.124383 N.4        1 MOL1        -0.5937
       2    H1      19.943154   19.967497   20.851013 H          1 MOL1         0.3684
       3    H2      19.548019   18.462335   20.304649 H          1 MOL1         0.3684
       4    H3      20.810877   18.657741   21.349738 H          1 MOL1         0.3684
       5    C1      18.936015   18.808865   22.291498 C.3        1 MOL1         0.1270
       6    H4      18.870664   17.735147   22.492975 H          1 MOL1         0.0960
       7    C2      17.532210   19.314233   21.917740 C.3        1 MOL1        -0.2382
       8    H5      17.538231   20.393495   21.720211 H          1 MOL1         0.1009
       9    H6      16.817762   19.118798   22.727070 H          1 MOL1         0.1009
      10    H7      17.161730   18.804368   21.019899 H          1 MOL1         0.1009
      11    C3      19.439651   19.514137   23.573362 C.3        1 MOL1        -0.1392
      12    H8      19.757542   20.538184   23.337039 H          1 MOL1         0.0998
      13    H9      18.597523   19.615325   24.270976 H          1 MOL1         0.0998
      14    C4      20.569568   18.764410   24.326889 C.3        1 MOL1        -0.1302
      15    H10     20.226426   17.756927   24.601237 H          1 MOL1         0.0998
      16    H11     20.755184   19.288937   25.274752 H          1 MOL1         0.0998
      17    C5      21.906402   18.662307   23.557697 C.3        1 MOL1        -0.2317
      18    H12     22.701335   18.305398   24.225517 H          1 MOL1         0.1009
      19    H13     22.216936   19.639239   23.164644 H          1 MOL1         0.1009
      20    H14     21.842295   17.948349   22.728485 H          1 MOL1         0.1009
@<TRIPOS>BOND
    1     1     2    1
    2     1     3    1
    3     1     4    1
    4     1     5    1
    5     5     6    1
    6     5     7    1
    7     7     8    1
    8     7     9    1
    9     7    10    1
   10     5    11    1
   11    11    12    1
   12    11    13    1
   13    11    14    1
   14    14    15    1
   15    14    16    1
   16    14    17    1
   17    17    18    1
   18    17    19    1
   19    17    20    1
@<TRIPOS>SUBSTRUCTURE
       1 MOL1            1 RESIDUE      1      MOL     
@<SCITEGIC>MOL_PROPERTY
VConf Rank
SciTegic.value.IntegerValue
564

@<SCITEGIC>MOL_PROPERTY
Conf_Id
SciTegic.value.IntegerValue
54

@<SCITEGIC>MOL_PROPERTY
Delta U+W
SciTegic.value.DoubleValue
2.752

@<SCITEGIC>MOL_PROPERTY
U+W
SciTegic.value.DoubleValue
-33.525

@<SCITEGIC>MOL_PROPERTY
Grad RMS
SciTegic.value.DoubleValue
0.000000

@<SCITEGIC>MOL_PROPERTY
U
SciTegic.value.DoubleValue
24.337

@<SCITEGIC>MOL_PROPERTY
W
SciTegic.value.DoubleValue
-57.862

@<SCITEGIC>MOL_PROPERTY
W(PB)
SciTegic.value.DoubleValue
-59.764

@<SCITEGIC>MOL_PROPERTY
W(SA)
SciTegic.value.DoubleValue
1.901

@<SCITEGIC>MOL_PROPERTY
Valence
SciTegic.value.DoubleValue
3.593

@<SCITEGIC>MOL_PROPERTY
Coulomb
SciTegic.value.DoubleValue
20.067

@<SCITEGIC>MOL_PROPERTY
VdW
SciTegic.value.DoubleValue
0.677

@<SCITEGIC>MOL_PROPERTY
VdW6
SciTegic.value.DoubleValue
-5.466

@<SCITEGIC>MOL_PROPERTY
VdW12
SciTegic.value.DoubleValue
6.144

@<SCITEGIC>MOL_PROPERTY
Bond
SciTegic.value.DoubleValue
0.191

@<SCITEGIC>MOL_PROPERTY
Angle
SciTegic.value.DoubleValue
1.557

@<SCITEGIC>MOL_PROPERTY
Pdih
SciTegic.value.DoubleValue
1.845

@<SCITEGIC>MOL_PROPERTY
Idih
SciTegic.value.DoubleValue
0.000

@<SCITEGIC>MOL_PROPERTY
Tether
SciTegic.value.DoubleValue
0.000

@<TRIPOS>MOLECULE
guest-s10_confgen4.mol2 : confsearch ligand conformer 565
          20          19           1
SMALL
USER_CHARGES
 
@<TRIPOS>ATOM
       1    N1      19.568156   18.291810   24.644296 N.4        1 MOL1        -0.5937
       2    H1      19.206911   17.536519   25.233102 H          1 MOL1         0.3684
       3    H2      19.530757   19.152329   25.197307 H          1 MOL1         0.3684
       4    H3      20.552760   18.089010   24.457545 H          1 MOL1         0.3684
       5    C1      18.781241   18.419640   23.368244 C.3        1 MOL1         0.1270
       6    H4      17.747453   18.617188   23.668708 H          1 MOL1         0.0960
       7    C2      18.790054   17.098664   22.578442 C.3        1 MOL1        -0.2382
       8    H5      18.216900   17.196489   21.648175 H          1 MOL1         0.1009
       9    H6      18.330691   16.296128   23.168365 H          1 MOL1         0.1009
      10    H7      19.809053   16.784744   22.323223 H          1 MOL1         0.1009
      11    C3      19.243572   19.617338   22.504055 C.3        1 MOL1        -0.1392
      12    H8      18.573945   19.707225   21.638460 H          1 MOL1         0.0998
      13    H9      19.107912   20.538184   23.086333 H          1 MOL1         0.0998
      14    C4      20.711210   19.539927   22.009696 C.3        1 MOL1        -0.1302
      15    H10     20.854226   18.650770   21.381238 H          1 MOL1         0.0998
      16    H11     21.394397   19.440118   22.863778 H          1 MOL1         0.0998
      17    C5      21.101941   20.793084   21.197136 C.3        1 MOL1        -0.2317
      18    H12     22.141802   20.723021   20.852396 H          1 MOL1         0.1009
      19    H13     21.009754   21.702888   21.804574 H          1 MOL1         0.1009
      20    H14     20.461342   20.906225   20.312797 H          1 MOL1         0.1009
@<TRIPOS>BOND
    1     1     2    1
    2     1     3    1
    3     1     4    1
    4     1     5    1
    5     5     6    1
    6     5     7    1
    7     7     8    1
    8     7     9    1
    9     7    10    1
   10     5    11    1
   11    11    12    1
   12    11    13    1
   13    11    14    1
   14    14    15    1
   15    14    16    1
   16    14    17    1
   17    17    18    1
   18    17    19    1
   19    17    20    1
@<TRIPOS>SUBSTRUCTURE
       1 MOL1            1 RESIDUE      1      MOL     
@<SCITEGIC>MOL_PROPERTY
VConf Rank
SciTegic.value.IntegerValue
565

@<SCITEGIC>MOL_PROPERTY
Conf_Id
SciTegic.value.IntegerValue
63

@<SCITEGIC>MOL_PROPERTY
Delta U+W
SciTegic.value.DoubleValue
0.420

@<SCITEGIC>MOL_PROPERTY
U+W
SciTegic.value.DoubleValue
-35.856

@<SCITEGIC>MOL_PROPERTY
Grad RMS
SciTegic.value.DoubleValue
0.000000

@<SCITEGIC>MOL_PROPERTY
U
SciTegic.value.DoubleValue
22.625

@<SCITEGIC>MOL_PROPERTY
W
SciTegic.value.DoubleValue
-58.481

@<SCITEGIC>MOL_PROPERTY
W(PB)
SciTegic.value.DoubleValue
-60.400

@<SCITEGIC>MOL_PROPERTY
W(SA)
SciTegic.value.DoubleValue
1.919

@<SCITEGIC>MOL_PROPERTY
Valence
SciTegic.value.DoubleValue
2.404

@<SCITEGIC>MOL_PROPERTY
Coulomb
SciTegic.value.DoubleValue
19.464

@<SCITEGIC>MOL_PROPERTY
VdW
SciTegic.value.DoubleValue
0.757

@<SCITEGIC>MOL_PROPERTY
VdW6
SciTegic.value.DoubleValue
-5.074

@<SCITEGIC>MOL_PROPERTY
VdW12
SciTegic.value.DoubleValue
5.830

@<SCITEGIC>MOL_PROPERTY
Bond
SciTegic.value.DoubleValue
0.172

@<SCITEGIC>MOL_PROPERTY
Angle
SciTegic.value.DoubleValue
1.207

@<SCITEGIC>MOL_PROPERTY
Pdih
SciTegic.value.DoubleValue
1.025

@<SCITEGIC>MOL_PROPERTY
Idih
SciTegic.value.DoubleValue
0.000

@<SCITEGIC>MOL_PROPERTY
Tether
SciTegic.value.DoubleValue
0.000

@<TRIPOS>MOLECULE
guest-s10_confgen4.mol2 : confsearch ligand conformer 566
          20          19           1
SMALL
USER_CHARGES
 
@<TRIPOS>ATOM
       1    N1      19.649747   20.717925   22.421476 N.4        1 MOL1        -0.5937
       2    H1      20.539277   20.740754   22.926539 H          1 MOL1         0.3684
       3    H2      18.950909   21.181464   23.007291 H          1 MOL1         0.3684
       4    H3      19.763691   21.283192   21.575880 H          1 MOL1         0.3684
       5    C1      19.244243   19.306887   22.091756 C.3        1 MOL1         0.1270
       6    H4      20.038549   18.889292   21.465799 H          1 MOL1         0.0960
       7    C2      17.938592   19.292600   21.280225 C.3        1 MOL1        -0.2382
       8    H5      18.044429   19.885968   20.363737 H          1 MOL1         0.1009
       9    H6      17.104882   19.706641   21.860958 H          1 MOL1         0.1009
      10    H7      17.674369   18.269525   20.985055 H          1 MOL1         0.1009
      11    C3      19.104488   18.422357   23.351541 C.3        1 MOL1        -0.1392
      12    H8      18.299459   18.816491   23.985907 H          1 MOL1         0.0998
      13    H9      18.789852   17.415091   23.047653 H          1 MOL1         0.0998
      14    C4      20.401076   18.305247   24.192399 C.3        1 MOL1        -0.1302
      15    H10     20.200321   17.664421   25.062423 H          1 MOL1         0.0998
      16    H11     20.680358   19.286710   24.598969 H          1 MOL1         0.0998
      17    C5      21.587285   17.713168   23.397593 C.3        1 MOL1        -0.2317
      18    H12     21.331486   16.730281   22.980846 H          1 MOL1         0.1009
      19    H13     22.460384   17.582700   24.050085 H          1 MOL1         0.1009
      20    H14     21.887961   18.368419   22.570467 H          1 MOL1         0.1009
@<TRIPOS>BOND
    1     1     2    1
    2     1     3    1
    3     1     4    1
    4     1     5    1
    5     5     6    1
    6     5     7    1
    7     7     8    1
    8     7     9    1
    9     7    10    1
   10     5    11    1
   11    11    12    1
   12    11    13    1
   13    11    14    1
   14    14    15    1
   15    14    16    1
   16    14    17    1
   17    17    18    1
   18    17    19    1
   19    17    20    1
@<TRIPOS>SUBSTRUCTURE
       1 MOL1            1 RESIDUE      1      MOL     
@<SCITEGIC>MOL_PROPERTY
VConf Rank
SciTegic.value.IntegerValue
566

@<SCITEGIC>MOL_PROPERTY
Conf_Id
SciTegic.value.IntegerValue
50

@<SCITEGIC>MOL_PROPERTY
Delta U+W
SciTegic.value.DoubleValue
0.466

@<SCITEGIC>MOL_PROPERTY
U+W
SciTegic.value.DoubleValue
-35.811

@<SCITEGIC>MOL_PROPERTY
Grad RMS
SciTegic.value.DoubleValue
0.000000

@<SCITEGIC>MOL_PROPERTY
U
SciTegic.value.DoubleValue
22.369

@<SCITEGIC>MOL_PROPERTY
W
SciTegic.value.DoubleValue
-58.180

@<SCITEGIC>MOL_PROPERTY
W(PB)
SciTegic.value.DoubleValue
-60.103

@<SCITEGIC>MOL_PROPERTY
W(SA)
SciTegic.value.DoubleValue
1.923

@<SCITEGIC>MOL_PROPERTY
Valence
SciTegic.value.DoubleValue
2.168

@<SCITEGIC>MOL_PROPERTY
Coulomb
SciTegic.value.DoubleValue
19.636

@<SCITEGIC>MOL_PROPERTY
VdW
SciTegic.value.DoubleValue
0.566

@<SCITEGIC>MOL_PROPERTY
VdW6
SciTegic.value.DoubleValue
-5.263

@<SCITEGIC>MOL_PROPERTY
VdW12
SciTegic.value.DoubleValue
5.829

@<SCITEGIC>MOL_PROPERTY
Bond
SciTegic.value.DoubleValue
0.162

@<SCITEGIC>MOL_PROPERTY
Angle
SciTegic.value.DoubleValue
1.066

@<SCITEGIC>MOL_PROPERTY
Pdih
SciTegic.value.DoubleValue
0.939

@<SCITEGIC>MOL_PROPERTY
Idih
SciTegic.value.DoubleValue
0.000

@<SCITEGIC>MOL_PROPERTY
Tether
SciTegic.value.DoubleValue
0.000

@<TRIPOS>MOLECULE
guest-s10_confgen4.mol2 : confsearch ligand conformer 567
          20          19           1
SMALL
USER_CHARGES
 
@<TRIPOS>ATOM
       1    N1      18.007799   19.759648   21.442713 N.4        1 MOL1        -0.5937
       2    H1      18.456408   20.506851   20.905651 H          1 MOL1         0.3684
       3    H2      17.334827   20.198287   22.076415 H          1 MOL1         0.3684
       4    H3      17.474954   19.189492   20.780345 H          1 MOL1         0.3684
       5    C1      19.016666   18.933189   22.193535 C.3        1 MOL1         0.1270
       6    H4      19.687943   18.512093   21.438665 H          1 MOL1         0.0960
       7    C2      18.310289   17.777185   22.926101 C.3        1 MOL1        -0.2382
       8    H5      17.590526   18.156792   23.661971 H          1 MOL1         0.1009
       9    H6      19.025826   17.138040   23.454580 H          1 MOL1         0.1009
      10    H7      17.765394   17.144720   22.214621 H          1 MOL1         0.1009
      11    C3      19.862436   19.794320   23.163771 C.3        1 MOL1        -0.1392
      12    H8      19.764176   20.851710   22.884586 H          1 MOL1         0.0998
      13    H9      19.467355   19.720764   24.185785 H          1 MOL1         0.0998
      14    C4      21.374021   19.452663   23.150897 C.3        1 MOL1        -0.1302
      15    H10     21.899484   20.161630   23.806019 H          1 MOL1         0.0998
      16    H11     21.778291   19.613093   22.141487 H          1 MOL1         0.0998
      17    C5      21.701129   18.014842   23.611232 C.3        1 MOL1        -0.2317
      18    H12     21.273235   17.808466   24.600850 H          1 MOL1         0.1009
      19    H13     22.787384   17.872245   23.680194 H          1 MOL1         0.1009
      20    H14     21.317537   17.270016   22.902909 H          1 MOL1         0.1009
@<TRIPOS>BOND
    1     1     2    1
    2     1     3    1
    3     1     4    1
    4     1     5    1
    5     5     6    1
    6     5     7    1
    7     7     8    1
    8     7     9    1
    9     7    10    1
   10     5    11    1
   11    11    12    1
   12    11    13    1
   13    11    14    1
   14    14    15    1
   15    14    16    1
   16    14    17    1
   17    17    18    1
   18    17    19    1
   19    17    20    1
@<TRIPOS>SUBSTRUCTURE
       1 MOL1            1 RESIDUE      1      MOL     
@<SCITEGIC>MOL_PROPERTY
VConf Rank
SciTegic.value.IntegerValue
567

@<SCITEGIC>MOL_PROPERTY
Conf_Id
SciTegic.value.IntegerValue
3

@<SCITEGIC>MOL_PROPERTY
Delta U+W
SciTegic.value.DoubleValue
3.093

@<SCITEGIC>MOL_PROPERTY
U+W
SciTegic.value.DoubleValue
-33.184

@<SCITEGIC>MOL_PROPERTY
Grad RMS
SciTegic.value.DoubleValue
0.000000

@<SCITEGIC>MOL_PROPERTY
U
SciTegic.value.DoubleValue
25.256

@<SCITEGIC>MOL_PROPERTY
W
SciTegic.value.DoubleValue
-58.439

@<SCITEGIC>MOL_PROPERTY
W(PB)
SciTegic.value.DoubleValue
-60.337

@<SCITEGIC>MOL_PROPERTY
W(SA)
SciTegic.value.DoubleValue
1.898

@<SCITEGIC>MOL_PROPERTY
Valence
SciTegic.value.DoubleValue
4.963

@<SCITEGIC>MOL_PROPERTY
Coulomb
SciTegic.value.DoubleValue
19.511

@<SCITEGIC>MOL_PROPERTY
VdW
SciTegic.value.DoubleValue
0.782

@<SCITEGIC>MOL_PROPERTY
VdW6
SciTegic.value.DoubleValue
-5.429

@<SCITEGIC>MOL_PROPERTY
VdW12
SciTegic.value.DoubleValue
6.211

@<SCITEGIC>MOL_PROPERTY
Bond
SciTegic.value.DoubleValue
0.174

@<SCITEGIC>MOL_PROPERTY
Angle
SciTegic.value.DoubleValue
1.377

@<SCITEGIC>MOL_PROPERTY
Pdih
SciTegic.value.DoubleValue
3.412

@<SCITEGIC>MOL_PROPERTY
Idih
SciTegic.value.DoubleValue
0.000

@<SCITEGIC>MOL_PROPERTY
Tether
SciTegic.value.DoubleValue
0.000

@<TRIPOS>MOLECULE
guest-s10_confgen4.mol2 : confsearch ligand conformer 568
          20          19           1
SMALL
USER_CHARGES
 
@<TRIPOS>ATOM
       1    N1      18.545239   19.245084   24.720216 N.4        1 MOL1        -0.5937
       2    H1      18.939875   19.746605   25.520450 H          1 MOL1         0.3684
       3    H2      18.345649   18.290208   25.030385 H          1 MOL1         0.3684
       4    H3      17.650543   19.687472   24.495504 H          1 MOL1         0.3684
       5    C1      19.481367   19.262426   23.543039 C.3        1 MOL1         0.1270
       6    H4      20.402958   18.776444   23.877087 H          1 MOL1         0.0960
       7    C2      19.813155   20.711845   23.144035 C.3        1 MOL1        -0.2382
       8    H5      20.599550   20.744209   22.381100 H          1 MOL1         0.1009
       9    H6      20.178002   21.277509   24.010086 H          1 MOL1         0.1009
      10    H7      18.929050   21.227246   22.748804 H          1 MOL1         0.1009
      11    C3      18.905919   18.450738   22.357944 C.3        1 MOL1        -0.1392
      12    H8      18.614875   17.456452   22.721559 H          1 MOL1         0.0998
      13    H9      17.982161   18.928115   22.005074 H          1 MOL1         0.0998
      14    C4      19.871247   18.267923   21.158851 C.3        1 MOL1        -0.1302
      15    H10     20.079083   19.236737   20.685062 H          1 MOL1         0.0998
      16    H11     19.369226   17.660938   20.392442 H          1 MOL1         0.0998
      17    C5      21.199919   17.581694   21.549838 C.3        1 MOL1        -0.2317
      18    H12     21.017104   16.610909   22.028704 H          1 MOL1         0.1009
      19    H13     21.785468   18.200892   22.241062 H          1 MOL1         0.1009
      20    H14     21.817916   17.405018   20.659960 H          1 MOL1         0.1009
@<TRIPOS>BOND
    1     1     2    1
    2     1     3    1
    3     1     4    1
    4     1     5    1
    5     5     6    1
    6     5     7    1
    7     7     8    1
    8     7     9    1
    9     7    10    1
   10     5    11    1
   11    11    12    1
   12    11    13    1
   13    11    14    1
   14    14    15    1
   15    14    16    1
   16    14    17    1
   17    17    18    1
   18    17    19    1
   19    17    20    1
@<TRIPOS>SUBSTRUCTURE
       1 MOL1            1 RESIDUE      1      MOL     
@<SCITEGIC>MOL_PROPERTY
VConf Rank
SciTegic.value.IntegerValue
568

@<SCITEGIC>MOL_PROPERTY
Conf_Id
SciTegic.value.IntegerValue
64

@<SCITEGIC>MOL_PROPERTY
Delta U+W
SciTegic.value.DoubleValue
0.544

@<SCITEGIC>MOL_PROPERTY
U+W
SciTegic.value.DoubleValue
-35.732

@<SCITEGIC>MOL_PROPERTY
Grad RMS
SciTegic.value.DoubleValue
0.000000

@<SCITEGIC>MOL_PROPERTY
U
SciTegic.value.DoubleValue
22.800

@<SCITEGIC>MOL_PROPERTY
W
SciTegic.value.DoubleValue
-58.532

@<SCITEGIC>MOL_PROPERTY
W(PB)
SciTegic.value.DoubleValue
-60.437

@<SCITEGIC>MOL_PROPERTY
W(SA)
SciTegic.value.DoubleValue
1.905

@<SCITEGIC>MOL_PROPERTY
Valence
SciTegic.value.DoubleValue
2.662

@<SCITEGIC>MOL_PROPERTY
Coulomb
SciTegic.value.DoubleValue
19.485

@<SCITEGIC>MOL_PROPERTY
VdW
SciTegic.value.DoubleValue
0.653

@<SCITEGIC>MOL_PROPERTY
VdW6
SciTegic.value.DoubleValue
-5.460

@<SCITEGIC>MOL_PROPERTY
VdW12
SciTegic.value.DoubleValue
6.113

@<SCITEGIC>MOL_PROPERTY
Bond
SciTegic.value.DoubleValue
0.174

@<SCITEGIC>MOL_PROPERTY
Angle
SciTegic.value.DoubleValue
1.378

@<SCITEGIC>MOL_PROPERTY
Pdih
SciTegic.value.DoubleValue
1.109

@<SCITEGIC>MOL_PROPERTY
Idih
SciTegic.value.DoubleValue
0.000

@<SCITEGIC>MOL_PROPERTY
Tether
SciTegic.value.DoubleValue
0.000

@<TRIPOS>MOLECULE
guest-s10_confgen4.mol2 : confsearch ligand conformer 569
          20          19           1
SMALL
USER_CHARGES
 
@<TRIPOS>ATOM
       1    N1      20.775283   19.392439   20.893932 N.4        1 MOL1        -0.5937
       2    H1      21.228917   20.027057   21.554802 H          1 MOL1         0.3684
       3    H2      20.522662   19.941116   20.067646 H          1 MOL1         0.3684
       4    H3      21.473839   18.704675   20.599551 H          1 MOL1         0.3684
       5    C1      19.569612   18.730511   21.504700 C.3        1 MOL1         0.1270
       6    H4      19.153210   18.087485   20.722977 H          1 MOL1         0.0960
       7    C2      18.496056   19.770898   21.863582 C.3        1 MOL1        -0.2382
       8    H5      18.888583   20.533984   22.545734 H          1 MOL1         0.1009
       9    H6      17.629689   19.291761   22.335995 H          1 MOL1         0.1009
      10    H7      18.141644   20.282344   20.960373 H          1 MOL1         0.1009
      11    C3      19.941715   17.810907   22.694998 C.3        1 MOL1        -0.1392
      12    H8      19.062630   17.222699   22.989478 H          1 MOL1         0.0998
      13    H9      20.669493   17.076034   22.326515 H          1 MOL1         0.0998
      14    C4      20.547761   18.512854   23.942076 C.3        1 MOL1        -0.1302
      15    H10     21.116077   19.406123   23.651445 H          1 MOL1         0.0998
      16    H11     21.276881   17.831363   24.402442 H          1 MOL1         0.0998
      17    C5      19.497569   18.876706   25.017927 C.3        1 MOL1        -0.2317
      18    H12     18.755963   19.592416   24.646772 H          1 MOL1         0.1009
      19    H13     19.984760   19.329044   25.891427 H          1 MOL1         0.1009
      20    H14     18.962271   17.982526   25.362804 H          1 MOL1         0.1009
@<TRIPOS>BOND
    1     1     2    1
    2     1     3    1
    3     1     4    1
    4     1     5    1
    5     5     6    1
    6     5     7    1
    7     7     8    1
    8     7     9    1
    9     7    10    1
   10     5    11    1
   11    11    12    1
   12    11    13    1
   13    11    14    1
   14    14    15    1
   15    14    16    1
   16    14    17    1
   17    17    18    1
   18    17    19    1
   19    17    20    1
@<TRIPOS>SUBSTRUCTURE
       1 MOL1            1 RESIDUE      1      MOL     
@<SCITEGIC>MOL_PROPERTY
VConf Rank
SciTegic.value.IntegerValue
569

@<SCITEGIC>MOL_PROPERTY
Conf_Id
SciTegic.value.IntegerValue
35

@<SCITEGIC>MOL_PROPERTY
Delta U+W
SciTegic.value.DoubleValue
3.004

@<SCITEGIC>MOL_PROPERTY
U+W
SciTegic.value.DoubleValue
-33.272

@<SCITEGIC>MOL_PROPERTY
Grad RMS
SciTegic.value.DoubleValue
0.000000

@<SCITEGIC>MOL_PROPERTY
U
SciTegic.value.DoubleValue
25.367

@<SCITEGIC>MOL_PROPERTY
W
SciTegic.value.DoubleValue
-58.639

@<SCITEGIC>MOL_PROPERTY
W(PB)
SciTegic.value.DoubleValue
-60.512

@<SCITEGIC>MOL_PROPERTY
W(SA)
SciTegic.value.DoubleValue
1.873

@<SCITEGIC>MOL_PROPERTY
Valence
SciTegic.value.DoubleValue
4.943

@<SCITEGIC>MOL_PROPERTY
Coulomb
SciTegic.value.DoubleValue
19.661

@<SCITEGIC>MOL_PROPERTY
VdW
SciTegic.value.DoubleValue
0.764

@<SCITEGIC>MOL_PROPERTY
VdW6
SciTegic.value.DoubleValue
-5.871

@<SCITEGIC>MOL_PROPERTY
VdW12
SciTegic.value.DoubleValue
6.636

@<SCITEGIC>MOL_PROPERTY
Bond
SciTegic.value.DoubleValue
0.230

@<SCITEGIC>MOL_PROPERTY
Angle
SciTegic.value.DoubleValue
1.857

@<SCITEGIC>MOL_PROPERTY
Pdih
SciTegic.value.DoubleValue
2.855

@<SCITEGIC>MOL_PROPERTY
Idih
SciTegic.value.DoubleValue
0.000

@<SCITEGIC>MOL_PROPERTY
Tether
SciTegic.value.DoubleValue
0.000

@<TRIPOS>MOLECULE
guest-s10_confgen4.mol2 : confsearch ligand conformer 570
          20          19           1
SMALL
USER_CHARGES
 
@<TRIPOS>ATOM
       1    N1      19.159801   17.774277   23.852475 N.4        1 MOL1        -0.5937
       2    H1      19.152533   17.613068   24.863197 H          1 MOL1         0.3684
       3    H2      18.913915   16.889198   23.401080 H          1 MOL1         0.3684
       4    H3      18.416972   18.442848   23.639837 H          1 MOL1         0.3684
       5    C1      20.496984   18.278806   23.383588 C.3        1 MOL1         0.1270
       6    H4      21.209017   17.486010   23.633409 H          1 MOL1         0.0960
       7    C2      20.924429   19.538764   24.157092 C.3        1 MOL1        -0.2382
       8    H5      20.203592   20.355335   24.030993 H          1 MOL1         0.1009
       9    H6      21.906075   19.890121   23.816008 H          1 MOL1         0.1009
      10    H7      21.002678   19.323122   25.229633 H          1 MOL1         0.1009
      11    C3      20.566932   18.476275   21.847546 C.3        1 MOL1        -0.1392
      12    H8      21.627142   18.533227   21.567807 H          1 MOL1         0.0998
      13    H9      20.184646   17.572558   21.355236 H          1 MOL1         0.0998
      14    C4      19.852239   19.723488   21.255708 C.3        1 MOL1        -0.1302
      15    H10     20.036015   19.737360   20.172261 H          1 MOL1         0.0998
      16    H11     20.309109   20.644122   21.643438 H          1 MOL1         0.0998
      17    C5      18.324806   19.763163   21.488724 C.3        1 MOL1        -0.2317
      18    H12     17.851420   18.819226   21.188673 H          1 MOL1         0.1009
      19    H13     17.870698   20.566447   20.894005 H          1 MOL1         0.1009
      20    H14     18.081606   19.964128   22.538359 H          1 MOL1         0.1009
@<TRIPOS>BOND
    1     1     2    1
    2     1     3    1
    3     1     4    1
    4     1     5    1
    5     5     6    1
    6     5     7    1
    7     7     8    1
    8     7     9    1
    9     7    10    1
   10     5    11    1
   11    11    12    1
   12    11    13    1
   13    11    14    1
   14    14    15    1
   15    14    16    1
   16    14    17    1
   17    17    18    1
   18    17    19    1
   19    17    20    1
@<TRIPOS>SUBSTRUCTURE
       1 MOL1            1 RESIDUE      1      MOL     
@<SCITEGIC>MOL_PROPERTY
VConf Rank
SciTegic.value.IntegerValue
570

@<SCITEGIC>MOL_PROPERTY
Conf_Id
SciTegic.value.IntegerValue
55

@<SCITEGIC>MOL_PROPERTY
Delta U+W
SciTegic.value.DoubleValue
2.767

@<SCITEGIC>MOL_PROPERTY
U+W
SciTegic.value.DoubleValue
-33.509

@<SCITEGIC>MOL_PROPERTY
Grad RMS
SciTegic.value.DoubleValue
0.000000

@<SCITEGIC>MOL_PROPERTY
U
SciTegic.value.DoubleValue
24.552

@<SCITEGIC>MOL_PROPERTY
W
SciTegic.value.DoubleValue
-58.061

@<SCITEGIC>MOL_PROPERTY
W(PB)
SciTegic.value.DoubleValue
-59.930

@<SCITEGIC>MOL_PROPERTY
W(SA)
SciTegic.value.DoubleValue
1.869

@<SCITEGIC>MOL_PROPERTY
Valence
SciTegic.value.DoubleValue
3.726

@<SCITEGIC>MOL_PROPERTY
Coulomb
SciTegic.value.DoubleValue
20.219

@<SCITEGIC>MOL_PROPERTY
VdW
SciTegic.value.DoubleValue
0.606

@<SCITEGIC>MOL_PROPERTY
VdW6
SciTegic.value.DoubleValue
-6.395

@<SCITEGIC>MOL_PROPERTY
VdW12
SciTegic.value.DoubleValue
7.001

@<SCITEGIC>MOL_PROPERTY
Bond
SciTegic.value.DoubleValue
0.241

@<SCITEGIC>MOL_PROPERTY
Angle
SciTegic.value.DoubleValue
2.098

@<SCITEGIC>MOL_PROPERTY
Pdih
SciTegic.value.DoubleValue
1.387

@<SCITEGIC>MOL_PROPERTY
Idih
SciTegic.value.DoubleValue
0.000

@<SCITEGIC>MOL_PROPERTY
Tether
SciTegic.value.DoubleValue
0.000

@<TRIPOS>MOLECULE
guest-s10_confgen4.mol2 : confsearch ligand conformer 571
          20          19           1
SMALL
USER_CHARGES
 
@<TRIPOS>ATOM
       1    N1      18.604009   18.048671   21.390882 N.4        1 MOL1        -0.5937
       2    H1      19.280774   17.341541   21.093389 H          1 MOL1         0.3684
       3    H2      17.938871   18.176419   20.623466 H          1 MOL1         0.3684
       4    H3      18.083664   17.662633   22.182587 H          1 MOL1         0.3684
       5    C1      19.281784   19.342589   21.753453 C.3        1 MOL1         0.1270
       6    H4      18.492786   20.035780   22.061441 H          1 MOL1         0.0960
       7    C2      19.995888   19.939590   20.529682 C.3        1 MOL1        -0.2382
       8    H5      19.290453   20.089819   19.703208 H          1 MOL1         0.1009
       9    H6      20.799350   19.280550   20.177677 H          1 MOL1         0.1009
      10    H7      20.435852   20.914947   20.772062 H          1 MOL1         0.1009
      11    C3      20.271711   19.185066   22.928774 C.3        1 MOL1        -0.1392
      12    H8      21.062470   18.474521   22.653561 H          1 MOL1         0.0998
      13    H9      20.765999   20.149396   23.107142 H          1 MOL1         0.0998
      14    C4      19.588076   18.725229   24.239007 C.3        1 MOL1        -0.1302
      15    H10     19.133204   17.734797   24.102769 H          1 MOL1         0.0998
      16    H11     18.773231   19.417426   24.494216 H          1 MOL1         0.0998
      17    C5      20.589607   18.660409   25.412054 C.3        1 MOL1        -0.2317
      18    H12     21.401427   17.952548   25.199599 H          1 MOL1         0.1009
      19    H13     20.088663   18.331606   26.331852 H          1 MOL1         0.1009
      20    H14     21.036186   19.644391   25.605904 H          1 MOL1         0.1009
@<TRIPOS>BOND
    1     1     2    1
    2     1     3    1
    3     1     4    1
    4     1     5    1
    5     5     6    1
    6     5     7    1
    7     7     8    1
    8     7     9    1
    9     7    10    1
   10     5    11    1
   11    11    12    1
   12    11    13    1
   13    11    14    1
   14    14    15    1
   15    14    16    1
   16    14    17    1
   17    17    18    1
   18    17    19    1
   19    17    20    1
@<TRIPOS>SUBSTRUCTURE
       1 MOL1            1 RESIDUE      1      MOL     
@<SCITEGIC>MOL_PROPERTY
VConf Rank
SciTegic.value.IntegerValue
571

@<SCITEGIC>MOL_PROPERTY
Conf_Id
SciTegic.value.IntegerValue
74

@<SCITEGIC>MOL_PROPERTY
Delta U+W
SciTegic.value.DoubleValue
0.000

@<SCITEGIC>MOL_PROPERTY
U+W
SciTegic.value.DoubleValue
-36.276

@<SCITEGIC>MOL_PROPERTY
Grad RMS
SciTegic.value.DoubleValue
0.000000

@<SCITEGIC>MOL_PROPERTY
U
SciTegic.value.DoubleValue
22.080

@<SCITEGIC>MOL_PROPERTY
W
SciTegic.value.DoubleValue
-58.356

@<SCITEGIC>MOL_PROPERTY
W(PB)
SciTegic.value.DoubleValue
-60.289

@<SCITEGIC>MOL_PROPERTY
W(SA)
SciTegic.value.DoubleValue
1.932

@<SCITEGIC>MOL_PROPERTY
Valence
SciTegic.value.DoubleValue
1.885

@<SCITEGIC>MOL_PROPERTY
Coulomb
SciTegic.value.DoubleValue
19.559

@<SCITEGIC>MOL_PROPERTY
VdW
SciTegic.value.DoubleValue
0.637

@<SCITEGIC>MOL_PROPERTY
VdW6
SciTegic.value.DoubleValue
-4.482

@<SCITEGIC>MOL_PROPERTY
VdW12
SciTegic.value.DoubleValue
5.119

@<SCITEGIC>MOL_PROPERTY
Bond
SciTegic.value.DoubleValue
0.136

@<SCITEGIC>MOL_PROPERTY
Angle
SciTegic.value.DoubleValue
0.867

@<SCITEGIC>MOL_PROPERTY
Pdih
SciTegic.value.DoubleValue
0.882

@<SCITEGIC>MOL_PROPERTY
Idih
SciTegic.value.DoubleValue
0.000

@<SCITEGIC>MOL_PROPERTY
Tether
SciTegic.value.DoubleValue
0.000

@<TRIPOS>MOLECULE
guest-s10_confgen4.mol2 : confsearch ligand conformer 572
          20          19           1
SMALL
USER_CHARGES
 
@<TRIPOS>ATOM
       1    N1      21.506579   17.799002   21.575810 N.4        1 MOL1        -0.5937
       2    H1      21.389749   16.838849   21.910944 H          1 MOL1         0.3684
       3    H2      22.293746   18.207784   22.085705 H          1 MOL1         0.3684
       4    H3      21.778123   17.744053   20.590456 H          1 MOL1         0.3684
       5    C1      20.251111   18.607385   21.756871 C.3        1 MOL1         0.1270
       6    H4      19.472196   18.100403   21.178835 H          1 MOL1         0.0960
       7    C2      20.439930   20.022939   21.181239 C.3        1 MOL1        -0.2382
       8    H5      20.800031   19.974255   20.146261 H          1 MOL1         0.1009
       9    H6      21.168403   20.596372   21.767822 H          1 MOL1         0.1009
      10    H7      19.495073   20.578197   21.168632 H          1 MOL1         0.1009
      11    C3      19.812372   18.634659   23.239522 C.3        1 MOL1        -0.1392
      12    H8      19.801618   17.603836   23.617611 H          1 MOL1         0.0998
      13    H9      20.558423   19.176369   23.836017 H          1 MOL1         0.0998
      14    C4      18.412332   19.255688   23.466179 C.3        1 MOL1        -0.1302
      15    H10     17.675978   18.754979   22.821864 H          1 MOL1         0.0998
      16    H11     18.415287   20.316445   23.182124 H          1 MOL1         0.0998
      17    C5      17.967763   19.135891   24.939844 C.3        1 MOL1        -0.2317
      18    H12     17.909843   18.084886   25.251727 H          1 MOL1         0.1009
      19    H13     16.975929   19.583990   25.083234 H          1 MOL1         0.1009
      20    H14     18.669972   19.652259   25.607322 H          1 MOL1         0.1009
@<TRIPOS>BOND
    1     1     2    1
    2     1     3    1
    3     1     4    1
    4     1     5    1
    5     5     6    1
    6     5     7    1
    7     7     8    1
    8     7     9    1
    9     7    10    1
   10     5    11    1
   11    11    12    1
   12    11    13    1
   13    11    14    1
   14    14    15    1
   15    14    16    1
   16    14    17    1
   17    17    18    1
   18    17    19    1
   19    17    20    1
@<TRIPOS>SUBSTRUCTURE
       1 MOL1            1 RESIDUE      1      MOL     
@<SCITEGIC>MOL_PROPERTY
VConf Rank
SciTegic.value.IntegerValue
572

@<SCITEGIC>MOL_PROPERTY
Conf_Id
SciTegic.value.IntegerValue
80

@<SCITEGIC>MOL_PROPERTY
Delta U+W
SciTegic.value.DoubleValue
0.460

@<SCITEGIC>MOL_PROPERTY
U+W
SciTegic.value.DoubleValue
-35.817

@<SCITEGIC>MOL_PROPERTY
Grad RMS
SciTegic.value.DoubleValue
0.000000

@<SCITEGIC>MOL_PROPERTY
U
SciTegic.value.DoubleValue
22.495

@<SCITEGIC>MOL_PROPERTY
W
SciTegic.value.DoubleValue
-58.311

@<SCITEGIC>MOL_PROPERTY
W(PB)
SciTegic.value.DoubleValue
-60.259

@<SCITEGIC>MOL_PROPERTY
W(SA)
SciTegic.value.DoubleValue
1.948

@<SCITEGIC>MOL_PROPERTY
Valence
SciTegic.value.DoubleValue
2.419

@<SCITEGIC>MOL_PROPERTY
Coulomb
SciTegic.value.DoubleValue
19.304

@<SCITEGIC>MOL_PROPERTY
VdW
SciTegic.value.DoubleValue
0.772

@<SCITEGIC>MOL_PROPERTY
VdW6
SciTegic.value.DoubleValue
-4.635

@<SCITEGIC>MOL_PROPERTY
VdW12
SciTegic.value.DoubleValue
5.407

@<SCITEGIC>MOL_PROPERTY
Bond
SciTegic.value.DoubleValue
0.149

@<SCITEGIC>MOL_PROPERTY
Angle
SciTegic.value.DoubleValue
1.142

@<SCITEGIC>MOL_PROPERTY
Pdih
SciTegic.value.DoubleValue
1.129

@<SCITEGIC>MOL_PROPERTY
Idih
SciTegic.value.DoubleValue
0.000

@<SCITEGIC>MOL_PROPERTY
Tether
SciTegic.value.DoubleValue
0.000

@<TRIPOS>MOLECULE
guest-s10_confgen4.mol2 : confsearch ligand conformer 573
          20          19           1
SMALL
USER_CHARGES
 
@<TRIPOS>ATOM
       1    N1      18.985560   20.218707   20.884460 N.4        1 MOL1        -0.5937
       2    H1      19.728258   20.830476   20.535246 H          1 MOL1         0.3684
       3    H2      18.354960   20.793604   21.448840 H          1 MOL1         0.3684
       4    H3      18.455036   19.893284   20.071896 H          1 MOL1         0.3684
       5    C1      19.540623   19.066964   21.677015 C.3        1 MOL1         0.1270
       6    H4      20.192059   18.511706   20.995019 H          1 MOL1         0.0960
       7    C2      18.404465   18.130052   22.121536 C.3        1 MOL1        -0.2382
       8    H5      17.765132   17.865345   21.270462 H          1 MOL1         0.1009
       9    H6      17.775555   18.601837   22.886615 H          1 MOL1         0.1009
      10    H7      18.803889   17.193332   22.526534 H          1 MOL1         0.1009
      11    C3      20.402539   19.570941   22.860418 C.3        1 MOL1        -0.1392
      12    H8      21.156464   20.255899   22.450391 H          1 MOL1         0.0998
      13    H9      19.791731   20.174725   23.544587 H          1 MOL1         0.0998
      14    C4      21.150487   18.461345   23.645921 C.3        1 MOL1        -0.1302
      15    H10     22.135626   18.846816   23.944303 H          1 MOL1         0.0998
      16    H11     21.349825   17.599490   22.993666 H          1 MOL1         0.0998
      17    C5      20.409708   18.008372   24.926193 C.3        1 MOL1        -0.2317
      18    H12     20.273144   18.849478   25.618296 H          1 MOL1         0.1009
      19    H13     20.987427   17.236786   25.451434 H          1 MOL1         0.1009
      20    H14     19.421348   17.589898   24.705816 H          1 MOL1         0.1009
@<TRIPOS>BOND
    1     1     2    1
    2     1     3    1
    3     1     4    1
    4     1     5    1
    5     5     6    1
    6     5     7    1
    7     7     8    1
    8     7     9    1
    9     7    10    1
   10     5    11    1
   11    11    12    1
   12    11    13    1
   13    11    14    1
   14    14    15    1
   15    14    16    1
   16    14    17    1
   17    17    18    1
   18    17    19    1
   19    17    20    1
@<TRIPOS>SUBSTRUCTURE
       1 MOL1            1 RESIDUE      1      MOL     
@<SCITEGIC>MOL_PROPERTY
VConf Rank
SciTegic.value.IntegerValue
573

@<SCITEGIC>MOL_PROPERTY
Conf_Id
SciTegic.value.IntegerValue
52

@<SCITEGIC>MOL_PROPERTY
Delta U+W
SciTegic.value.DoubleValue
2.995

@<SCITEGIC>MOL_PROPERTY
U+W
SciTegic.value.DoubleValue
-33.282

@<SCITEGIC>MOL_PROPERTY
Grad RMS
SciTegic.value.DoubleValue
0.000000

@<SCITEGIC>MOL_PROPERTY
U
SciTegic.value.DoubleValue
25.224

@<SCITEGIC>MOL_PROPERTY
W
SciTegic.value.DoubleValue
-58.506

@<SCITEGIC>MOL_PROPERTY
W(PB)
SciTegic.value.DoubleValue
-60.411

@<SCITEGIC>MOL_PROPERTY
W(SA)
SciTegic.value.DoubleValue
1.905

@<SCITEGIC>MOL_PROPERTY
Valence
SciTegic.value.DoubleValue
4.945

@<SCITEGIC>MOL_PROPERTY
Coulomb
SciTegic.value.DoubleValue
19.467

@<SCITEGIC>MOL_PROPERTY
VdW
SciTegic.value.DoubleValue
0.813

@<SCITEGIC>MOL_PROPERTY
VdW6
SciTegic.value.DoubleValue
-5.458

@<SCITEGIC>MOL_PROPERTY
VdW12
SciTegic.value.DoubleValue
6.270

@<SCITEGIC>MOL_PROPERTY
Bond
SciTegic.value.DoubleValue
0.200

@<SCITEGIC>MOL_PROPERTY
Angle
SciTegic.value.DoubleValue
1.675

@<SCITEGIC>MOL_PROPERTY
Pdih
SciTegic.value.DoubleValue
3.070

@<SCITEGIC>MOL_PROPERTY
Idih
SciTegic.value.DoubleValue
0.000

@<SCITEGIC>MOL_PROPERTY
Tether
SciTegic.value.DoubleValue
0.000

@<TRIPOS>MOLECULE
guest-s10_confgen4.mol2 : confsearch ligand conformer 574
          20          19           1
SMALL
USER_CHARGES
 
@<TRIPOS>ATOM
       1    N1      18.493463   19.793810   23.408089 N.4        1 MOL1        -0.5937
       2    H1      17.742396   19.711189   22.718561 H          1 MOL1         0.3684
       3    H2      18.268644   20.589280   24.011688 H          1 MOL1         0.3684
       4    H3      18.471754   18.951197   23.986464 H          1 MOL1         0.3684
       5    C1      19.832002   19.965537   22.743203 C.3        1 MOL1         0.1270
       6    H4      20.572596   20.095043   23.538492 H          1 MOL1         0.0960
       7    C2      19.825971   21.238498   21.879899 C.3        1 MOL1        -0.2382
       8    H5      19.108397   21.154875   21.054095 H          1 MOL1         0.1009
       9    H6      20.818824   21.425946   21.452404 H          1 MOL1         0.1009
      10    H7      19.554547   22.114838   22.481307 H          1 MOL1         0.1009
      11    C3      20.241174   18.739135   21.893054 C.3        1 MOL1        -0.1392
      12    H8      19.402563   18.428504   21.256019 H          1 MOL1         0.0998
      13    H9      21.043185   19.041236   21.206325 H          1 MOL1         0.0998
      14    C4      20.769337   17.529662   22.708422 C.3        1 MOL1        -0.1302
      15    H10     21.637896   17.837826   23.307316 H          1 MOL1         0.0998
      16    H11     21.142488   16.776433   22.000304 H          1 MOL1         0.0998
      17    C5      19.722313   16.858016   23.625941 C.3        1 MOL1        -0.2317
      18    H12     20.109097   15.903775   24.006874 H          1 MOL1         0.1009
      19    H13     18.792236   16.645886   23.082551 H          1 MOL1         0.1009
      20    H14     19.491509   17.479581   24.498767 H          1 MOL1         0.1009
@<TRIPOS>BOND
    1     1     2    1
    2     1     3    1
    3     1     4    1
    4     1     5    1
    5     5     6    1
    6     5     7    1
    7     7     8    1
    8     7     9    1
    9     7    10    1
   10     5    11    1
   11    11    12    1
   12    11    13    1
   13    11    14    1
   14    14    15    1
   15    14    16    1
   16    14    17    1
   17    17    18    1
   18    17    19    1
   19    17    20    1
@<TRIPOS>SUBSTRUCTURE
       1 MOL1            1 RESIDUE      1      MOL     
@<SCITEGIC>MOL_PROPERTY
VConf Rank
SciTegic.value.IntegerValue
574

@<SCITEGIC>MOL_PROPERTY
Conf_Id
SciTegic.value.IntegerValue
54

@<SCITEGIC>MOL_PROPERTY
Delta U+W
SciTegic.value.DoubleValue
2.752

@<SCITEGIC>MOL_PROPERTY
U+W
SciTegic.value.DoubleValue
-33.525

@<SCITEGIC>MOL_PROPERTY
Grad RMS
SciTegic.value.DoubleValue
0.000000

@<SCITEGIC>MOL_PROPERTY
U
SciTegic.value.DoubleValue
24.337

@<SCITEGIC>MOL_PROPERTY
W
SciTegic.value.DoubleValue
-57.862

@<SCITEGIC>MOL_PROPERTY
W(PB)
SciTegic.value.DoubleValue
-59.764

@<SCITEGIC>MOL_PROPERTY
W(SA)
SciTegic.value.DoubleValue
1.901

@<SCITEGIC>MOL_PROPERTY
Valence
SciTegic.value.DoubleValue
3.593

@<SCITEGIC>MOL_PROPERTY
Coulomb
SciTegic.value.DoubleValue
20.067

@<SCITEGIC>MOL_PROPERTY
VdW
SciTegic.value.DoubleValue
0.677

@<SCITEGIC>MOL_PROPERTY
VdW6
SciTegic.value.DoubleValue
-5.466

@<SCITEGIC>MOL_PROPERTY
VdW12
SciTegic.value.DoubleValue
6.144

@<SCITEGIC>MOL_PROPERTY
Bond
SciTegic.value.DoubleValue
0.191

@<SCITEGIC>MOL_PROPERTY
Angle
SciTegic.value.DoubleValue
1.557

@<SCITEGIC>MOL_PROPERTY
Pdih
SciTegic.value.DoubleValue
1.845

@<SCITEGIC>MOL_PROPERTY
Idih
SciTegic.value.DoubleValue
0.000

@<SCITEGIC>MOL_PROPERTY
Tether
SciTegic.value.DoubleValue
0.000

@<TRIPOS>MOLECULE
guest-s10_confgen4.mol2 : confsearch ligand conformer 575
          20          19           1
SMALL
USER_CHARGES
 
@<TRIPOS>ATOM
       1    N1      20.466663   17.216763   23.558345 N.4        1 MOL1        -0.5937
       2    H1      20.309843   16.209092   23.645876 H          1 MOL1         0.3684
       3    H2      20.907928   17.531951   24.426477 H          1 MOL1         0.3684
       4    H3      21.141009   17.356256   22.802535 H          1 MOL1         0.3684
       5    C1      19.181759   17.952922   23.291928 C.3        1 MOL1         0.1270
       6    H4      18.524499   17.730636   24.138462 H          1 MOL1         0.0960
       7    C2      18.494791   17.423904   22.020292 C.3        1 MOL1        -0.2382
       8    H5      17.559503   17.964234   21.828584 H          1 MOL1         0.1009
       9    H6      18.247153   16.361233   22.132062 H          1 MOL1         0.1009
      10    H7      19.138150   17.526320   21.138451 H          1 MOL1         0.1009
      11    C3      19.374992   19.487918   23.253185 C.3        1 MOL1        -0.1392
      12    H8      18.391660   19.964779   23.146425 H          1 MOL1         0.0998
      13    H9      19.763116   19.813467   24.227241 H          1 MOL1         0.0998
      14    C4      20.316759   20.001060   22.133318 C.3        1 MOL1        -0.1302
      15    H10     19.917630   19.729526   21.146921 H          1 MOL1         0.0998
      16    H11     21.303206   19.526125   22.220042 H          1 MOL1         0.0998
      17    C5      20.489452   21.533862   22.196758 C.3        1 MOL1        -0.2317
      18    H12     21.156301   21.882359   21.397428 H          1 MOL1         0.1009
      19    H13     20.924210   21.843482   23.156102 H          1 MOL1         0.1009
      20    H14     19.525450   22.045414   22.077438 H          1 MOL1         0.1009
@<TRIPOS>BOND
    1     1     2    1
    2     1     3    1
    3     1     4    1
    4     1     5    1
    5     5     6    1
    6     5     7    1
    7     7     8    1
    8     7     9    1
    9     7    10    1
   10     5    11    1
   11    11    12    1
   12    11    13    1
   13    11    14    1
   14    14    15    1
   15    14    16    1
   16    14    17    1
   17    17    18    1
   18    17    19    1
   19    17    20    1
@<TRIPOS>SUBSTRUCTURE
       1 MOL1            1 RESIDUE      1      MOL     
@<SCITEGIC>MOL_PROPERTY
VConf Rank
SciTegic.value.IntegerValue
575

@<SCITEGIC>MOL_PROPERTY
Conf_Id
SciTegic.value.IntegerValue
63

@<SCITEGIC>MOL_PROPERTY
Delta U+W
SciTegic.value.DoubleValue
0.420

@<SCITEGIC>MOL_PROPERTY
U+W
SciTegic.value.DoubleValue
-35.856

@<SCITEGIC>MOL_PROPERTY
Grad RMS
SciTegic.value.DoubleValue
0.000000

@<SCITEGIC>MOL_PROPERTY
U
SciTegic.value.DoubleValue
22.625

@<SCITEGIC>MOL_PROPERTY
W
SciTegic.value.DoubleValue
-58.481

@<SCITEGIC>MOL_PROPERTY
W(PB)
SciTegic.value.DoubleValue
-60.400

@<SCITEGIC>MOL_PROPERTY
W(SA)
SciTegic.value.DoubleValue
1.919

@<SCITEGIC>MOL_PROPERTY
Valence
SciTegic.value.DoubleValue
2.404

@<SCITEGIC>MOL_PROPERTY
Coulomb
SciTegic.value.DoubleValue
19.464

@<SCITEGIC>MOL_PROPERTY
VdW
SciTegic.value.DoubleValue
0.757

@<SCITEGIC>MOL_PROPERTY
VdW6
SciTegic.value.DoubleValue
-5.074

@<SCITEGIC>MOL_PROPERTY
VdW12
SciTegic.value.DoubleValue
5.830

@<SCITEGIC>MOL_PROPERTY
Bond
SciTegic.value.DoubleValue
0.172

@<SCITEGIC>MOL_PROPERTY
Angle
SciTegic.value.DoubleValue
1.207

@<SCITEGIC>MOL_PROPERTY
Pdih
SciTegic.value.DoubleValue
1.025

@<SCITEGIC>MOL_PROPERTY
Idih
SciTegic.value.DoubleValue
0.000

@<SCITEGIC>MOL_PROPERTY
Tether
SciTegic.value.DoubleValue
0.000

@<TRIPOS>MOLECULE
guest-s10_confgen4.mol2 : confsearch ligand conformer 576
          20          19           1
SMALL
USER_CHARGES
 
@<TRIPOS>ATOM
       1    N1      21.399135   19.112845   22.333375 N.4        1 MOL1        -0.5937
       2    H1      21.188178   18.389484   21.641189 H          1 MOL1         0.3684
       3    H2      21.981478   18.685568   23.057759 H          1 MOL1         0.3684
       4    H3      21.965488   19.826451   21.866949 H          1 MOL1         0.3684
       5    C1      20.140195   19.698954   22.912791 C.3        1 MOL1         0.1270
       6    H4      19.582349   20.133865   22.078052 H          1 MOL1         0.0960
       7    C2      20.472148   20.825658   23.904687 C.3        1 MOL1        -0.2382
       8    H5      21.071357   21.606025   23.419700 H          1 MOL1         0.1009
       9    H6      21.038055   20.444946   24.764082 H          1 MOL1         0.1009
      10    H7      19.555334   21.296347   24.280887 H          1 MOL1         0.1009
      11    C3      19.248289   18.632677   23.588469 C.3        1 MOL1        -0.1392
      12    H8      19.785409   18.195282   24.440539 H          1 MOL1         0.0998
      13    H9      18.359009   19.123347   24.006022 H          1 MOL1         0.0998
      14    C4      18.789313   17.495452   22.640863 C.3        1 MOL1        -0.1302
      15    H10     18.168504   16.790344   23.211233 H          1 MOL1         0.0998
      16    H11     19.656430   16.918943   22.291132 H          1 MOL1         0.0998
      17    C5      17.979610   18.007368   21.427730 C.3        1 MOL1        -0.2317
      18    H12     17.106175   18.587510   21.752887 H          1 MOL1         0.1009
      19    H13     17.615944   17.164974   20.825080 H          1 MOL1         0.1009
      20    H14     18.588959   18.643094   20.773175 H          1 MOL1         0.1009
@<TRIPOS>BOND
    1     1     2    1
    2     1     3    1
    3     1     4    1
    4     1     5    1
    5     5     6    1
    6     5     7    1
    7     7     8    1
    8     7     9    1
    9     7    10    1
   10     5    11    1
   11    11    12    1
   12    11    13    1
   13    11    14    1
   14    14    15    1
   15    14    16    1
   16    14    17    1
   17    17    18    1
   18    17    19    1
   19    17    20    1
@<TRIPOS>SUBSTRUCTURE
       1 MOL1            1 RESIDUE      1      MOL     
@<SCITEGIC>MOL_PROPERTY
VConf Rank
SciTegic.value.IntegerValue
576

@<SCITEGIC>MOL_PROPERTY
Conf_Id
SciTegic.value.IntegerValue
50

@<SCITEGIC>MOL_PROPERTY
Delta U+W
SciTegic.value.DoubleValue
0.466

@<SCITEGIC>MOL_PROPERTY
U+W
SciTegic.value.DoubleValue
-35.811

@<SCITEGIC>MOL_PROPERTY
Grad RMS
SciTegic.value.DoubleValue
0.000000

@<SCITEGIC>MOL_PROPERTY
U
SciTegic.value.DoubleValue
22.369

@<SCITEGIC>MOL_PROPERTY
W
SciTegic.value.DoubleValue
-58.180

@<SCITEGIC>MOL_PROPERTY
W(PB)
SciTegic.value.DoubleValue
-60.103

@<SCITEGIC>MOL_PROPERTY
W(SA)
SciTegic.value.DoubleValue
1.923

@<SCITEGIC>MOL_PROPERTY
Valence
SciTegic.value.DoubleValue
2.168

@<SCITEGIC>MOL_PROPERTY
Coulomb
SciTegic.value.DoubleValue
19.636

@<SCITEGIC>MOL_PROPERTY
VdW
SciTegic.value.DoubleValue
0.566

@<SCITEGIC>MOL_PROPERTY
VdW6
SciTegic.value.DoubleValue
-5.263

@<SCITEGIC>MOL_PROPERTY
VdW12
SciTegic.value.DoubleValue
5.829

@<SCITEGIC>MOL_PROPERTY
Bond
SciTegic.value.DoubleValue
0.162

@<SCITEGIC>MOL_PROPERTY
Angle
SciTegic.value.DoubleValue
1.066

@<SCITEGIC>MOL_PROPERTY
Pdih
SciTegic.value.DoubleValue
0.939

@<SCITEGIC>MOL_PROPERTY
Idih
SciTegic.value.DoubleValue
0.000

@<SCITEGIC>MOL_PROPERTY
Tether
SciTegic.value.DoubleValue
0.000

@<TRIPOS>MOLECULE
guest-s10_confgen4.mol2 : confsearch ligand conformer 577
          20          19           1
SMALL
USER_CHARGES
 
@<TRIPOS>ATOM
       1    N1      20.479487   16.945261   23.720919 N.4        1 MOL1        -0.5937
       2    H1      21.317376   17.229353   24.235925 H          1 MOL1         0.3684
       3    H2      20.781260   16.339875   22.953252 H          1 MOL1         0.3684
       4    H3      19.914408   16.373828   24.354863 H          1 MOL1         0.3684
       5    C1      19.708114   18.134828   23.216446 C.3        1 MOL1         0.1270
       6    H4      19.434328   18.717918   24.101211 H          1 MOL1         0.0960
       7    C2      18.419200   17.667836   22.514603 C.3        1 MOL1        -0.2382
       8    H5      18.648165   17.038176   21.645829 H          1 MOL1         0.1009
       9    H6      17.820034   18.516079   22.166359 H          1 MOL1         0.1009
      10    H7      17.795486   17.082979   23.201664 H          1 MOL1         0.1009
      11    C3      20.568882   19.033468   22.294624 C.3        1 MOL1        -0.1392
      12    H8      21.629170   18.790000   22.443569 H          1 MOL1         0.0998
      13    H9      20.360382   18.811881   21.239427 H          1 MOL1         0.0998
      14    C4      20.402042   20.550567   22.563617 C.3        1 MOL1        -0.1302
      15    H10     21.104308   21.100052   21.921106 H          1 MOL1         0.0998
      16    H11     20.696424   20.774667   23.598605 H          1 MOL1         0.0998
      17    C5      18.974853   21.084417   22.309901 C.3        1 MOL1        -0.2317
      18    H12     18.634110   20.838496   21.295778 H          1 MOL1         0.1009
      19    H13     18.949832   22.176790   22.415427 H          1 MOL1         0.1009
      20    H14     18.257817   20.669575   23.029204 H          1 MOL1         0.1009
@<TRIPOS>BOND
    1     1     2    1
    2     1     3    1
    3     1     4    1
    4     1     5    1
    5     5     6    1
    6     5     7    1
    7     7     8    1
    8     7     9    1
    9     7    10    1
   10     5    11    1
   11    11    12    1
   12    11    13    1
   13    11    14    1
   14    14    15    1
   15    14    16    1
   16    14    17    1
   17    17    18    1
   18    17    19    1
   19    17    20    1
@<TRIPOS>SUBSTRUCTURE
       1 MOL1            1 RESIDUE      1      MOL     
@<SCITEGIC>MOL_PROPERTY
VConf Rank
SciTegic.value.IntegerValue
577

@<SCITEGIC>MOL_PROPERTY
Conf_Id
SciTegic.value.IntegerValue
3

@<SCITEGIC>MOL_PROPERTY
Delta U+W
SciTegic.value.DoubleValue
3.093

@<SCITEGIC>MOL_PROPERTY
U+W
SciTegic.value.DoubleValue
-33.184

@<SCITEGIC>MOL_PROPERTY
Grad RMS
SciTegic.value.DoubleValue
0.000000

@<SCITEGIC>MOL_PROPERTY
U
SciTegic.value.DoubleValue
25.256

@<SCITEGIC>MOL_PROPERTY
W
SciTegic.value.DoubleValue
-58.439

@<SCITEGIC>MOL_PROPERTY
W(PB)
SciTegic.value.DoubleValue
-60.337

@<SCITEGIC>MOL_PROPERTY
W(SA)
SciTegic.value.DoubleValue
1.898

@<SCITEGIC>MOL_PROPERTY
Valence
SciTegic.value.DoubleValue
4.963

@<SCITEGIC>MOL_PROPERTY
Coulomb
SciTegic.value.DoubleValue
19.511

@<SCITEGIC>MOL_PROPERTY
VdW
SciTegic.value.DoubleValue
0.782

@<SCITEGIC>MOL_PROPERTY
VdW6
SciTegic.value.DoubleValue
-5.429

@<SCITEGIC>MOL_PROPERTY
VdW12
SciTegic.value.DoubleValue
6.211

@<SCITEGIC>MOL_PROPERTY
Bond
SciTegic.value.DoubleValue
0.174

@<SCITEGIC>MOL_PROPERTY
Angle
SciTegic.value.DoubleValue
1.377

@<SCITEGIC>MOL_PROPERTY
Pdih
SciTegic.value.DoubleValue
3.412

@<SCITEGIC>MOL_PROPERTY
Idih
SciTegic.value.DoubleValue
0.000

@<SCITEGIC>MOL_PROPERTY
Tether
SciTegic.value.DoubleValue
0.000

@<TRIPOS>MOLECULE
guest-s10_confgen4.mol2 : confsearch ligand conformer 578
          20          19           1
SMALL
USER_CHARGES
 
@<TRIPOS>ATOM
       1    N1      20.391921   19.514364   24.851249 N.4        1 MOL1        -0.5937
       2    H1      20.216355   18.939657   25.679817 H          1 MOL1         0.3684
       3    H2      19.945863   20.421489   25.012456 H          1 MOL1         0.3684
       4    H3      21.401185   19.674018   24.800453 H          1 MOL1         0.3684
       5    C1      19.873330   18.854441   23.603073 C.3        1 MOL1         0.1270
       6    H4      18.797322   18.722115   23.750702 H          1 MOL1         0.0960
       7    C2      20.514088   17.465891   23.425705 C.3        1 MOL1        -0.2382
       8    H5      20.046747   16.914582   22.601578 H          1 MOL1         0.1009
       9    H6      20.386878   16.862537   24.332852 H          1 MOL1         0.1009
      10    H7      21.588413   17.547707   23.219254 H          1 MOL1         0.1009
      11    C3      20.086600   19.755454   22.363267 C.3        1 MOL1        -0.1392
      12    H8      19.680987   20.752542   22.579648 H          1 MOL1         0.0998
      13    H9      21.162891   19.894516   22.195951 H          1 MOL1         0.0998
      14    C4      19.433956   19.236838   21.056287 C.3        1 MOL1        -0.1302
      15    H10     19.911776   18.301115   20.736313 H          1 MOL1         0.0998
      16    H11     19.628422   19.962372   20.254026 H          1 MOL1         0.0998
      17    C5      17.907736   19.027569   21.182824 C.3        1 MOL1        -0.2317
      18    H12     17.407882   19.950403   21.504816 H          1 MOL1         0.1009
      19    H13     17.667580   18.236895   21.904783 H          1 MOL1         0.1009
      20    H14     17.478374   18.733958   20.216150 H          1 MOL1         0.1009
@<TRIPOS>BOND
    1     1     2    1
    2     1     3    1
    3     1     4    1
    4     1     5    1
    5     5     6    1
    6     5     7    1
    7     7     8    1
    8     7     9    1
    9     7    10    1
   10     5    11    1
   11    11    12    1
   12    11    13    1
   13    11    14    1
   14    14    15    1
   15    14    16    1
   16    14    17    1
   17    17    18    1
   18    17    19    1
   19    17    20    1
@<TRIPOS>SUBSTRUCTURE
       1 MOL1            1 RESIDUE      1      MOL     
@<SCITEGIC>MOL_PROPERTY
VConf Rank
SciTegic.value.IntegerValue
578

@<SCITEGIC>MOL_PROPERTY
Conf_Id
SciTegic.value.IntegerValue
64

@<SCITEGIC>MOL_PROPERTY
Delta U+W
SciTegic.value.DoubleValue
0.544

@<SCITEGIC>MOL_PROPERTY
U+W
SciTegic.value.DoubleValue
-35.732

@<SCITEGIC>MOL_PROPERTY
Grad RMS
SciTegic.value.DoubleValue
0.000000

@<SCITEGIC>MOL_PROPERTY
U
SciTegic.value.DoubleValue
22.800

@<SCITEGIC>MOL_PROPERTY
W
SciTegic.value.DoubleValue
-58.532

@<SCITEGIC>MOL_PROPERTY
W(PB)
SciTegic.value.DoubleValue
-60.437

@<SCITEGIC>MOL_PROPERTY
W(SA)
SciTegic.value.DoubleValue
1.905

@<SCITEGIC>MOL_PROPERTY
Valence
SciTegic.value.DoubleValue
2.662

@<SCITEGIC>MOL_PROPERTY
Coulomb
SciTegic.value.DoubleValue
19.485

@<SCITEGIC>MOL_PROPERTY
VdW
SciTegic.value.DoubleValue
0.653

@<SCITEGIC>MOL_PROPERTY
VdW6
SciTegic.value.DoubleValue
-5.460

@<SCITEGIC>MOL_PROPERTY
VdW12
SciTegic.value.DoubleValue
6.113

@<SCITEGIC>MOL_PROPERTY
Bond
SciTegic.value.DoubleValue
0.174

@<SCITEGIC>MOL_PROPERTY
Angle
SciTegic.value.DoubleValue
1.378

@<SCITEGIC>MOL_PROPERTY
Pdih
SciTegic.value.DoubleValue
1.109

@<SCITEGIC>MOL_PROPERTY
Idih
SciTegic.value.DoubleValue
0.000

@<SCITEGIC>MOL_PROPERTY
Tether
SciTegic.value.DoubleValue
0.000

@<TRIPOS>MOLECULE
guest-s10_confgen4.mol2 : confsearch ligand conformer 579
          20          19           1
SMALL
USER_CHARGES
 
@<TRIPOS>ATOM
       1    N1      20.843330   20.696575   23.129255 N.4        1 MOL1        -0.5937
       2    H1      20.272063   20.583594   23.969590 H          1 MOL1         0.3684
       3    H2      20.751095   21.669646   22.825546 H          1 MOL1         0.3684
       4    H3      21.820064   20.554585   23.400345 H          1 MOL1         0.3684
       5    C1      20.424720   19.739821   22.045641 C.3        1 MOL1         0.1270
       6    H4      21.081445   19.945779   21.194609 H          1 MOL1         0.0960
       7    C2      18.983124   20.022185   21.591997 C.3        1 MOL1        -0.2382
       8    H5      18.279948   19.966558   22.431139 H          1 MOL1         0.1009
       9    H6      18.667736   19.305968   20.823295 H          1 MOL1         0.1009
      10    H7      18.907674   21.027715   21.160503 H          1 MOL1         0.1009
      11    C3      20.653738   18.260263   22.444890 C.3        1 MOL1        -0.1392
      12    H8      20.500691   17.618365   21.567370 H          1 MOL1         0.0998
      13    H9      21.715887   18.150238   22.700264 H          1 MOL1         0.0998
      14    C4      19.809179   17.732019   23.637745 C.3        1 MOL1        -0.1302
      15    H10     19.593090   18.537377   24.351946 H          1 MOL1         0.0998
      16    H11     20.411747   16.996877   24.189524 H          1 MOL1         0.0998
      17    C5      18.496464   17.037036   23.205861 C.3        1 MOL1        -0.2317
      18    H12     17.818036   17.721404   22.684946 H          1 MOL1         0.1009
      19    H13     17.963127   16.646901   24.082395 H          1 MOL1         0.1009
      20    H14     18.701458   16.190039   22.538315 H          1 MOL1         0.1009
@<TRIPOS>BOND
    1     1     2    1
    2     1     3    1
    3     1     4    1
    4     1     5    1
    5     5     6    1
    6     5     7    1
    7     7     8    1
    8     7     9    1
    9     7    10    1
   10     5    11    1
   11    11    12    1
   12    11    13    1
   13    11    14    1
   14    14    15    1
   15    14    16    1
   16    14    17    1
   17    17    18    1
   18    17    19    1
   19    17    20    1
@<TRIPOS>SUBSTRUCTURE
       1 MOL1            1 RESIDUE      1      MOL     
@<SCITEGIC>MOL_PROPERTY
VConf Rank
SciTegic.value.IntegerValue
579

@<SCITEGIC>MOL_PROPERTY
Conf_Id
SciTegic.value.IntegerValue
35

@<SCITEGIC>MOL_PROPERTY
Delta U+W
SciTegic.value.DoubleValue
3.004

@<SCITEGIC>MOL_PROPERTY
U+W
SciTegic.value.DoubleValue
-33.272

@<SCITEGIC>MOL_PROPERTY
Grad RMS
SciTegic.value.DoubleValue
0.000000

@<SCITEGIC>MOL_PROPERTY
U
SciTegic.value.DoubleValue
25.367

@<SCITEGIC>MOL_PROPERTY
W
SciTegic.value.DoubleValue
-58.639

@<SCITEGIC>MOL_PROPERTY
W(PB)
SciTegic.value.DoubleValue
-60.512

@<SCITEGIC>MOL_PROPERTY
W(SA)
SciTegic.value.DoubleValue
1.873

@<SCITEGIC>MOL_PROPERTY
Valence
SciTegic.value.DoubleValue
4.943

@<SCITEGIC>MOL_PROPERTY
Coulomb
SciTegic.value.DoubleValue
19.661

@<SCITEGIC>MOL_PROPERTY
VdW
SciTegic.value.DoubleValue
0.764

@<SCITEGIC>MOL_PROPERTY
VdW6
SciTegic.value.DoubleValue
-5.871

@<SCITEGIC>MOL_PROPERTY
VdW12
SciTegic.value.DoubleValue
6.636

@<SCITEGIC>MOL_PROPERTY
Bond
SciTegic.value.DoubleValue
0.230

@<SCITEGIC>MOL_PROPERTY
Angle
SciTegic.value.DoubleValue
1.857

@<SCITEGIC>MOL_PROPERTY
Pdih
SciTegic.value.DoubleValue
2.855

@<SCITEGIC>MOL_PROPERTY
Idih
SciTegic.value.DoubleValue
0.000

@<SCITEGIC>MOL_PROPERTY
Tether
SciTegic.value.DoubleValue
0.000

@<TRIPOS>MOLECULE
guest-s10_confgen4.mol2 : confsearch ligand conformer 580
          20          19           1
SMALL
USER_CHARGES
 
@<TRIPOS>ATOM
       1    N1      21.350875   19.207613   23.552058 N.4        1 MOL1        -0.5937
       2    H1      22.313656   19.475952   23.331493 H          1 MOL1         0.3684
       3    H2      21.363674   18.753902   24.469426 H          1 MOL1         0.3684
       4    H3      20.803002   20.065305   23.642591 H          1 MOL1         0.3684
       5    C1      20.774875   18.302368   22.497915 C.3        1 MOL1         0.1270
       6    H4      21.412910   17.413081   22.500308 H          1 MOL1         0.0960
       7    C2      20.875849   18.934755   21.098486 C.3        1 MOL1        -0.2382
       8    H5      20.334444   19.886721   21.044288 H          1 MOL1         0.1009
       9    H6      20.464828   18.260880   20.336663 H          1 MOL1         0.1009
      10    H7      21.923683   19.129649   20.839588 H          1 MOL1         0.1009
      11    C3      19.337732   17.823697   22.827774 C.3        1 MOL1        -0.1392
      12    H8      19.125527   16.950220   22.197259 H          1 MOL1         0.0998
      13    H9      19.315800   17.449467   23.859611 H          1 MOL1         0.0998
      14    C4      18.182701   18.844846   22.628392 C.3        1 MOL1        -0.1302
      15    H10     17.236530   18.336211   22.860504 H          1 MOL1         0.0998
      16    H11     18.109097   19.135209   21.571555 H          1 MOL1         0.0998
      17    C5      18.281245   20.110813   23.509607 C.3        1 MOL1        -0.2317
      18    H12     18.441915   19.850731   24.563970 H          1 MOL1         0.1009
      19    H13     17.350449   20.689620   23.448199 H          1 MOL1         0.1009
      20    H14     19.091818   20.770504   23.179383 H          1 MOL1         0.1009
@<TRIPOS>BOND
    1     1     2    1
    2     1     3    1
    3     1     4    1
    4     1     5    1
    5     5     6    1
    6     5     7    1
    7     7     8    1
    8     7     9    1
    9     7    10    1
   10     5    11    1
   11    11    12    1
   12    11    13    1
   13    11    14    1
   14    14    15    1
   15    14    16    1
   16    14    17    1
   17    17    18    1
   18    17    19    1
   19    17    20    1
@<TRIPOS>SUBSTRUCTURE
       1 MOL1            1 RESIDUE      1      MOL     
@<SCITEGIC>MOL_PROPERTY
VConf Rank
SciTegic.value.IntegerValue
580

@<SCITEGIC>MOL_PROPERTY
Conf_Id
SciTegic.value.IntegerValue
55

@<SCITEGIC>MOL_PROPERTY
Delta U+W
SciTegic.value.DoubleValue
2.767

@<SCITEGIC>MOL_PROPERTY
U+W
SciTegic.value.DoubleValue
-33.509

@<SCITEGIC>MOL_PROPERTY
Grad RMS
SciTegic.value.DoubleValue
0.000000

@<SCITEGIC>MOL_PROPERTY
U
SciTegic.value.DoubleValue
24.552

@<SCITEGIC>MOL_PROPERTY
W
SciTegic.value.DoubleValue
-58.061

@<SCITEGIC>MOL_PROPERTY
W(PB)
SciTegic.value.DoubleValue
-59.930

@<SCITEGIC>MOL_PROPERTY
W(SA)
SciTegic.value.DoubleValue
1.869

@<SCITEGIC>MOL_PROPERTY
Valence
SciTegic.value.DoubleValue
3.726

@<SCITEGIC>MOL_PROPERTY
Coulomb
SciTegic.value.DoubleValue
20.219

@<SCITEGIC>MOL_PROPERTY
VdW
SciTegic.value.DoubleValue
0.606

@<SCITEGIC>MOL_PROPERTY
VdW6
SciTegic.value.DoubleValue
-6.395

@<SCITEGIC>MOL_PROPERTY
VdW12
SciTegic.value.DoubleValue
7.001

@<SCITEGIC>MOL_PROPERTY
Bond
SciTegic.value.DoubleValue
0.241

@<SCITEGIC>MOL_PROPERTY
Angle
SciTegic.value.DoubleValue
2.098

@<SCITEGIC>MOL_PROPERTY
Pdih
SciTegic.value.DoubleValue
1.387

@<SCITEGIC>MOL_PROPERTY
Idih
SciTegic.value.DoubleValue
0.000

@<SCITEGIC>MOL_PROPERTY
Tether
SciTegic.value.DoubleValue
0.000

@<TRIPOS>MOLECULE
guest-s10_confgen4.mol2 : confsearch ligand conformer 581
          20          19           1
SMALL
USER_CHARGES
 
@<TRIPOS>ATOM
       1    N1      18.131686   19.274267   21.631631 N.4        1 MOL1        -0.5937
       2    H1      18.132686   18.384586   21.126643 H          1 MOL1         0.3684
       3    H2      17.622656   19.950958   21.056623 H          1 MOL1         0.3684
       4    H3      17.592854   19.139723   22.490781 H          1 MOL1         0.3684
       5    C1      19.531291   19.743354   21.925102 C.3        1 MOL1         0.1270
       6    H4      19.439036   20.690486   22.465765 H          1 MOL1         0.0960
       7    C2      20.297295   20.007940   20.618503 C.3        1 MOL1        -0.2382
       8    H5      19.765492   20.739388   19.997671 H          1 MOL1         0.1009
       9    H6      20.417079   19.086850   20.034518 H          1 MOL1         0.1009
      10    H7      21.295608   20.412541   20.826610 H          1 MOL1         0.1009
      11    C3      20.314529   18.753561   22.815607 C.3        1 MOL1        -0.1392
      12    H8      20.400902   17.785260   22.304874 H          1 MOL1         0.0998
      13    H9      21.337796   19.129689   22.947973 H          1 MOL1         0.0998
      14    C4      19.672277   18.554244   24.209631 C.3        1 MOL1        -0.1302
      15    H10     18.666583   18.124832   24.106622 H          1 MOL1         0.0998
      16    H11     19.553390   19.528141   24.705247 H          1 MOL1         0.0998
      17    C5      20.524693   17.627239   25.102577 C.3        1 MOL1        -0.2317
      18    H12     20.636527   16.634291   24.647822 H          1 MOL1         0.1009
      19    H13     20.054260   17.495966   26.085707 H          1 MOL1         0.1009
      20    H14     21.527367   18.044611   25.262818 H          1 MOL1         0.1009
@<TRIPOS>BOND
    1     1     2    1
    2     1     3    1
    3     1     4    1
    4     1     5    1
    5     5     6    1
    6     5     7    1
    7     7     8    1
    8     7     9    1
    9     7    10    1
   10     5    11    1
   11    11    12    1
   12    11    13    1
   13    11    14    1
   14    14    15    1
   15    14    16    1
   16    14    17    1
   17    17    18    1
   18    17    19    1
   19    17    20    1
@<TRIPOS>SUBSTRUCTURE
       1 MOL1            1 RESIDUE      1      MOL     
@<SCITEGIC>MOL_PROPERTY
VConf Rank
SciTegic.value.IntegerValue
581

@<SCITEGIC>MOL_PROPERTY
Conf_Id
SciTegic.value.IntegerValue
74

@<SCITEGIC>MOL_PROPERTY
Delta U+W
SciTegic.value.DoubleValue
0.000

@<SCITEGIC>MOL_PROPERTY
U+W
SciTegic.value.DoubleValue
-36.276

@<SCITEGIC>MOL_PROPERTY
Grad RMS
SciTegic.value.DoubleValue
0.000000

@<SCITEGIC>MOL_PROPERTY
U
SciTegic.value.DoubleValue
22.080

@<SCITEGIC>MOL_PROPERTY
W
SciTegic.value.DoubleValue
-58.356

@<SCITEGIC>MOL_PROPERTY
W(PB)
SciTegic.value.DoubleValue
-60.289

@<SCITEGIC>MOL_PROPERTY
W(SA)
SciTegic.value.DoubleValue
1.932

@<SCITEGIC>MOL_PROPERTY
Valence
SciTegic.value.DoubleValue
1.885

@<SCITEGIC>MOL_PROPERTY
Coulomb
SciTegic.value.DoubleValue
19.559

@<SCITEGIC>MOL_PROPERTY
VdW
SciTegic.value.DoubleValue
0.637

@<SCITEGIC>MOL_PROPERTY
VdW6
SciTegic.value.DoubleValue
-4.482

@<SCITEGIC>MOL_PROPERTY
VdW12
SciTegic.value.DoubleValue
5.119

@<SCITEGIC>MOL_PROPERTY
Bond
SciTegic.value.DoubleValue
0.136

@<SCITEGIC>MOL_PROPERTY
Angle
SciTegic.value.DoubleValue
0.867

@<SCITEGIC>MOL_PROPERTY
Pdih
SciTegic.value.DoubleValue
0.882

@<SCITEGIC>MOL_PROPERTY
Idih
SciTegic.value.DoubleValue
0.000

@<SCITEGIC>MOL_PROPERTY
Tether
SciTegic.value.DoubleValue
0.000

@<TRIPOS>MOLECULE
guest-s10_confgen4.mol2 : confsearch ligand conformer 582
          20          19           1
SMALL
USER_CHARGES
 
@<TRIPOS>ATOM
       1    N1      20.676857   17.553570   21.006758 N.4        1 MOL1        -0.5937
       2    H1      21.585403   17.308476   21.409658 H          1 MOL1         0.3684
       3    H2      20.838491   18.282769   20.307565 H          1 MOL1         0.3684
       4    H3      20.333705   16.726880   20.510261 H          1 MOL1         0.3684
       5    C1      19.704730   18.005306   22.061921 C.3        1 MOL1         0.1270
       6    H4      19.593134   17.167323   22.757045 H          1 MOL1         0.0960
       7    C2      18.331272   18.300046   21.431412 C.3        1 MOL1        -0.2382
       8    H5      17.987254   17.444459   20.837404 H          1 MOL1         0.1009
       9    H6      18.376670   19.175420   20.771686 H          1 MOL1         0.1009
      10    H7      17.571391   18.486807   22.198827 H          1 MOL1         0.1009
      11    C3      20.256747   19.216391   22.849346 C.3        1 MOL1        -0.1392
      12    H8      21.277406   18.980691   23.178531 H          1 MOL1         0.0998
      13    H9      20.338416   20.084957   22.182434 H          1 MOL1         0.0998
      14    C4      19.413680   19.590852   24.092801 C.3        1 MOL1        -0.1302
      15    H10     19.278579   18.705161   24.729487 H          1 MOL1         0.0998
      16    H11     18.411355   19.920566   23.788607 H          1 MOL1         0.0998
      17    C5      20.079662   20.715106   24.915116 C.3        1 MOL1        -0.2317
      18    H12     21.069952   20.408134   25.276131 H          1 MOL1         0.1009
      19    H13     19.467484   20.970340   25.789863 H          1 MOL1         0.1009
      20    H14     20.202271   21.624986   24.313165 H          1 MOL1         0.1009
@<TRIPOS>BOND
    1     1     2    1
    2     1     3    1
    3     1     4    1
    4     1     5    1
    5     5     6    1
    6     5     7    1
    7     7     8    1
    8     7     9    1
    9     7    10    1
   10     5    11    1
   11    11    12    1
   12    11    13    1
   13    11    14    1
   14    14    15    1
   15    14    16    1
   16    14    17    1
   17    17    18    1
   18    17    19    1
   19    17    20    1
@<TRIPOS>SUBSTRUCTURE
       1 MOL1            1 RESIDUE      1      MOL     
@<SCITEGIC>MOL_PROPERTY
VConf Rank
SciTegic.value.IntegerValue
582

@<SCITEGIC>MOL_PROPERTY
Conf_Id
SciTegic.value.IntegerValue
80

@<SCITEGIC>MOL_PROPERTY
Delta U+W
SciTegic.value.DoubleValue
0.460

@<SCITEGIC>MOL_PROPERTY
U+W
SciTegic.value.DoubleValue
-35.817

@<SCITEGIC>MOL_PROPERTY
Grad RMS
SciTegic.value.DoubleValue
0.000000

@<SCITEGIC>MOL_PROPERTY
U
SciTegic.value.DoubleValue
22.495

@<SCITEGIC>MOL_PROPERTY
W
SciTegic.value.DoubleValue
-58.311

@<SCITEGIC>MOL_PROPERTY
W(PB)
SciTegic.value.DoubleValue
-60.259

@<SCITEGIC>MOL_PROPERTY
W(SA)
SciTegic.value.DoubleValue
1.948

@<SCITEGIC>MOL_PROPERTY
Valence
SciTegic.value.DoubleValue
2.419

@<SCITEGIC>MOL_PROPERTY
Coulomb
SciTegic.value.DoubleValue
19.304

@<SCITEGIC>MOL_PROPERTY
VdW
SciTegic.value.DoubleValue
0.772

@<SCITEGIC>MOL_PROPERTY
VdW6
SciTegic.value.DoubleValue
-4.635

@<SCITEGIC>MOL_PROPERTY
VdW12
SciTegic.value.DoubleValue
5.407

@<SCITEGIC>MOL_PROPERTY
Bond
SciTegic.value.DoubleValue
0.149

@<SCITEGIC>MOL_PROPERTY
Angle
SciTegic.value.DoubleValue
1.142

@<SCITEGIC>MOL_PROPERTY
Pdih
SciTegic.value.DoubleValue
1.129

@<SCITEGIC>MOL_PROPERTY
Idih
SciTegic.value.DoubleValue
0.000

@<SCITEGIC>MOL_PROPERTY
Tether
SciTegic.value.DoubleValue
0.000

@<TRIPOS>MOLECULE
guest-s10_confgen4.mol2 : confsearch ligand conformer 583
          20          19           1
SMALL
USER_CHARGES
 
@<TRIPOS>ATOM
       1    N1      19.852579   16.709810   23.741421 N.4        1 MOL1        -0.5937
       2    H1      20.815661   16.366008   23.787086 H          1 MOL1         0.3684
       3    H2      19.392306   16.229735   22.964011 H          1 MOL1         0.3684
       4    H3      19.384624   16.413018   24.601971 H          1 MOL1         0.3684
       5    C1      19.802923   18.203963   23.574718 C.3        1 MOL1         0.1270
       6    H4      20.309292   18.626495   24.448134 H          1 MOL1         0.0960
       7    C2      18.344357   18.692569   23.585084 C.3        1 MOL1        -0.2382
       8    H5      17.805724   18.286255   24.449911 H          1 MOL1         0.1009
       9    H6      17.813880   18.382087   22.676432 H          1 MOL1         0.1009
      10    H7      18.296778   19.784773   23.661467 H          1 MOL1         0.1009
      11    C3      20.577131   18.647964   22.309490 C.3        1 MOL1        -0.1392
      12    H8      21.587651   18.223558   22.375977 H          1 MOL1         0.0998
      13    H9      20.125400   18.203487   21.412769 H          1 MOL1         0.0998
      14    C4      20.720558   20.182943   22.133672 C.3        1 MOL1        -0.1302
      15    H10     21.712977   20.395983   21.711967 H          1 MOL1         0.0998
      16    H11     20.695690   20.683658   23.111747 H          1 MOL1         0.0998
      17    C5      19.660768   20.795254   21.187651 C.3        1 MOL1        -0.2317
      18    H12     19.728693   20.353668   20.184903 H          1 MOL1         0.1009
      19    H13     19.816725   21.876995   21.085204 H          1 MOL1         0.1009
      20    H14     18.640117   20.640834   21.555032 H          1 MOL1         0.1009
@<TRIPOS>BOND
    1     1     2    1
    2     1     3    1
    3     1     4    1
    4     1     5    1
    5     5     6    1
    6     5     7    1
    7     7     8    1
    8     7     9    1
    9     7    10    1
   10     5    11    1
   11    11    12    1
   12    11    13    1
   13    11    14    1
   14    14    15    1
   15    14    16    1
   16    14    17    1
   17    17    18    1
   18    17    19    1
   19    17    20    1
@<TRIPOS>SUBSTRUCTURE
       1 MOL1            1 RESIDUE      1      MOL     
@<SCITEGIC>MOL_PROPERTY
VConf Rank
SciTegic.value.IntegerValue
583

@<SCITEGIC>MOL_PROPERTY
Conf_Id
SciTegic.value.IntegerValue
52

@<SCITEGIC>MOL_PROPERTY
Delta U+W
SciTegic.value.DoubleValue
2.995

@<SCITEGIC>MOL_PROPERTY
U+W
SciTegic.value.DoubleValue
-33.282

@<SCITEGIC>MOL_PROPERTY
Grad RMS
SciTegic.value.DoubleValue
0.000000

@<SCITEGIC>MOL_PROPERTY
U
SciTegic.value.DoubleValue
25.224

@<SCITEGIC>MOL_PROPERTY
W
SciTegic.value.DoubleValue
-58.506

@<SCITEGIC>MOL_PROPERTY
W(PB)
SciTegic.value.DoubleValue
-60.411

@<SCITEGIC>MOL_PROPERTY
W(SA)
SciTegic.value.DoubleValue
1.905

@<SCITEGIC>MOL_PROPERTY
Valence
SciTegic.value.DoubleValue
4.945

@<SCITEGIC>MOL_PROPERTY
Coulomb
SciTegic.value.DoubleValue
19.467

@<SCITEGIC>MOL_PROPERTY
VdW
SciTegic.value.DoubleValue
0.813

@<SCITEGIC>MOL_PROPERTY
VdW6
SciTegic.value.DoubleValue
-5.458

@<SCITEGIC>MOL_PROPERTY
VdW12
SciTegic.value.DoubleValue
6.270

@<SCITEGIC>MOL_PROPERTY
Bond
SciTegic.value.DoubleValue
0.200

@<SCITEGIC>MOL_PROPERTY
Angle
SciTegic.value.DoubleValue
1.675

@<SCITEGIC>MOL_PROPERTY
Pdih
SciTegic.value.DoubleValue
3.070

@<SCITEGIC>MOL_PROPERTY
Idih
SciTegic.value.DoubleValue
0.000

@<SCITEGIC>MOL_PROPERTY
Tether
SciTegic.value.DoubleValue
0.000

@<TRIPOS>MOLECULE
guest-s10_confgen4.mol2 : confsearch ligand conformer 584
          20          19           1
SMALL
USER_CHARGES
 
@<TRIPOS>ATOM
       1    N1      18.164271   19.153775   22.436513 N.4        1 MOL1        -0.5937
       2    H1      17.842314   19.894298   23.064484 H          1 MOL1         0.3684
       3    H2      17.345227   18.600637   22.170334 H          1 MOL1         0.3684
       4    H3      18.521441   19.603627   21.590908 H          1 MOL1         0.3684
       5    C1      19.218559   18.301464   23.088659 C.3        1 MOL1         0.1270
       6    H4      19.475918   17.508514   22.379623 H          1 MOL1         0.0960
       7    C2      18.647597   17.645392   24.357253 C.3        1 MOL1        -0.2382
       8    H5      18.386637   18.398855   25.110944 H          1 MOL1         0.1009
       9    H6      19.375016   16.954824   24.801800 H          1 MOL1         0.1009
      10    H7      17.744408   17.068306   24.123679 H          1 MOL1         0.1009
      11    C3      20.506386   19.091453   23.422807 C.3        1 MOL1        -0.1392
      12    H8      20.248077   20.035437   23.920546 H          1 MOL1         0.0998
      13    H9      21.089546   18.516665   24.154673 H          1 MOL1         0.0998
      14    C4      21.435434   19.363405   22.210570 C.3        1 MOL1        -0.1302
      15    H10     21.727350   18.410668   21.746767 H          1 MOL1         0.0998
      16    H11     22.364933   19.813918   22.586196 H          1 MOL1         0.0998
      17    C5      20.841235   20.300292   21.134291 C.3        1 MOL1        -0.2317
      18    H12     21.620843   20.602161   20.422692 H          1 MOL1         0.1009
      19    H13     20.429633   21.213897   21.582874 H          1 MOL1         0.1009
      20    H14     20.055567   19.802683   20.554162 H          1 MOL1         0.1009
@<TRIPOS>BOND
    1     1     2    1
    2     1     3    1
    3     1     4    1
    4     1     5    1
    5     5     6    1
    6     5     7    1
    7     7     8    1
    8     7     9    1
    9     7    10    1
   10     5    11    1
   11    11    12    1
   12    11    13    1
   13    11    14    1
   14    14    15    1
   15    14    16    1
   16    14    17    1
   17    17    18    1
   18    17    19    1
   19    17    20    1
@<TRIPOS>SUBSTRUCTURE
       1 MOL1            1 RESIDUE      1      MOL     
@<SCITEGIC>MOL_PROPERTY
VConf Rank
SciTegic.value.IntegerValue
584

@<SCITEGIC>MOL_PROPERTY
Conf_Id
SciTegic.value.IntegerValue
54

@<SCITEGIC>MOL_PROPERTY
Delta U+W
SciTegic.value.DoubleValue
2.752

@<SCITEGIC>MOL_PROPERTY
U+W
SciTegic.value.DoubleValue
-33.525

@<SCITEGIC>MOL_PROPERTY
Grad RMS
SciTegic.value.DoubleValue
0.000000

@<SCITEGIC>MOL_PROPERTY
U
SciTegic.value.DoubleValue
24.337

@<SCITEGIC>MOL_PROPERTY
W
SciTegic.value.DoubleValue
-57.862

@<SCITEGIC>MOL_PROPERTY
W(PB)
SciTegic.value.DoubleValue
-59.764

@<SCITEGIC>MOL_PROPERTY
W(SA)
SciTegic.value.DoubleValue
1.901

@<SCITEGIC>MOL_PROPERTY
Valence
SciTegic.value.DoubleValue
3.593

@<SCITEGIC>MOL_PROPERTY
Coulomb
SciTegic.value.DoubleValue
20.067

@<SCITEGIC>MOL_PROPERTY
VdW
SciTegic.value.DoubleValue
0.677

@<SCITEGIC>MOL_PROPERTY
VdW6
SciTegic.value.DoubleValue
-5.466

@<SCITEGIC>MOL_PROPERTY
VdW12
SciTegic.value.DoubleValue
6.144

@<SCITEGIC>MOL_PROPERTY
Bond
SciTegic.value.DoubleValue
0.191

@<SCITEGIC>MOL_PROPERTY
Angle
SciTegic.value.DoubleValue
1.557

@<SCITEGIC>MOL_PROPERTY
Pdih
SciTegic.value.DoubleValue
1.845

@<SCITEGIC>MOL_PROPERTY
Idih
SciTegic.value.DoubleValue
0.000

@<SCITEGIC>MOL_PROPERTY
Tether
SciTegic.value.DoubleValue
0.000

@<TRIPOS>MOLECULE
guest-s10_confgen4.mol2 : confsearch ligand conformer 585
          20          19           1
SMALL
USER_CHARGES
 
@<TRIPOS>ATOM
       1    N1      20.244849   20.627253   21.586336 N.4        1 MOL1        -0.5937
       2    H1      20.987110   21.302467   21.384376 H          1 MOL1         0.3684
       3    H2      19.351684   21.110987   21.459966 H          1 MOL1         0.3684
       4    H3      20.299425   19.892450   20.877439 H          1 MOL1         0.3684
       5    C1      20.376702   20.062882   22.974855 C.3        1 MOL1         0.1270
       6    H4      20.324103   20.918419   23.655526 H          1 MOL1         0.0960
       7    C2      21.749954   19.396698   23.172901 C.3        1 MOL1        -0.2382
       8    H5      21.841444   18.985034   24.185637 H          1 MOL1         0.1009
       9    H6      22.554702   20.129827   23.038777 H          1 MOL1         0.1009
      10    H7      21.914679   18.584377   22.455236 H          1 MOL1         0.1009
      11    C3      19.211041   19.113443   23.342079 C.3        1 MOL1        -0.1392
      12    H8      19.319854   18.810739   24.391968 H          1 MOL1         0.0998
      13    H9      18.272039   19.679797   23.287988 H          1 MOL1         0.0998
      14    C4      19.093246   17.847672   22.454222 C.3        1 MOL1        -0.1302
      15    H10     20.004535   17.240244   22.535439 H          1 MOL1         0.0998
      16    H11     18.993070   18.132911   21.398397 H          1 MOL1         0.0998
      17    C5      17.879884   16.983109   22.858711 C.3        1 MOL1        -0.2317
      18    H12     17.810801   16.090472   22.223501 H          1 MOL1         0.1009
      19    H13     16.942015   17.543959   22.753499 H          1 MOL1         0.1009
      20    H14     17.962940   16.648563   23.901018 H          1 MOL1         0.1009
@<TRIPOS>BOND
    1     1     2    1
    2     1     3    1
    3     1     4    1
    4     1     5    1
    5     5     6    1
    6     5     7    1
    7     7     8    1
    8     7     9    1
    9     7    10    1
   10     5    11    1
   11    11    12    1
   12    11    13    1
   13    11    14    1
   14    14    15    1
   15    14    16    1
   16    14    17    1
   17    17    18    1
   18    17    19    1
   19    17    20    1
@<TRIPOS>SUBSTRUCTURE
       1 MOL1            1 RESIDUE      1      MOL     
@<SCITEGIC>MOL_PROPERTY
VConf Rank
SciTegic.value.IntegerValue
585

@<SCITEGIC>MOL_PROPERTY
Conf_Id
SciTegic.value.IntegerValue
63

@<SCITEGIC>MOL_PROPERTY
Delta U+W
SciTegic.value.DoubleValue
0.420

@<SCITEGIC>MOL_PROPERTY
U+W
SciTegic.value.DoubleValue
-35.856

@<SCITEGIC>MOL_PROPERTY
Grad RMS
SciTegic.value.DoubleValue
0.000000

@<SCITEGIC>MOL_PROPERTY
U
SciTegic.value.DoubleValue
22.625

@<SCITEGIC>MOL_PROPERTY
W
SciTegic.value.DoubleValue
-58.481

@<SCITEGIC>MOL_PROPERTY
W(PB)
SciTegic.value.DoubleValue
-60.400

@<SCITEGIC>MOL_PROPERTY
W(SA)
SciTegic.value.DoubleValue
1.919

@<SCITEGIC>MOL_PROPERTY
Valence
SciTegic.value.DoubleValue
2.404

@<SCITEGIC>MOL_PROPERTY
Coulomb
SciTegic.value.DoubleValue
19.464

@<SCITEGIC>MOL_PROPERTY
VdW
SciTegic.value.DoubleValue
0.757

@<SCITEGIC>MOL_PROPERTY
VdW6
SciTegic.value.DoubleValue
-5.074

@<SCITEGIC>MOL_PROPERTY
VdW12
SciTegic.value.DoubleValue
5.830

@<SCITEGIC>MOL_PROPERTY
Bond
SciTegic.value.DoubleValue
0.172

@<SCITEGIC>MOL_PROPERTY
Angle
SciTegic.value.DoubleValue
1.207

@<SCITEGIC>MOL_PROPERTY
Pdih
SciTegic.value.DoubleValue
1.025

@<SCITEGIC>MOL_PROPERTY
Idih
SciTegic.value.DoubleValue
0.000

@<SCITEGIC>MOL_PROPERTY
Tether
SciTegic.value.DoubleValue
0.000

@<TRIPOS>MOLECULE
guest-s10_confgen4.mol2 : confsearch ligand conformer 586
          20          19           1
SMALL
USER_CHARGES
 
@<TRIPOS>ATOM
       1    N1      19.274097   20.494374   21.938997 N.4        1 MOL1        -0.5937
       2    H1      20.211425   20.793289   22.219963 H          1 MOL1         0.3684
       3    H2      18.601077   21.029438   22.493227 H          1 MOL1         0.3684
       4    H3      19.147674   20.764567   20.959938 H          1 MOL1         0.3684
       5    C1      19.092146   19.013061   22.130785 C.3        1 MOL1         0.1270
       6    H4      19.842971   18.520251   21.505862 H          1 MOL1         0.0960
       7    C2      17.701826   18.569567   21.647219 C.3        1 MOL1        -0.2382
       8    H5      17.551263   18.842074   20.595407 H          1 MOL1         0.1009
       9    H6      16.906394   19.039343   22.239125 H          1 MOL1         0.1009
      10    H7      17.590059   17.481155   21.727778 H          1 MOL1         0.1009
      11    C3      19.317491   18.574633   23.595703 C.3        1 MOL1        -0.1392
      12    H8      18.561942   19.046809   24.237598 H          1 MOL1         0.0998
      13    H9      19.152518   17.491766   23.673873 H          1 MOL1         0.0998
      14    C4      20.728055   18.903322   24.147219 C.3        1 MOL1        -0.1302
      15    H10     20.788140   18.559130   25.189247 H          1 MOL1         0.0998
      16    H11     20.879528   19.990780   24.179755 H          1 MOL1         0.0998
      17    C5      21.865257   18.242333   23.335287 C.3        1 MOL1        -0.2317
      18    H12     21.735244   17.153242   23.288828 H          1 MOL1         0.1009
      19    H13     22.838152   18.443268   23.802373 H          1 MOL1         0.1009
      20    H14     21.906098   18.626732   22.308416 H          1 MOL1         0.1009
@<TRIPOS>BOND
    1     1     2    1
    2     1     3    1
    3     1     4    1
    4     1     5    1
    5     5     6    1
    6     5     7    1
    7     7     8    1
    8     7     9    1
    9     7    10    1
   10     5    11    1
   11    11    12    1
   12    11    13    1
   13    11    14    1
   14    14    15    1
   15    14    16    1
   16    14    17    1
   17    17    18    1
   18    17    19    1
   19    17    20    1
@<TRIPOS>SUBSTRUCTURE
       1 MOL1            1 RESIDUE      1      MOL     
@<SCITEGIC>MOL_PROPERTY
VConf Rank
SciTegic.value.IntegerValue
586

@<SCITEGIC>MOL_PROPERTY
Conf_Id
SciTegic.value.IntegerValue
50

@<SCITEGIC>MOL_PROPERTY
Delta U+W
SciTegic.value.DoubleValue
0.466

@<SCITEGIC>MOL_PROPERTY
U+W
SciTegic.value.DoubleValue
-35.811

@<SCITEGIC>MOL_PROPERTY
Grad RMS
SciTegic.value.DoubleValue
0.000000

@<SCITEGIC>MOL_PROPERTY
U
SciTegic.value.DoubleValue
22.369

@<SCITEGIC>MOL_PROPERTY
W
SciTegic.value.DoubleValue
-58.180

@<SCITEGIC>MOL_PROPERTY
W(PB)
SciTegic.value.DoubleValue
-60.103

@<SCITEGIC>MOL_PROPERTY
W(SA)
SciTegic.value.DoubleValue
1.923

@<SCITEGIC>MOL_PROPERTY
Valence
SciTegic.value.DoubleValue
2.168

@<SCITEGIC>MOL_PROPERTY
Coulomb
SciTegic.value.DoubleValue
19.636

@<SCITEGIC>MOL_PROPERTY
VdW
SciTegic.value.DoubleValue
0.566

@<SCITEGIC>MOL_PROPERTY
VdW6
SciTegic.value.DoubleValue
-5.263

@<SCITEGIC>MOL_PROPERTY
VdW12
SciTegic.value.DoubleValue
5.829

@<SCITEGIC>MOL_PROPERTY
Bond
SciTegic.value.DoubleValue
0.162

@<SCITEGIC>MOL_PROPERTY
Angle
SciTegic.value.DoubleValue
1.066

@<SCITEGIC>MOL_PROPERTY
Pdih
SciTegic.value.DoubleValue
0.939

@<SCITEGIC>MOL_PROPERTY
Idih
SciTegic.value.DoubleValue
0.000

@<SCITEGIC>MOL_PROPERTY
Tether
SciTegic.value.DoubleValue
0.000

@<TRIPOS>MOLECULE
guest-s10_confgen4.mol2 : confsearch ligand conformer 587
          20          19           1
SMALL
USER_CHARGES
 
@<TRIPOS>ATOM
       1    N1      20.921133   20.849776   22.697636 N.4        1 MOL1        -0.5937
       2    H1      21.807630   20.614570   23.152385 H          1 MOL1         0.3684
       3    H2      20.436097   21.520843   23.298703 H          1 MOL1         0.3684
       4    H3      21.148377   21.332590   21.824146 H          1 MOL1         0.3684
       5    C1      20.083300   19.624918   22.447956 C.3        1 MOL1         0.1270
       6    H4      20.681963   18.972152   21.805101 H          1 MOL1         0.0960
       7    C2      18.795626   20.011609   21.696739 C.3        1 MOL1        -0.2382
       8    H5      18.186115   20.705781   22.288592 H          1 MOL1         0.1009
       9    H6      18.181349   19.133154   21.471417 H          1 MOL1         0.1009
      10    H7      19.035910   20.499598   20.744238 H          1 MOL1         0.1009
      11    C3      19.774134   18.859032   23.757943 C.3        1 MOL1        -0.1392
      12    H8      20.471074   19.188446   24.539886 H          1 MOL1         0.0998
      13    H9      18.772678   19.118197   24.126634 H          1 MOL1         0.0998
      14    C4      19.914577   17.320667   23.633484 C.3        1 MOL1        -0.1302
      15    H10     19.754095   16.872493   24.624099 H          1 MOL1         0.0998
      16    H11     20.945372   17.067835   23.347796 H          1 MOL1         0.0998
      17    C5      18.932202   16.675180   22.631226 C.3        1 MOL1        -0.2317
      18    H12     17.893895   16.944400   22.864608 H          1 MOL1         0.1009
      19    H13     19.010433   15.580864   22.668556 H          1 MOL1         0.1009
      20    H14     19.149718   16.983939   21.601185 H          1 MOL1         0.1009
@<TRIPOS>BOND
    1     1     2    1
    2     1     3    1
    3     1     4    1
    4     1     5    1
    5     5     6    1
    6     5     7    1
    7     7     8    1
    8     7     9    1
    9     7    10    1
   10     5    11    1
   11    11    12    1
   12    11    13    1
   13    11    14    1
   14    14    15    1
   15    14    16    1
   16    14    17    1
   17    17    18    1
   18    17    19    1
   19    17    20    1
@<TRIPOS>SUBSTRUCTURE
       1 MOL1            1 RESIDUE      1      MOL     
@<SCITEGIC>MOL_PROPERTY
VConf Rank
SciTegic.value.IntegerValue
587

@<SCITEGIC>MOL_PROPERTY
Conf_Id
SciTegic.value.IntegerValue
3

@<SCITEGIC>MOL_PROPERTY
Delta U+W
SciTegic.value.DoubleValue
3.093

@<SCITEGIC>MOL_PROPERTY
U+W
SciTegic.value.DoubleValue
-33.184

@<SCITEGIC>MOL_PROPERTY
Grad RMS
SciTegic.value.DoubleValue
0.000000

@<SCITEGIC>MOL_PROPERTY
U
SciTegic.value.DoubleValue
25.256

@<SCITEGIC>MOL_PROPERTY
W
SciTegic.value.DoubleValue
-58.439

@<SCITEGIC>MOL_PROPERTY
W(PB)
SciTegic.value.DoubleValue
-60.337

@<SCITEGIC>MOL_PROPERTY
W(SA)
SciTegic.value.DoubleValue
1.898

@<SCITEGIC>MOL_PROPERTY
Valence
SciTegic.value.DoubleValue
4.963

@<SCITEGIC>MOL_PROPERTY
Coulomb
SciTegic.value.DoubleValue
19.511

@<SCITEGIC>MOL_PROPERTY
VdW
SciTegic.value.DoubleValue
0.782

@<SCITEGIC>MOL_PROPERTY
VdW6
SciTegic.value.DoubleValue
-5.429

@<SCITEGIC>MOL_PROPERTY
VdW12
SciTegic.value.DoubleValue
6.211

@<SCITEGIC>MOL_PROPERTY
Bond
SciTegic.value.DoubleValue
0.174

@<SCITEGIC>MOL_PROPERTY
Angle
SciTegic.value.DoubleValue
1.377

@<SCITEGIC>MOL_PROPERTY
Pdih
SciTegic.value.DoubleValue
3.412

@<SCITEGIC>MOL_PROPERTY
Idih
SciTegic.value.DoubleValue
0.000

@<SCITEGIC>MOL_PROPERTY
Tether
SciTegic.value.DoubleValue
0.000

@<TRIPOS>MOLECULE
guest-s10_confgen4.mol2 : confsearch ligand conformer 588
          20          19           1
SMALL
USER_CHARGES
 
@<TRIPOS>ATOM
       1    N1      17.580106   18.540443   23.569291 N.4        1 MOL1        -0.5937
       2    H1      16.876498   18.004550   23.054132 H          1 MOL1         0.3684
       3    H2      17.199418   19.479758   23.712802 H          1 MOL1         0.3684
       4    H3      17.678814   18.105933   24.490237 H          1 MOL1         0.3684
       5    C1      18.891174   18.579020   22.833088 C.3        1 MOL1         0.1270
       6    H4      18.686974   19.052232   21.867961 H          1 MOL1         0.0960
       7    C2      19.402813   17.150073   22.575333 C.3        1 MOL1        -0.2382
       8    H5      20.282152   17.154515   21.920903 H          1 MOL1         0.1009
       9    H6      18.632430   16.547045   22.079348 H          1 MOL1         0.1009
      10    H7      19.674656   16.650344   23.513342 H          1 MOL1         0.1009
      11    C3      19.931504   19.441568   23.586847 C.3        1 MOL1        -0.1392
      12    H8      19.481741   20.417565   23.811945 H          1 MOL1         0.0998
      13    H9      20.153532   18.977794   24.557080 H          1 MOL1         0.0998
      14    C4      21.259840   19.681173   22.824472 C.3        1 MOL1        -0.1302
      15    H10     21.803826   18.735337   22.698989 H          1 MOL1         0.0998
      16    H11     21.908209   20.320573   23.439797 H          1 MOL1         0.0998
      17    C5      21.055452   20.353092   21.447554 C.3        1 MOL1        -0.2317
      18    H12     20.510365   21.300744   21.547519 H          1 MOL1         0.1009
      19    H13     20.495109   19.705133   20.761822 H          1 MOL1         0.1009
      20    H14     22.023696   20.571574   20.978740 H          1 MOL1         0.1009
@<TRIPOS>BOND
    1     1     2    1
    2     1     3    1
    3     1     4    1
    4     1     5    1
    5     5     6    1
    6     5     7    1
    7     7     8    1
    8     7     9    1
    9     7    10    1
   10     5    11    1
   11    11    12    1
   12    11    13    1
   13    11    14    1
   14    14    15    1
   15    14    16    1
   16    14    17    1
   17    17    18    1
   18    17    19    1
   19    17    20    1
@<TRIPOS>SUBSTRUCTURE
       1 MOL1            1 RESIDUE      1      MOL     
@<SCITEGIC>MOL_PROPERTY
VConf Rank
SciTegic.value.IntegerValue
588

@<SCITEGIC>MOL_PROPERTY
Conf_Id
SciTegic.value.IntegerValue
64

@<SCITEGIC>MOL_PROPERTY
Delta U+W
SciTegic.value.DoubleValue
0.544

@<SCITEGIC>MOL_PROPERTY
U+W
SciTegic.value.DoubleValue
-35.732

@<SCITEGIC>MOL_PROPERTY
Grad RMS
SciTegic.value.DoubleValue
0.000000

@<SCITEGIC>MOL_PROPERTY
U
SciTegic.value.DoubleValue
22.800

@<SCITEGIC>MOL_PROPERTY
W
SciTegic.value.DoubleValue
-58.532

@<SCITEGIC>MOL_PROPERTY
W(PB)
SciTegic.value.DoubleValue
-60.437

@<SCITEGIC>MOL_PROPERTY
W(SA)
SciTegic.value.DoubleValue
1.905

@<SCITEGIC>MOL_PROPERTY
Valence
SciTegic.value.DoubleValue
2.662

@<SCITEGIC>MOL_PROPERTY
Coulomb
SciTegic.value.DoubleValue
19.485

@<SCITEGIC>MOL_PROPERTY
VdW
SciTegic.value.DoubleValue
0.653

@<SCITEGIC>MOL_PROPERTY
VdW6
SciTegic.value.DoubleValue
-5.460

@<SCITEGIC>MOL_PROPERTY
VdW12
SciTegic.value.DoubleValue
6.113

@<SCITEGIC>MOL_PROPERTY
Bond
SciTegic.value.DoubleValue
0.174

@<SCITEGIC>MOL_PROPERTY
Angle
SciTegic.value.DoubleValue
1.378

@<SCITEGIC>MOL_PROPERTY
Pdih
SciTegic.value.DoubleValue
1.109

@<SCITEGIC>MOL_PROPERTY
Idih
SciTegic.value.DoubleValue
0.000

@<SCITEGIC>MOL_PROPERTY
Tether
SciTegic.value.DoubleValue
0.000

@<TRIPOS>MOLECULE
guest-s10_confgen4.mol2 : confsearch ligand conformer 589
          20          19           1
SMALL
USER_CHARGES
 
@<TRIPOS>ATOM
       1    N1      19.118543   17.126499   21.803954 N.4        1 MOL1        -0.5937
       2    H1      19.699767   17.526976   21.064312 H          1 MOL1         0.3684
       3    H2      18.237547   16.831594   21.374431 H          1 MOL1         0.3684
       4    H3      19.589082   16.282480   22.141423 H          1 MOL1         0.3684
       5    C1      18.885359   18.112829   22.916434 C.3        1 MOL1         0.1270
       6    H4      18.250607   17.598060   23.644490 H          1 MOL1         0.0960
       7    C2      18.103811   19.335974   22.409655 C.3        1 MOL1        -0.2382
       8    H5      18.622032   19.827160   21.577855 H          1 MOL1         0.1009
       9    H6      17.959794   20.068454   23.213440 H          1 MOL1         0.1009
      10    H7      17.111460   19.034974   22.052432 H          1 MOL1         0.1009
      11    C3      20.195714   18.494514   23.650074 C.3        1 MOL1        -0.1392
      12    H8      19.953221   19.071094   24.552432 H          1 MOL1         0.0998
      13    H9      20.649385   17.564145   24.016240 H          1 MOL1         0.0998
      14    C4      21.257681   19.255348   22.808301 C.3        1 MOL1        -0.1302
      15    H10     21.205492   18.960120   21.752130 H          1 MOL1         0.0998
      16    H11     22.255717   18.951965   23.154515 H          1 MOL1         0.0998
      17    C5      21.161514   20.793883   22.936403 C.3        1 MOL1        -0.2317
      18    H12     20.205555   21.180818   22.567080 H          1 MOL1         0.1009
      19    H13     21.959201   21.277175   22.357535 H          1 MOL1         0.1009
      20    H14     21.273131   21.108882   23.982042 H          1 MOL1         0.1009
@<TRIPOS>BOND
    1     1     2    1
    2     1     3    1
    3     1     4    1
    4     1     5    1
    5     5     6    1
    6     5     7    1
    7     7     8    1
    8     7     9    1
    9     7    10    1
   10     5    11    1
   11    11    12    1
   12    11    13    1
   13    11    14    1
   14    14    15    1
   15    14    16    1
   16    14    17    1
   17    17    18    1
   18    17    19    1
   19    17    20    1
@<TRIPOS>SUBSTRUCTURE
       1 MOL1            1 RESIDUE      1      MOL     
@<SCITEGIC>MOL_PROPERTY
VConf Rank
SciTegic.value.IntegerValue
589

@<SCITEGIC>MOL_PROPERTY
Conf_Id
SciTegic.value.IntegerValue
35

@<SCITEGIC>MOL_PROPERTY
Delta U+W
SciTegic.value.DoubleValue
3.004

@<SCITEGIC>MOL_PROPERTY
U+W
SciTegic.value.DoubleValue
-33.272

@<SCITEGIC>MOL_PROPERTY
Grad RMS
SciTegic.value.DoubleValue
0.000000

@<SCITEGIC>MOL_PROPERTY
U
SciTegic.value.DoubleValue
25.367

@<SCITEGIC>MOL_PROPERTY
W
SciTegic.value.DoubleValue
-58.639

@<SCITEGIC>MOL_PROPERTY
W(PB)
SciTegic.value.DoubleValue
-60.512

@<SCITEGIC>MOL_PROPERTY
W(SA)
SciTegic.value.DoubleValue
1.873

@<SCITEGIC>MOL_PROPERTY
Valence
SciTegic.value.DoubleValue
4.943

@<SCITEGIC>MOL_PROPERTY
Coulomb
SciTegic.value.DoubleValue
19.661

@<SCITEGIC>MOL_PROPERTY
VdW
SciTegic.value.DoubleValue
0.764

@<SCITEGIC>MOL_PROPERTY
VdW6
SciTegic.value.DoubleValue
-5.871

@<SCITEGIC>MOL_PROPERTY
VdW12
SciTegic.value.DoubleValue
6.636

@<SCITEGIC>MOL_PROPERTY
Bond
SciTegic.value.DoubleValue
0.230

@<SCITEGIC>MOL_PROPERTY
Angle
SciTegic.value.DoubleValue
1.857

@<SCITEGIC>MOL_PROPERTY
Pdih
SciTegic.value.DoubleValue
2.855

@<SCITEGIC>MOL_PROPERTY
Idih
SciTegic.value.DoubleValue
0.000

@<SCITEGIC>MOL_PROPERTY
Tether
SciTegic.value.DoubleValue
0.000

@<TRIPOS>MOLECULE
guest-s10_confgen4.mol2 : confsearch ligand conformer 590
          20          19           1
SMALL
USER_CHARGES
 
@<TRIPOS>ATOM
       1    N1      18.697708   19.637165   21.470514 N.4        1 MOL1        -0.5937
       2    H1      17.998010   20.380260   21.394129 H          1 MOL1         0.3684
       3    H2      18.540256   18.989515   20.693765 H          1 MOL1         0.3684
       4    H3      19.616954   20.061632   21.333352 H          1 MOL1         0.3684
       5    C1      18.614778   18.935270   22.798267 C.3        1 MOL1         0.1270
       6    H4      17.611573   18.499003   22.832597 H          1 MOL1         0.0960
       7    C2      18.721630   19.930605   23.967199 C.3        1 MOL1        -0.2382
       8    H5      19.670287   20.480045   23.945766 H          1 MOL1         0.1009
       9    H6      18.647032   19.409545   24.929671 H          1 MOL1         0.1009
      10    H7      17.907864   20.664603   23.922492 H          1 MOL1         0.1009
      11    C3      19.618726   17.761170   22.928226 C.3        1 MOL1        -0.1392
      12    H8      19.284411   17.128791   23.761217 H          1 MOL1         0.0998
      13    H9      19.543120   17.128276   22.034388 H          1 MOL1         0.0998
      14    C4      21.110321   18.122508   23.175566 C.3        1 MOL1        -0.1302
      15    H10     21.672300   17.184753   23.287902 H          1 MOL1         0.0998
      16    H11     21.221100   18.648469   24.133545 H          1 MOL1         0.0998
      17    C5      21.769193   18.950354   22.048853 C.3        1 MOL1        -0.2317
      18    H12     21.599954   18.491278   21.066128 H          1 MOL1         0.1009
      19    H13     22.854129   19.009321   22.205714 H          1 MOL1         0.1009
      20    H14     21.391263   19.978980   22.029780 H          1 MOL1         0.1009
@<TRIPOS>BOND
    1     1     2    1
    2     1     3    1
    3     1     4    1
    4     1     5    1
    5     5     6    1
    6     5     7    1
    7     7     8    1
    8     7     9    1
    9     7    10    1
   10     5    11    1
   11    11    12    1
   12    11    13    1
   13    11    14    1
   14    14    15    1
   15    14    16    1
   16    14    17    1
   17    17    18    1
   18    17    19    1
   19    17    20    1
@<TRIPOS>SUBSTRUCTURE
       1 MOL1            1 RESIDUE      1      MOL     
@<SCITEGIC>MOL_PROPERTY
VConf Rank
SciTegic.value.IntegerValue
590

@<SCITEGIC>MOL_PROPERTY
Conf_Id
SciTegic.value.IntegerValue
55

@<SCITEGIC>MOL_PROPERTY
Delta U+W
SciTegic.value.DoubleValue
2.767

@<SCITEGIC>MOL_PROPERTY
U+W
SciTegic.value.DoubleValue
-33.509

@<SCITEGIC>MOL_PROPERTY
Grad RMS
SciTegic.value.DoubleValue
0.000000

@<SCITEGIC>MOL_PROPERTY
U
SciTegic.value.DoubleValue
24.552

@<SCITEGIC>MOL_PROPERTY
W
SciTegic.value.DoubleValue
-58.061

@<SCITEGIC>MOL_PROPERTY
W(PB)
SciTegic.value.DoubleValue
-59.930

@<SCITEGIC>MOL_PROPERTY
W(SA)
SciTegic.value.DoubleValue
1.869

@<SCITEGIC>MOL_PROPERTY
Valence
SciTegic.value.DoubleValue
3.726

@<SCITEGIC>MOL_PROPERTY
Coulomb
SciTegic.value.DoubleValue
20.219

@<SCITEGIC>MOL_PROPERTY
VdW
SciTegic.value.DoubleValue
0.606

@<SCITEGIC>MOL_PROPERTY
VdW6
SciTegic.value.DoubleValue
-6.395

@<SCITEGIC>MOL_PROPERTY
VdW12
SciTegic.value.DoubleValue
7.001

@<SCITEGIC>MOL_PROPERTY
Bond
SciTegic.value.DoubleValue
0.241

@<SCITEGIC>MOL_PROPERTY
Angle
SciTegic.value.DoubleValue
2.098

@<SCITEGIC>MOL_PROPERTY
Pdih
SciTegic.value.DoubleValue
1.387

@<SCITEGIC>MOL_PROPERTY
Idih
SciTegic.value.DoubleValue
0.000

@<SCITEGIC>MOL_PROPERTY
Tether
SciTegic.value.DoubleValue
0.000

@<TRIPOS>MOLECULE
guest-s10_confgen4.mol2 : confsearch ligand conformer 591
          20          19           1
SMALL
USER_CHARGES
 
@<TRIPOS>ATOM
       1    N1      19.798786   20.327460   21.303274 N.4        1 MOL1        -0.5937
       2    H1      20.205290   21.081015   21.863144 H          1 MOL1         0.3684
       3    H2      19.286401   20.762929   20.531597 H          1 MOL1         0.3684
       4    H3      20.571818   19.797262   20.893525 H          1 MOL1         0.3684
       5    C1      18.902752   19.446657   22.131748 C.3        1 MOL1         0.1270
       6    H4      18.516692   18.671685   21.462223 H          1 MOL1         0.0960
       7    C2      17.710045   20.249589   22.676468 C.3        1 MOL1        -0.2382
       8    H5      17.147395   20.713632   21.857106 H          1 MOL1         0.1009
       9    H6      18.042946   21.044454   23.355555 H          1 MOL1         0.1009
      10    H7      17.019446   19.597953   23.226089 H          1 MOL1         0.1009
      11    C3      19.656498   18.753606   23.288336 C.3        1 MOL1        -0.1392
      12    H8      20.075074   19.511632   23.963692 H          1 MOL1         0.0998
      13    H9      18.938258   18.170197   23.879803 H          1 MOL1         0.0998
      14    C4      20.781869   17.810528   22.798780 C.3        1 MOL1        -0.1302
      15    H10     21.544063   18.381010   22.251025 H          1 MOL1         0.0998
      16    H11     20.368179   17.074490   22.094969 H          1 MOL1         0.0998
      17    C5      21.456811   17.070702   23.973690 C.3        1 MOL1        -0.2317
      18    H12     21.907250   17.779846   24.680426 H          1 MOL1         0.1009
      19    H13     22.252394   16.408095   23.608881 H          1 MOL1         0.1009
      20    H14     20.732039   16.455185   24.522395 H          1 MOL1         0.1009
@<TRIPOS>BOND
    1     1     2    1
    2     1     3    1
    3     1     4    1
    4     1     5    1
    5     5     6    1
    6     5     7    1
    7     7     8    1
    8     7     9    1
    9     7    10    1
   10     5    11    1
   11    11    12    1
   12    11    13    1
   13    11    14    1
   14    14    15    1
   15    14    16    1
   16    14    17    1
   17    17    18    1
   18    17    19    1
   19    17    20    1
@<TRIPOS>SUBSTRUCTURE
       1 MOL1            1 RESIDUE      1      MOL     
@<SCITEGIC>MOL_PROPERTY
VConf Rank
SciTegic.value.IntegerValue
591

@<SCITEGIC>MOL_PROPERTY
Conf_Id
SciTegic.value.IntegerValue
74

@<SCITEGIC>MOL_PROPERTY
Delta U+W
SciTegic.value.DoubleValue
0.000

@<SCITEGIC>MOL_PROPERTY
U+W
SciTegic.value.DoubleValue
-36.276

@<SCITEGIC>MOL_PROPERTY
Grad RMS
SciTegic.value.DoubleValue
0.000000

@<SCITEGIC>MOL_PROPERTY
U
SciTegic.value.DoubleValue
22.080

@<SCITEGIC>MOL_PROPERTY
W
SciTegic.value.DoubleValue
-58.356

@<SCITEGIC>MOL_PROPERTY
W(PB)
SciTegic.value.DoubleValue
-60.289

@<SCITEGIC>MOL_PROPERTY
W(SA)
SciTegic.value.DoubleValue
1.932

@<SCITEGIC>MOL_PROPERTY
Valence
SciTegic.value.DoubleValue
1.885

@<SCITEGIC>MOL_PROPERTY
Coulomb
SciTegic.value.DoubleValue
19.559

@<SCITEGIC>MOL_PROPERTY
VdW
SciTegic.value.DoubleValue
0.637

@<SCITEGIC>MOL_PROPERTY
VdW6
SciTegic.value.DoubleValue
-4.482

@<SCITEGIC>MOL_PROPERTY
VdW12
SciTegic.value.DoubleValue
5.119

@<SCITEGIC>MOL_PROPERTY
Bond
SciTegic.value.DoubleValue
0.136

@<SCITEGIC>MOL_PROPERTY
Angle
SciTegic.value.DoubleValue
0.867

@<SCITEGIC>MOL_PROPERTY
Pdih
SciTegic.value.DoubleValue
0.882

@<SCITEGIC>MOL_PROPERTY
Idih
SciTegic.value.DoubleValue
0.000

@<SCITEGIC>MOL_PROPERTY
Tether
SciTegic.value.DoubleValue
0.000

@<TRIPOS>MOLECULE
guest-s10_confgen4.mol2 : confsearch ligand conformer 592
          20          19           1
SMALL
USER_CHARGES
 
@<TRIPOS>ATOM
       1    N1      20.273482   18.875750   20.390051 N.4        1 MOL1        -0.5937
       2    H1      19.857933   17.985470   20.102686 H          1 MOL1         0.3684
       3    H2      21.282222   18.728952   20.477345 H          1 MOL1         0.3684
       4    H3      20.127794   19.538418   19.623679 H          1 MOL1         0.3684
       5    C1      19.674991   19.379312   21.674847 C.3        1 MOL1         0.1270
       6    H4      18.604628   19.508368   21.486349 H          1 MOL1         0.0960
       7    C2      20.272813   20.750189   22.041052 C.3        1 MOL1        -0.2382
       8    H5      20.185276   21.447303   21.198680 H          1 MOL1         0.1009
       9    H6      21.335020   20.663572   22.301422 H          1 MOL1         0.1009
      10    H7      19.746374   21.201544   22.889794 H          1 MOL1         0.1009
      11    C3      19.844300   18.346518   22.813337 C.3        1 MOL1        -0.1392
      12    H8      19.498537   17.369602   22.450369 H          1 MOL1         0.0998
      13    H9      20.909946   18.229880   23.051336 H          1 MOL1         0.0998
      14    C4      19.058008   18.699052   24.099659 C.3        1 MOL1        -0.1302
      15    H10     18.002292   18.877823   23.851517 H          1 MOL1         0.0998
      16    H11     19.443749   19.628314   24.539634 H          1 MOL1         0.0998
      17    C5      19.152541   17.573055   25.151741 C.3        1 MOL1        -0.2317
      18    H12     18.735873   16.633869   24.765018 H          1 MOL1         0.1009
      19    H13     18.593221   17.840874   26.057568 H          1 MOL1         0.1009
      20    H14     20.195456   17.390374   25.441937 H          1 MOL1         0.1009
@<TRIPOS>BOND
    1     1     2    1
    2     1     3    1
    3     1     4    1
    4     1     5    1
    5     5     6    1
    6     5     7    1
    7     7     8    1
    8     7     9    1
    9     7    10    1
   10     5    11    1
   11    11    12    1
   12    11    13    1
   13    11    14    1
   14    14    15    1
   15    14    16    1
   16    14    17    1
   17    17    18    1
   18    17    19    1
   19    17    20    1
@<TRIPOS>SUBSTRUCTURE
       1 MOL1            1 RESIDUE      1      MOL     
@<SCITEGIC>MOL_PROPERTY
VConf Rank
SciTegic.value.IntegerValue
592

@<SCITEGIC>MOL_PROPERTY
Conf_Id
SciTegic.value.IntegerValue
80

@<SCITEGIC>MOL_PROPERTY
Delta U+W
SciTegic.value.DoubleValue
0.460

@<SCITEGIC>MOL_PROPERTY
U+W
SciTegic.value.DoubleValue
-35.817

@<SCITEGIC>MOL_PROPERTY
Grad RMS
SciTegic.value.DoubleValue
0.000000

@<SCITEGIC>MOL_PROPERTY
U
SciTegic.value.DoubleValue
22.495

@<SCITEGIC>MOL_PROPERTY
W
SciTegic.value.DoubleValue
-58.311

@<SCITEGIC>MOL_PROPERTY
W(PB)
SciTegic.value.DoubleValue
-60.259

@<SCITEGIC>MOL_PROPERTY
W(SA)
SciTegic.value.DoubleValue
1.948

@<SCITEGIC>MOL_PROPERTY
Valence
SciTegic.value.DoubleValue
2.419

@<SCITEGIC>MOL_PROPERTY
Coulomb
SciTegic.value.DoubleValue
19.304

@<SCITEGIC>MOL_PROPERTY
VdW
SciTegic.value.DoubleValue
0.772

@<SCITEGIC>MOL_PROPERTY
VdW6
SciTegic.value.DoubleValue
-4.635

@<SCITEGIC>MOL_PROPERTY
VdW12
SciTegic.value.DoubleValue
5.407

@<SCITEGIC>MOL_PROPERTY
Bond
SciTegic.value.DoubleValue
0.149

@<SCITEGIC>MOL_PROPERTY
Angle
SciTegic.value.DoubleValue
1.142

@<SCITEGIC>MOL_PROPERTY
Pdih
SciTegic.value.DoubleValue
1.129

@<SCITEGIC>MOL_PROPERTY
Idih
SciTegic.value.DoubleValue
0.000

@<SCITEGIC>MOL_PROPERTY
Tether
SciTegic.value.DoubleValue
0.000

@<TRIPOS>MOLECULE
guest-s10_confgen4.mol2 : confsearch ligand conformer 593
          20          19           1
SMALL
USER_CHARGES
 
@<TRIPOS>ATOM
       1    N1      19.137516   20.142343   20.776838 N.4        1 MOL1        -0.5937
       2    H1      18.762280   19.531471   20.046191 H          1 MOL1         0.3684
       3    H2      20.098573   20.377225   20.516281 H          1 MOL1         0.3684
       4    H3      18.595279   21.010118   20.753177 H          1 MOL1         0.3684
       5    C1      19.076152   19.491377   22.131544 C.3        1 MOL1         0.1270
       6    H4      18.018853   19.284536   22.324247 H          1 MOL1         0.0960
       7    C2      19.577657   20.463940   23.212688 C.3        1 MOL1        -0.2382
       8    H5      19.076975   21.435671   23.122130 H          1 MOL1         0.1009
       9    H6      20.659066   20.628571   23.129597 H          1 MOL1         0.1009
      10    H7      19.358462   20.082194   24.216296 H          1 MOL1         0.1009
      11    C3      19.837525   18.143181   22.135213 C.3        1 MOL1        -0.1392
      12    H8      19.436924   17.536577   21.312266 H          1 MOL1         0.0998
      13    H9      20.897281   18.305267   21.897777 H          1 MOL1         0.0998
      14    C4      19.700394   17.316416   23.441084 C.3        1 MOL1        -0.1302
      15    H10     19.648703   16.250691   23.177123 H          1 MOL1         0.0998
      16    H11     18.750200   17.548436   23.942344 H          1 MOL1         0.0998
      17    C5      20.885283   17.507355   24.417104 C.3        1 MOL1        -0.2317
      18    H12     21.831251   17.205684   23.948857 H          1 MOL1         0.1009
      19    H13     20.747208   16.889869   25.314116 H          1 MOL1         0.1009
      20    H14     20.988253   18.548136   24.743775 H          1 MOL1         0.1009
@<TRIPOS>BOND
    1     1     2    1
    2     1     3    1
    3     1     4    1
    4     1     5    1
    5     5     6    1
    6     5     7    1
    7     7     8    1
    8     7     9    1
    9     7    10    1
   10     5    11    1
   11    11    12    1
   12    11    13    1
   13    11    14    1
   14    14    15    1
   15    14    16    1
   16    14    17    1
   17    17    18    1
   18    17    19    1
   19    17    20    1
@<TRIPOS>SUBSTRUCTURE
       1 MOL1            1 RESIDUE      1      MOL     
@<SCITEGIC>MOL_PROPERTY
VConf Rank
SciTegic.value.IntegerValue
593

@<SCITEGIC>MOL_PROPERTY
Conf_Id
SciTegic.value.IntegerValue
52

@<SCITEGIC>MOL_PROPERTY
Delta U+W
SciTegic.value.DoubleValue
2.995

@<SCITEGIC>MOL_PROPERTY
U+W
SciTegic.value.DoubleValue
-33.282

@<SCITEGIC>MOL_PROPERTY
Grad RMS
SciTegic.value.DoubleValue
0.000000

@<SCITEGIC>MOL_PROPERTY
U
SciTegic.value.DoubleValue
25.224

@<SCITEGIC>MOL_PROPERTY
W
SciTegic.value.DoubleValue
-58.506

@<SCITEGIC>MOL_PROPERTY
W(PB)
SciTegic.value.DoubleValue
-60.411

@<SCITEGIC>MOL_PROPERTY
W(SA)
SciTegic.value.DoubleValue
1.905

@<SCITEGIC>MOL_PROPERTY
Valence
SciTegic.value.DoubleValue
4.945

@<SCITEGIC>MOL_PROPERTY
Coulomb
SciTegic.value.DoubleValue
19.467

@<SCITEGIC>MOL_PROPERTY
VdW
SciTegic.value.DoubleValue
0.813

@<SCITEGIC>MOL_PROPERTY
VdW6
SciTegic.value.DoubleValue
-5.458

@<SCITEGIC>MOL_PROPERTY
VdW12
SciTegic.value.DoubleValue
6.270

@<SCITEGIC>MOL_PROPERTY
Bond
SciTegic.value.DoubleValue
0.200

@<SCITEGIC>MOL_PROPERTY
Angle
SciTegic.value.DoubleValue
1.675

@<SCITEGIC>MOL_PROPERTY
Pdih
SciTegic.value.DoubleValue
3.070

@<SCITEGIC>MOL_PROPERTY
Idih
SciTegic.value.DoubleValue
0.000

@<SCITEGIC>MOL_PROPERTY
Tether
SciTegic.value.DoubleValue
0.000

@<TRIPOS>MOLECULE
guest-s10_confgen4.mol2 : confsearch ligand conformer 594
          20          19           1
SMALL
USER_CHARGES
 
@<TRIPOS>ATOM
       1    N1      18.429145   18.364466   22.062920 N.4        1 MOL1        -0.5937
       2    H1      18.314722   17.460574   22.527962 H          1 MOL1         0.3684
       3    H2      17.922051   18.318198   21.175021 H          1 MOL1         0.3684
       4    H3      17.969691   19.068186   22.644869 H          1 MOL1         0.3684
       5    C1      19.882102   18.693278   21.853044 C.3        1 MOL1         0.1270
       6    H4      19.922493   19.643352   21.311323 H          1 MOL1         0.0960
       7    C2      20.540244   17.612737   20.978378 C.3        1 MOL1        -0.2382
       8    H5      20.540579   16.638746   21.483552 H          1 MOL1         0.1009
       9    H6      21.579149   17.877330   20.745328 H          1 MOL1         0.1009
      10    H7      20.005670   17.504109   20.026661 H          1 MOL1         0.1009
      11    C3      20.657775   18.858042   23.181735 C.3        1 MOL1        -0.1392
      12    H8      20.426371   18.023273   23.856409 H          1 MOL1         0.0998
      13    H9      21.732974   18.783576   22.970814 H          1 MOL1         0.0998
      14    C4      20.426898   20.210278   23.906140 C.3        1 MOL1        -0.1302
      15    H10     20.705667   21.039232   23.240440 H          1 MOL1         0.0998
      16    H11     21.117029   20.263204   24.759923 H          1 MOL1         0.0998
      17    C5      18.988910   20.429769   24.428844 C.3        1 MOL1        -0.2317
      18    H12     18.957143   21.301506   25.095443 H          1 MOL1         0.1009
      19    H13     18.634615   19.561919   25.000359 H          1 MOL1         0.1009
      20    H14     18.287168   20.628493   23.610611 H          1 MOL1         0.1009
@<TRIPOS>BOND
    1     1     2    1
    2     1     3    1
    3     1     4    1
    4     1     5    1
    5     5     6    1
    6     5     7    1
    7     7     8    1
    8     7     9    1
    9     7    10    1
   10     5    11    1
   11    11    12    1
   12    11    13    1
   13    11    14    1
   14    14    15    1
   15    14    16    1
   16    14    17    1
   17    17    18    1
   18    17    19    1
   19    17    20    1
@<TRIPOS>SUBSTRUCTURE
       1 MOL1            1 RESIDUE      1      MOL     
@<SCITEGIC>MOL_PROPERTY
VConf Rank
SciTegic.value.IntegerValue
594

@<SCITEGIC>MOL_PROPERTY
Conf_Id
SciTegic.value.IntegerValue
54

@<SCITEGIC>MOL_PROPERTY
Delta U+W
SciTegic.value.DoubleValue
2.752

@<SCITEGIC>MOL_PROPERTY
U+W
SciTegic.value.DoubleValue
-33.525

@<SCITEGIC>MOL_PROPERTY
Grad RMS
SciTegic.value.DoubleValue
0.000000

@<SCITEGIC>MOL_PROPERTY
U
SciTegic.value.DoubleValue
24.337

@<SCITEGIC>MOL_PROPERTY
W
SciTegic.value.DoubleValue
-57.862

@<SCITEGIC>MOL_PROPERTY
W(PB)
SciTegic.value.DoubleValue
-59.764

@<SCITEGIC>MOL_PROPERTY
W(SA)
SciTegic.value.DoubleValue
1.901

@<SCITEGIC>MOL_PROPERTY
Valence
SciTegic.value.DoubleValue
3.593

@<SCITEGIC>MOL_PROPERTY
Coulomb
SciTegic.value.DoubleValue
20.067

@<SCITEGIC>MOL_PROPERTY
VdW
SciTegic.value.DoubleValue
0.677

@<SCITEGIC>MOL_PROPERTY
VdW6
SciTegic.value.DoubleValue
-5.466

@<SCITEGIC>MOL_PROPERTY
VdW12
SciTegic.value.DoubleValue
6.144

@<SCITEGIC>MOL_PROPERTY
Bond
SciTegic.value.DoubleValue
0.191

@<SCITEGIC>MOL_PROPERTY
Angle
SciTegic.value.DoubleValue
1.557

@<SCITEGIC>MOL_PROPERTY
Pdih
SciTegic.value.DoubleValue
1.845

@<SCITEGIC>MOL_PROPERTY
Idih
SciTegic.value.DoubleValue
0.000

@<SCITEGIC>MOL_PROPERTY
Tether
SciTegic.value.DoubleValue
0.000

@<TRIPOS>MOLECULE
guest-s10_confgen4.mol2 : confsearch ligand conformer 595
          20          19           1
SMALL
USER_CHARGES
 
@<TRIPOS>ATOM
       1    N1      20.444064   18.239011   20.885088 N.4        1 MOL1        -0.5937
       2    H1      21.231476   18.253072   20.231300 H          1 MOL1         0.3684
       3    H2      19.593119   18.103069   20.332708 H          1 MOL1         0.3684
       4    H3      20.557609   17.416734   21.482094 H          1 MOL1         0.3684
       5    C1      20.380126   19.503915   21.697380 C.3        1 MOL1         0.1270
       6    H4      20.276766   20.321363   20.976882 H          1 MOL1         0.0960
       7    C2      21.691027   19.731032   22.471200 C.3        1 MOL1        -0.2382
       8    H5      21.639752   20.653063   23.063402 H          1 MOL1         0.1009
       9    H6      22.534221   19.829258   21.776606 H          1 MOL1         0.1009
      10    H7      21.911843   18.898431   23.149476 H          1 MOL1         0.1009
      11    C3      19.141668   19.551341   22.624216 C.3        1 MOL1        -0.1392
      12    H8      19.107205   20.531909   23.117203 H          1 MOL1         0.0998
      13    H9      18.239518   19.496039   22.000940 H          1 MOL1         0.0998
      14    C4      19.085822   18.435730   23.699687 C.3        1 MOL1        -0.1302
      15    H10     19.955519   18.506663   24.366477 H          1 MOL1         0.0998
      16    H11     19.128905   17.447112   23.223306 H          1 MOL1         0.0998
      17    C5      17.798753   18.529839   24.546990 C.3        1 MOL1        -0.2317
      18    H12     17.774367   17.735843   25.304646 H          1 MOL1         0.1009
      19    H13     16.903866   18.423762   23.919976 H          1 MOL1         0.1009
      20    H14     17.738451   19.494116   25.068294 H          1 MOL1         0.1009
@<TRIPOS>BOND
    1     1     2    1
    2     1     3    1
    3     1     4    1
    4     1     5    1
    5     5     6    1
    6     5     7    1
    7     7     8    1
    8     7     9    1
    9     7    10    1
   10     5    11    1
   11    11    12    1
   12    11    13    1
   13    11    14    1
   14    14    15    1
   15    14    16    1
   16    14    17    1
   17    17    18    1
   18    17    19    1
   19    17    20    1
@<TRIPOS>SUBSTRUCTURE
       1 MOL1            1 RESIDUE      1      MOL     
@<SCITEGIC>MOL_PROPERTY
VConf Rank
SciTegic.value.IntegerValue
595

@<SCITEGIC>MOL_PROPERTY
Conf_Id
SciTegic.value.IntegerValue
63

@<SCITEGIC>MOL_PROPERTY
Delta U+W
SciTegic.value.DoubleValue
0.420

@<SCITEGIC>MOL_PROPERTY
U+W
SciTegic.value.DoubleValue
-35.856

@<SCITEGIC>MOL_PROPERTY
Grad RMS
SciTegic.value.DoubleValue
0.000000

@<SCITEGIC>MOL_PROPERTY
U
SciTegic.value.DoubleValue
22.625

@<SCITEGIC>MOL_PROPERTY
W
SciTegic.value.DoubleValue
-58.481

@<SCITEGIC>MOL_PROPERTY
W(PB)
SciTegic.value.DoubleValue
-60.400

@<SCITEGIC>MOL_PROPERTY
W(SA)
SciTegic.value.DoubleValue
1.919

@<SCITEGIC>MOL_PROPERTY
Valence
SciTegic.value.DoubleValue
2.404

@<SCITEGIC>MOL_PROPERTY
Coulomb
SciTegic.value.DoubleValue
19.464

@<SCITEGIC>MOL_PROPERTY
VdW
SciTegic.value.DoubleValue
0.757

@<SCITEGIC>MOL_PROPERTY
VdW6
SciTegic.value.DoubleValue
-5.074

@<SCITEGIC>MOL_PROPERTY
VdW12
SciTegic.value.DoubleValue
5.830

@<SCITEGIC>MOL_PROPERTY
Bond
SciTegic.value.DoubleValue
0.172

@<SCITEGIC>MOL_PROPERTY
Angle
SciTegic.value.DoubleValue
1.207

@<SCITEGIC>MOL_PROPERTY
Pdih
SciTegic.value.DoubleValue
1.025

@<SCITEGIC>MOL_PROPERTY
Idih
SciTegic.value.DoubleValue
0.000

@<SCITEGIC>MOL_PROPERTY
Tether
SciTegic.value.DoubleValue
0.000

@<TRIPOS>MOLECULE
guest-s10_confgen4.mol2 : confsearch ligand conformer 596
          20          19           1
SMALL
USER_CHARGES
 
@<TRIPOS>ATOM
       1    N1      20.489458   18.757529   21.197658 N.4        1 MOL1        -0.5937
       2    H1      20.738781   19.745536   21.290148 H          1 MOL1         0.3684
       3    H2      19.797572   18.683309   20.447853 H          1 MOL1         0.3684
       4    H3      21.328290   18.257992   20.890468 H          1 MOL1         0.3684
       5    C1      19.960295   18.203585   22.492768 C.3        1 MOL1         0.1270
       6    H4      20.757475   18.318595   23.233312 H          1 MOL1         0.0960
       7    C2      19.648247   16.704526   22.355069 C.3        1 MOL1        -0.2382
       8    H5      20.539211   16.150087   22.035667 H          1 MOL1         0.1009
       9    H6      18.854538   16.529634   21.618053 H          1 MOL1         0.1009
      10    H7      19.321848   16.284649   23.314646 H          1 MOL1         0.1009
      11    C3      18.715603   18.968122   22.997950 C.3        1 MOL1        -0.1392
      12    H8      17.897665   18.850832   22.274727 H          1 MOL1         0.0998
      13    H9      18.367557   18.506649   23.931671 H          1 MOL1         0.0998
      14    C4      18.956704   20.478185   23.249898 C.3        1 MOL1        -0.1302
      15    H10     18.018621   20.931337   23.599980 H          1 MOL1         0.0998
      16    H11     19.203577   20.986045   22.307720 H          1 MOL1         0.0998
      17    C5      20.063778   20.749062   24.294110 C.3        1 MOL1        -0.2317
      18    H12     19.838625   20.250715   25.246023 H          1 MOL1         0.1009
      19    H13     20.150238   21.825289   24.492421 H          1 MOL1         0.1009
      20    H14     21.043272   20.397456   23.946459 H          1 MOL1         0.1009
@<TRIPOS>BOND
    1     1     2    1
    2     1     3    1
    3     1     4    1
    4     1     5    1
    5     5     6    1
    6     5     7    1
    7     7     8    1
    8     7     9    1
    9     7    10    1
   10     5    11    1
   11    11    12    1
   12    11    13    1
   13    11    14    1
   14    14    15    1
   15    14    16    1
   16    14    17    1
   17    17    18    1
   18    17    19    1
   19    17    20    1
@<TRIPOS>SUBSTRUCTURE
       1 MOL1            1 RESIDUE      1      MOL     
@<SCITEGIC>MOL_PROPERTY
VConf Rank
SciTegic.value.IntegerValue
596

@<SCITEGIC>MOL_PROPERTY
Conf_Id
SciTegic.value.IntegerValue
50

@<SCITEGIC>MOL_PROPERTY
Delta U+W
SciTegic.value.DoubleValue
0.466

@<SCITEGIC>MOL_PROPERTY
U+W
SciTegic.value.DoubleValue
-35.811

@<SCITEGIC>MOL_PROPERTY
Grad RMS
SciTegic.value.DoubleValue
0.000000

@<SCITEGIC>MOL_PROPERTY
U
SciTegic.value.DoubleValue
22.369

@<SCITEGIC>MOL_PROPERTY
W
SciTegic.value.DoubleValue
-58.180

@<SCITEGIC>MOL_PROPERTY
W(PB)
SciTegic.value.DoubleValue
-60.103

@<SCITEGIC>MOL_PROPERTY
W(SA)
SciTegic.value.DoubleValue
1.923

@<SCITEGIC>MOL_PROPERTY
Valence
SciTegic.value.DoubleValue
2.168

@<SCITEGIC>MOL_PROPERTY
Coulomb
SciTegic.value.DoubleValue
19.636

@<SCITEGIC>MOL_PROPERTY
VdW
SciTegic.value.DoubleValue
0.566

@<SCITEGIC>MOL_PROPERTY
VdW6
SciTegic.value.DoubleValue
-5.263

@<SCITEGIC>MOL_PROPERTY
VdW12
SciTegic.value.DoubleValue
5.829

@<SCITEGIC>MOL_PROPERTY
Bond
SciTegic.value.DoubleValue
0.162

@<SCITEGIC>MOL_PROPERTY
Angle
SciTegic.value.DoubleValue
1.066

@<SCITEGIC>MOL_PROPERTY
Pdih
SciTegic.value.DoubleValue
0.939

@<SCITEGIC>MOL_PROPERTY
Idih
SciTegic.value.DoubleValue
0.000

@<SCITEGIC>MOL_PROPERTY
Tether
SciTegic.value.DoubleValue
0.000

@<TRIPOS>MOLECULE
guest-s10_confgen4.mol2 : confsearch ligand conformer 597
          20          19           1
SMALL
USER_CHARGES
 
@<TRIPOS>ATOM
       1    N1      21.487925   19.443833   24.108672 N.4        1 MOL1        -0.5937
       2    H1      21.401745   20.453332   24.255240 H          1 MOL1         0.3684
       3    H2      22.332709   19.284998   23.553711 H          1 MOL1         0.3684
       4    H3      21.642128   19.017349   25.026314 H          1 MOL1         0.3684
       5    C1      20.268654   18.874745   23.434804 C.3        1 MOL1         0.1270
       6    H4      19.424576   19.094953   24.095715 H          1 MOL1         0.0960
       7    C2      20.405562   17.346553   23.301203 C.3        1 MOL1        -0.2382
       8    H5      21.271584   17.079918   22.682673 H          1 MOL1         0.1009
       9    H6      19.515758   16.900758   22.843705 H          1 MOL1         0.1009
      10    H7      20.537649   16.883012   24.286500 H          1 MOL1         0.1009
      11    C3      19.997398   19.547313   22.066482 C.3        1 MOL1        -0.1392
      12    H8      20.557056   20.490461   22.012363 H          1 MOL1         0.0998
      13    H9      20.386913   18.925459   21.249420 H          1 MOL1         0.0998
      14    C4      18.504945   19.881875   21.816614 C.3        1 MOL1        -0.1302
      15    H10     18.421529   20.422862   20.863563 H          1 MOL1         0.0998
      16    H11     18.148834   20.574249   22.592426 H          1 MOL1         0.0998
      17    C5      17.579410   18.646017   21.768905 C.3        1 MOL1        -0.2317
      18    H12     17.933417   17.913906   21.031530 H          1 MOL1         0.1009
      19    H13     16.560760   18.940740   21.485126 H          1 MOL1         0.1009
      20    H14     17.517127   18.153711   22.747365 H          1 MOL1         0.1009
@<TRIPOS>BOND
    1     1     2    1
    2     1     3    1
    3     1     4    1
    4     1     5    1
    5     5     6    1
    6     5     7    1
    7     7     8    1
    8     7     9    1
    9     7    10    1
   10     5    11    1
   11    11    12    1
   12    11    13    1
   13    11    14    1
   14    14    15    1
   15    14    16    1
   16    14    17    1
   17    17    18    1
   18    17    19    1
   19    17    20    1
@<TRIPOS>SUBSTRUCTURE
       1 MOL1            1 RESIDUE      1      MOL     
@<SCITEGIC>MOL_PROPERTY
VConf Rank
SciTegic.value.IntegerValue
597

@<SCITEGIC>MOL_PROPERTY
Conf_Id
SciTegic.value.IntegerValue
3

@<SCITEGIC>MOL_PROPERTY
Delta U+W
SciTegic.value.DoubleValue
3.093

@<SCITEGIC>MOL_PROPERTY
U+W
SciTegic.value.DoubleValue
-33.184

@<SCITEGIC>MOL_PROPERTY
Grad RMS
SciTegic.value.DoubleValue
0.000000

@<SCITEGIC>MOL_PROPERTY
U
SciTegic.value.DoubleValue
25.256

@<SCITEGIC>MOL_PROPERTY
W
SciTegic.value.DoubleValue
-58.439

@<SCITEGIC>MOL_PROPERTY
W(PB)
SciTegic.value.DoubleValue
-60.337

@<SCITEGIC>MOL_PROPERTY
W(SA)
SciTegic.value.DoubleValue
1.898

@<SCITEGIC>MOL_PROPERTY
Valence
SciTegic.value.DoubleValue
4.963

@<SCITEGIC>MOL_PROPERTY
Coulomb
SciTegic.value.DoubleValue
19.511

@<SCITEGIC>MOL_PROPERTY
VdW
SciTegic.value.DoubleValue
0.782

@<SCITEGIC>MOL_PROPERTY
VdW6
SciTegic.value.DoubleValue
-5.429

@<SCITEGIC>MOL_PROPERTY
VdW12
SciTegic.value.DoubleValue
6.211

@<SCITEGIC>MOL_PROPERTY
Bond
SciTegic.value.DoubleValue
0.174

@<SCITEGIC>MOL_PROPERTY
Angle
SciTegic.value.DoubleValue
1.377

@<SCITEGIC>MOL_PROPERTY
Pdih
SciTegic.value.DoubleValue
3.412

@<SCITEGIC>MOL_PROPERTY
Idih
SciTegic.value.DoubleValue
0.000

@<SCITEGIC>MOL_PROPERTY
Tether
SciTegic.value.DoubleValue
0.000

@<TRIPOS>MOLECULE
guest-s10_confgen4.mol2 : confsearch ligand conformer 598
          20          19           1
SMALL
USER_CHARGES
 
@<TRIPOS>ATOM
       1    N1      20.499675   19.417670   24.835918 N.4        1 MOL1        -0.5937
       2    H1      20.754122   18.696311   25.516017 H          1 MOL1         0.3684
       3    H2      19.759974   19.984736   25.259129 H          1 MOL1         0.3684
       4    H3      21.316422   20.021504   24.713478 H          1 MOL1         0.3684
       5    C1      20.058522   18.813506   23.531023 C.3        1 MOL1         0.1270
       6    H4      19.191216   18.187349   23.760812 H          1 MOL1         0.0960
       7    C2      21.167858   17.914940   22.954781 C.3        1 MOL1        -0.2382
       8    H5      20.814101   17.358332   22.079236 H          1 MOL1         0.1009
       9    H6      21.493228   17.177169   23.698395 H          1 MOL1         0.1009
      10    H7      22.042611   18.505877   22.656303 H          1 MOL1         0.1009
      11    C3      19.616907   19.906588   22.528738 C.3        1 MOL1        -0.1392
      12    H8      18.886897   20.561561   23.022319 H          1 MOL1         0.0998
      13    H9      20.477608   20.542065   22.281556 H          1 MOL1         0.0998
      14    C4      18.986084   19.375634   21.216010 C.3        1 MOL1        -0.1302
      15    H10     19.733154   18.824331   20.629303 H          1 MOL1         0.0998
      16    H11     18.690956   20.233354   20.595483 H          1 MOL1         0.0998
      17    C5      17.747825   18.482403   21.456852 C.3        1 MOL1        -0.2317
      18    H12     16.987028   19.012128   22.044846 H          1 MOL1         0.1009
      19    H13     18.013106   17.560367   21.989337 H          1 MOL1         0.1009
      20    H14     17.291015   18.192642   20.501666 H          1 MOL1         0.1009
@<TRIPOS>BOND
    1     1     2    1
    2     1     3    1
    3     1     4    1
    4     1     5    1
    5     5     6    1
    6     5     7    1
    7     7     8    1
    8     7     9    1
    9     7    10    1
   10     5    11    1
   11    11    12    1
   12    11    13    1
   13    11    14    1
   14    14    15    1
   15    14    16    1
   16    14    17    1
   17    17    18    1
   18    17    19    1
   19    17    20    1
@<TRIPOS>SUBSTRUCTURE
       1 MOL1            1 RESIDUE      1      MOL     
@<SCITEGIC>MOL_PROPERTY
VConf Rank
SciTegic.value.IntegerValue
598

@<SCITEGIC>MOL_PROPERTY
Conf_Id
SciTegic.value.IntegerValue
64

@<SCITEGIC>MOL_PROPERTY
Delta U+W
SciTegic.value.DoubleValue
0.544

@<SCITEGIC>MOL_PROPERTY
U+W
SciTegic.value.DoubleValue
-35.732

@<SCITEGIC>MOL_PROPERTY
Grad RMS
SciTegic.value.DoubleValue
0.000000

@<SCITEGIC>MOL_PROPERTY
U
SciTegic.value.DoubleValue
22.800

@<SCITEGIC>MOL_PROPERTY
W
SciTegic.value.DoubleValue
-58.532

@<SCITEGIC>MOL_PROPERTY
W(PB)
SciTegic.value.DoubleValue
-60.437

@<SCITEGIC>MOL_PROPERTY
W(SA)
SciTegic.value.DoubleValue
1.905

@<SCITEGIC>MOL_PROPERTY
Valence
SciTegic.value.DoubleValue
2.662

@<SCITEGIC>MOL_PROPERTY
Coulomb
SciTegic.value.DoubleValue
19.485

@<SCITEGIC>MOL_PROPERTY
VdW
SciTegic.value.DoubleValue
0.653

@<SCITEGIC>MOL_PROPERTY
VdW6
SciTegic.value.DoubleValue
-5.460

@<SCITEGIC>MOL_PROPERTY
VdW12
SciTegic.value.DoubleValue
6.113

@<SCITEGIC>MOL_PROPERTY
Bond
SciTegic.value.DoubleValue
0.174

@<SCITEGIC>MOL_PROPERTY
Angle
SciTegic.value.DoubleValue
1.378

@<SCITEGIC>MOL_PROPERTY
Pdih
SciTegic.value.DoubleValue
1.109

@<SCITEGIC>MOL_PROPERTY
Idih
SciTegic.value.DoubleValue
0.000

@<SCITEGIC>MOL_PROPERTY
Tether
SciTegic.value.DoubleValue
0.000

@<TRIPOS>MOLECULE
guest-s10_confgen4.mol2 : confsearch ligand conformer 599
          20          19           1
SMALL
USER_CHARGES
 
@<TRIPOS>ATOM
       1    N1      18.111653   19.738377   21.702282 N.4        1 MOL1        -0.5937
       2    H1      18.888569   20.138439   21.171598 H          1 MOL1         0.3684
       3    H2      17.461613   20.500186   21.913725 H          1 MOL1         0.3684
       4    H3      17.622462   19.084549   21.085143 H          1 MOL1         0.3684
       5    C1      18.592507   19.060989   22.957175 C.3        1 MOL1         0.1270
       6    H4      17.694889   18.679949   23.454221 H          1 MOL1         0.0960
       7    C2      19.249706   20.073571   23.909274 C.3        1 MOL1        -0.2382
       8    H5      20.082188   20.597710   23.425579 H          1 MOL1         0.1009
       9    H6      19.626788   19.574948   24.810675 H          1 MOL1         0.1009
      10    H7      18.520676   20.828740   24.227398 H          1 MOL1         0.1009
      11    C3      19.496196   17.838415   22.657846 C.3        1 MOL1        -0.1392
      12    H8      19.674495   17.281151   23.586912 H          1 MOL1         0.0998
      13    H9      18.922199   17.155257   22.018078 H          1 MOL1         0.0998
      14    C4      20.849801   18.140072   21.956431 C.3        1 MOL1        -0.1302
      15    H10     20.765976   19.019580   21.304650 H          1 MOL1         0.0998
      16    H11     21.090651   17.297906   21.292556 H          1 MOL1         0.0998
      17    C5      22.029948   18.317316   22.940598 C.3        1 MOL1        -0.2317
      18    H12     21.884513   19.170978   23.611482 H          1 MOL1         0.1009
      19    H13     22.965313   18.484783   22.391041 H          1 MOL1         0.1009
      20    H14     22.164473   17.420027   23.558512 H          1 MOL1         0.1009
@<TRIPOS>BOND
    1     1     2    1
    2     1     3    1
    3     1     4    1
    4     1     5    1
    5     5     6    1
    6     5     7    1
    7     7     8    1
    8     7     9    1
    9     7    10    1
   10     5    11    1
   11    11    12    1
   12    11    13    1
   13    11    14    1
   14    14    15    1
   15    14    16    1
   16    14    17    1
   17    17    18    1
   18    17    19    1
   19    17    20    1
@<TRIPOS>SUBSTRUCTURE
       1 MOL1            1 RESIDUE      1      MOL     
@<SCITEGIC>MOL_PROPERTY
VConf Rank
SciTegic.value.IntegerValue
599

@<SCITEGIC>MOL_PROPERTY
Conf_Id
SciTegic.value.IntegerValue
35

@<SCITEGIC>MOL_PROPERTY
Delta U+W
SciTegic.value.DoubleValue
3.004

@<SCITEGIC>MOL_PROPERTY
U+W
SciTegic.value.DoubleValue
-33.272

@<SCITEGIC>MOL_PROPERTY
Grad RMS
SciTegic.value.DoubleValue
0.000000

@<SCITEGIC>MOL_PROPERTY
U
SciTegic.value.DoubleValue
25.367

@<SCITEGIC>MOL_PROPERTY
W
SciTegic.value.DoubleValue
-58.639

@<SCITEGIC>MOL_PROPERTY
W(PB)
SciTegic.value.DoubleValue
-60.512

@<SCITEGIC>MOL_PROPERTY
W(SA)
SciTegic.value.DoubleValue
1.873

@<SCITEGIC>MOL_PROPERTY
Valence
SciTegic.value.DoubleValue
4.943

@<SCITEGIC>MOL_PROPERTY
Coulomb
SciTegic.value.DoubleValue
19.661

@<SCITEGIC>MOL_PROPERTY
VdW
SciTegic.value.DoubleValue
0.764

@<SCITEGIC>MOL_PROPERTY
VdW6
SciTegic.value.DoubleValue
-5.871

@<SCITEGIC>MOL_PROPERTY
VdW12
SciTegic.value.DoubleValue
6.636

@<SCITEGIC>MOL_PROPERTY
Bond
SciTegic.value.DoubleValue
0.230

@<SCITEGIC>MOL_PROPERTY
Angle
SciTegic.value.DoubleValue
1.857

@<SCITEGIC>MOL_PROPERTY
Pdih
SciTegic.value.DoubleValue
2.855

@<SCITEGIC>MOL_PROPERTY
Idih
SciTegic.value.DoubleValue
0.000

@<SCITEGIC>MOL_PROPERTY
Tether
SciTegic.value.DoubleValue
0.000

@<TRIPOS>MOLECULE
guest-s10_confgen4.mol2 : confsearch ligand conformer 600
          20          19           1
SMALL
USER_CHARGES
 
@<TRIPOS>ATOM
       1    N1      20.260217   17.263133   22.457674 N.4        1 MOL1        -0.5937
       2    H1      20.615116   16.664045   21.707513 H          1 MOL1         0.3684
       3    H2      19.869945   16.649978   23.178306 H          1 MOL1         0.3684
       4    H3      21.058580   17.749831   22.869668 H          1 MOL1         0.3684
       5    C1      19.233257   18.236575   21.947550 C.3        1 MOL1         0.1270
       6    H4      18.419095   17.619046   21.555471 H          1 MOL1         0.0960
       7    C2      19.782189   19.068955   20.775232 C.3        1 MOL1        -0.2382
       8    H5      20.665546   19.648463   21.068739 H          1 MOL1         0.1009
       9    H6      19.021064   19.765860   20.403166 H          1 MOL1         0.1009
      10    H7      20.070840   18.416168   19.942455 H          1 MOL1         0.1009
      11    C3      18.626023   19.120802   23.066800 C.3        1 MOL1        -0.1392
      12    H8      17.696439   19.557027   22.678057 H          1 MOL1         0.0998
      13    H9      18.318216   18.476784   23.900895 H          1 MOL1         0.0998
      14    C4      19.503292   20.282197   23.612837 C.3        1 MOL1        -0.1302
      15    H10     18.912470   20.831511   24.359167 H          1 MOL1         0.0998
      16    H11     19.716093   21.006536   22.814915 H          1 MOL1         0.0998
      17    C5      20.826197   19.835209   24.275444 C.3        1 MOL1        -0.2317
      18    H12     20.652572   19.047021   25.019591 H          1 MOL1         0.1009
      19    H13     21.297285   20.681773   24.791754 H          1 MOL1         0.1009
      20    H14     21.546173   19.470630   23.533835 H          1 MOL1         0.1009
@<TRIPOS>BOND
    1     1     2    1
    2     1     3    1
    3     1     4    1
    4     1     5    1
    5     5     6    1
    6     5     7    1
    7     7     8    1
    8     7     9    1
    9     7    10    1
   10     5    11    1
   11    11    12    1
   12    11    13    1
   13    11    14    1
   14    14    15    1
   15    14    16    1
   16    14    17    1
   17    17    18    1
   18    17    19    1
   19    17    20    1
@<TRIPOS>SUBSTRUCTURE
       1 MOL1            1 RESIDUE      1      MOL     
@<SCITEGIC>MOL_PROPERTY
VConf Rank
SciTegic.value.IntegerValue
600

@<SCITEGIC>MOL_PROPERTY
Conf_Id
SciTegic.value.IntegerValue
55

@<SCITEGIC>MOL_PROPERTY
Delta U+W
SciTegic.value.DoubleValue
2.767

@<SCITEGIC>MOL_PROPERTY
U+W
SciTegic.value.DoubleValue
-33.509

@<SCITEGIC>MOL_PROPERTY
Grad RMS
SciTegic.value.DoubleValue
0.000000

@<SCITEGIC>MOL_PROPERTY
U
SciTegic.value.DoubleValue
24.552

@<SCITEGIC>MOL_PROPERTY
W
SciTegic.value.DoubleValue
-58.061

@<SCITEGIC>MOL_PROPERTY
W(PB)
SciTegic.value.DoubleValue
-59.930

@<SCITEGIC>MOL_PROPERTY
W(SA)
SciTegic.value.DoubleValue
1.869

@<SCITEGIC>MOL_PROPERTY
Valence
SciTegic.value.DoubleValue
3.726

@<SCITEGIC>MOL_PROPERTY
Coulomb
SciTegic.value.DoubleValue
20.219

@<SCITEGIC>MOL_PROPERTY
VdW
SciTegic.value.DoubleValue
0.606

@<SCITEGIC>MOL_PROPERTY
VdW6
SciTegic.value.DoubleValue
-6.395

@<SCITEGIC>MOL_PROPERTY
VdW12
SciTegic.value.DoubleValue
7.001

@<SCITEGIC>MOL_PROPERTY
Bond
SciTegic.value.DoubleValue
0.241

@<SCITEGIC>MOL_PROPERTY
Angle
SciTegic.value.DoubleValue
2.098

@<SCITEGIC>MOL_PROPERTY
Pdih
SciTegic.value.DoubleValue
1.387

@<SCITEGIC>MOL_PROPERTY
Idih
SciTegic.value.DoubleValue
0.000

@<SCITEGIC>MOL_PROPERTY
Tether
SciTegic.value.DoubleValue
0.000

@<TRIPOS>MOLECULE
guest-s10_confgen4.mol2 : confsearch ligand conformer 601
          20          19           1
SMALL
USER_CHARGES
 
@<TRIPOS>ATOM
       1    N1      21.295335   19.630742   21.703369 N.4        1 MOL1        -0.5937
       2    H1      22.026889   19.268960   22.320207 H          1 MOL1         0.3684
       3    H2      21.689263   20.429142   21.198360 H          1 MOL1         0.3684
       4    H3      21.089656   18.905511   21.011763 H          1 MOL1         0.3684
       5    C1      20.064867   20.021121   22.477069 C.3        1 MOL1         0.1270
       6    H4      19.337812   20.390229   21.746975 H          1 MOL1         0.0960
       7    C2      20.382943   21.161541   23.458007 C.3        1 MOL1        -0.2382
       8    H5      20.797400   22.026957   22.926457 H          1 MOL1         0.1009
       9    H6      21.111722   20.843755   24.214106 H          1 MOL1         0.1009
      10    H7      19.475434   21.494178   23.977064 H          1 MOL1         0.1009
      11    C3      19.432312   18.828264   23.227478 C.3        1 MOL1        -0.1392
      12    H8      20.151816   18.423311   23.951526 H          1 MOL1         0.0998
      13    H9      18.573911   19.190569   23.808812 H          1 MOL1         0.0998
      14    C4      18.953329   17.701935   22.280125 C.3        1 MOL1        -0.1302
      15    H10     19.804793   17.283269   21.726813 H          1 MOL1         0.0998
      16    H11     18.260815   18.115611   21.533440 H          1 MOL1         0.0998
      17    C5      18.250791   16.566160   23.054567 C.3        1 MOL1        -0.2317
      18    H12     18.928104   16.111212   23.789091 H          1 MOL1         0.1009
      19    H13     17.919240   15.776206   22.368177 H          1 MOL1         0.1009
      20    H14     17.367574   16.939255   23.589318 H          1 MOL1         0.1009
@<TRIPOS>BOND
    1     1     2    1
    2     1     3    1
    3     1     4    1
    4     1     5    1
    5     5     6    1
    6     5     7    1
    7     7     8    1
    8     7     9    1
    9     7    10    1
   10     5    11    1
   11    11    12    1
   12    11    13    1
   13    11    14    1
   14    14    15    1
   15    14    16    1
   16    14    17    1
   17    17    18    1
   18    17    19    1
   19    17    20    1
@<TRIPOS>SUBSTRUCTURE
       1 MOL1            1 RESIDUE      1      MOL     
@<SCITEGIC>MOL_PROPERTY
VConf Rank
SciTegic.value.IntegerValue
601

@<SCITEGIC>MOL_PROPERTY
Conf_Id
SciTegic.value.IntegerValue
74

@<SCITEGIC>MOL_PROPERTY
Delta U+W
SciTegic.value.DoubleValue
0.000

@<SCITEGIC>MOL_PROPERTY
U+W
SciTegic.value.DoubleValue
-36.276

@<SCITEGIC>MOL_PROPERTY
Grad RMS
SciTegic.value.DoubleValue
0.000000

@<SCITEGIC>MOL_PROPERTY
U
SciTegic.value.DoubleValue
22.080

@<SCITEGIC>MOL_PROPERTY
W
SciTegic.value.DoubleValue
-58.356

@<SCITEGIC>MOL_PROPERTY
W(PB)
SciTegic.value.DoubleValue
-60.289

@<SCITEGIC>MOL_PROPERTY
W(SA)
SciTegic.value.DoubleValue
1.932

@<SCITEGIC>MOL_PROPERTY
Valence
SciTegic.value.DoubleValue
1.885

@<SCITEGIC>MOL_PROPERTY
Coulomb
SciTegic.value.DoubleValue
19.559

@<SCITEGIC>MOL_PROPERTY
VdW
SciTegic.value.DoubleValue
0.637

@<SCITEGIC>MOL_PROPERTY
VdW6
SciTegic.value.DoubleValue
-4.482

@<SCITEGIC>MOL_PROPERTY
VdW12
SciTegic.value.DoubleValue
5.119

@<SCITEGIC>MOL_PROPERTY
Bond
SciTegic.value.DoubleValue
0.136

@<SCITEGIC>MOL_PROPERTY
Angle
SciTegic.value.DoubleValue
0.867

@<SCITEGIC>MOL_PROPERTY
Pdih
SciTegic.value.DoubleValue
0.882

@<SCITEGIC>MOL_PROPERTY
Idih
SciTegic.value.DoubleValue
0.000

@<SCITEGIC>MOL_PROPERTY
Tether
SciTegic.value.DoubleValue
0.000

@<TRIPOS>MOLECULE
guest-s10_confgen4.mol2 : confsearch ligand conformer 602
          20          19           1
SMALL
USER_CHARGES
 
@<TRIPOS>ATOM
       1    N1      19.337568   16.976579   24.034871 N.4        1 MOL1        -0.5937
       2    H1      19.028717   17.381449   24.922873 H          1 MOL1         0.3684
       3    H2      20.309879   16.681550   24.154433 H          1 MOL1         0.3684
       4    H3      18.780665   16.132235   23.877955 H          1 MOL1         0.3684
       5    C1      19.191532   17.951674   22.898944 C.3        1 MOL1         0.1270
       6    H4      18.128292   18.205766   22.845796 H          1 MOL1         0.0960
       7    C2      19.599887   17.288843   21.570523 C.3        1 MOL1        -0.2382
       8    H5      19.059420   16.345095   21.427494 H          1 MOL1         0.1009
       9    H6      20.674970   17.071313   21.549133 H          1 MOL1         0.1009
      10    H7      19.361706   17.930339   20.714383 H          1 MOL1         0.1009
      11    C3      19.985925   19.250307   23.170933 C.3        1 MOL1        -0.1392
      12    H8      19.728129   19.611280   24.175375 H          1 MOL1         0.0998
      13    H9      21.061461   19.029369   23.186982 H          1 MOL1         0.0998
      14    C4      19.701010   20.382417   22.153921 C.3        1 MOL1        -0.1302
      15    H10     18.618232   20.560545   22.091216 H          1 MOL1         0.0998
      16    H11     20.033868   20.085975   21.150313 H          1 MOL1         0.0998
      17    C5      20.413236   21.694444   22.547623 C.3        1 MOL1        -0.2317
      18    H12     20.074903   22.049246   23.529908 H          1 MOL1         0.1009
      19    H13     20.203663   22.484359   21.814683 H          1 MOL1         0.1009
      20    H14     21.501395   21.555452   22.590658 H          1 MOL1         0.1009
@<TRIPOS>BOND
    1     1     2    1
    2     1     3    1
    3     1     4    1
    4     1     5    1
    5     5     6    1
    6     5     7    1
    7     7     8    1
    8     7     9    1
    9     7    10    1
   10     5    11    1
   11    11    12    1
   12    11    13    1
   13    11    14    1
   14    14    15    1
   15    14    16    1
   16    14    17    1
   17    17    18    1
   18    17    19    1
   19    17    20    1
@<TRIPOS>SUBSTRUCTURE
       1 MOL1            1 RESIDUE      1      MOL     
@<SCITEGIC>MOL_PROPERTY
VConf Rank
SciTegic.value.IntegerValue
602

@<SCITEGIC>MOL_PROPERTY
Conf_Id
SciTegic.value.IntegerValue
80

@<SCITEGIC>MOL_PROPERTY
Delta U+W
SciTegic.value.DoubleValue
0.460

@<SCITEGIC>MOL_PROPERTY
U+W
SciTegic.value.DoubleValue
-35.817

@<SCITEGIC>MOL_PROPERTY
Grad RMS
SciTegic.value.DoubleValue
0.000000

@<SCITEGIC>MOL_PROPERTY
U
SciTegic.value.DoubleValue
22.495

@<SCITEGIC>MOL_PROPERTY
W
SciTegic.value.DoubleValue
-58.311

@<SCITEGIC>MOL_PROPERTY
W(PB)
SciTegic.value.DoubleValue
-60.259

@<SCITEGIC>MOL_PROPERTY
W(SA)
SciTegic.value.DoubleValue
1.948

@<SCITEGIC>MOL_PROPERTY
Valence
SciTegic.value.DoubleValue
2.419

@<SCITEGIC>MOL_PROPERTY
Coulomb
SciTegic.value.DoubleValue
19.304

@<SCITEGIC>MOL_PROPERTY
VdW
SciTegic.value.DoubleValue
0.772

@<SCITEGIC>MOL_PROPERTY
VdW6
SciTegic.value.DoubleValue
-4.635

@<SCITEGIC>MOL_PROPERTY
VdW12
SciTegic.value.DoubleValue
5.407

@<SCITEGIC>MOL_PROPERTY
Bond
SciTegic.value.DoubleValue
0.149

@<SCITEGIC>MOL_PROPERTY
Angle
SciTegic.value.DoubleValue
1.142

@<SCITEGIC>MOL_PROPERTY
Pdih
SciTegic.value.DoubleValue
1.129

@<SCITEGIC>MOL_PROPERTY
Idih
SciTegic.value.DoubleValue
0.000

@<SCITEGIC>MOL_PROPERTY
Tether
SciTegic.value.DoubleValue
0.000

@<TRIPOS>MOLECULE
guest-s10_confgen4.mol2 : confsearch ligand conformer 603
          20          19           1
SMALL
USER_CHARGES
 
@<TRIPOS>ATOM
       1    N1      19.572831   20.902380   21.437512 N.4        1 MOL1        -0.5937
       2    H1      19.187654   20.713825   20.508052 H          1 MOL1         0.3684
       3    H2      20.582360   21.029551   21.330896 H          1 MOL1         0.3684
       4    H3      19.184949   21.796655   21.749659 H          1 MOL1         0.3684
       5    C1      19.254944   19.796144   22.405985 C.3        1 MOL1         0.1270
       6    H4      18.163234   19.739547   22.458575 H          1 MOL1         0.0960
       7    C2      19.783373   20.147263   23.807319 C.3        1 MOL1        -0.2382
       8    H5      19.460627   21.153219   24.102328 H          1 MOL1         0.1009
       9    H6      20.879564   20.118112   23.838424 H          1 MOL1         0.1009
      10    H7      19.393893   19.451749   24.559364 H          1 MOL1         0.1009
      11    C3      19.781813   18.435526   21.887849 C.3        1 MOL1        -0.1392
      12    H8      19.382816   18.292055   20.874977 H          1 MOL1         0.0998
      13    H9      20.873674   18.469037   21.776293 H          1 MOL1         0.0998
      14    C4      19.366558   17.205239   22.737320 C.3        1 MOL1        -0.1302
      15    H10     19.172293   16.361512   22.060190 H          1 MOL1         0.0998
      16    H11     18.416559   17.400775   23.254265 H          1 MOL1         0.0998
      17    C5      20.449680   16.762803   23.749313 C.3        1 MOL1        -0.2317
      18    H12     21.380515   16.492507   23.233945 H          1 MOL1         0.1009
      19    H13     20.113368   15.881674   24.310998 H          1 MOL1         0.1009
      20    H14     20.683128   17.549485   24.475382 H          1 MOL1         0.1009
@<TRIPOS>BOND
    1     1     2    1
    2     1     3    1
    3     1     4    1
    4     1     5    1
    5     5     6    1
    6     5     7    1
    7     7     8    1
    8     7     9    1
    9     7    10    1
   10     5    11    1
   11    11    12    1
   12    11    13    1
   13    11    14    1
   14    14    15    1
   15    14    16    1
   16    14    17    1
   17    17    18    1
   18    17    19    1
   19    17    20    1
@<TRIPOS>SUBSTRUCTURE
       1 MOL1            1 RESIDUE      1      MOL     
@<SCITEGIC>MOL_PROPERTY
VConf Rank
SciTegic.value.IntegerValue
603

@<SCITEGIC>MOL_PROPERTY
Conf_Id
SciTegic.value.IntegerValue
52

@<SCITEGIC>MOL_PROPERTY
Delta U+W
SciTegic.value.DoubleValue
2.995

@<SCITEGIC>MOL_PROPERTY
U+W
SciTegic.value.DoubleValue
-33.282

@<SCITEGIC>MOL_PROPERTY
Grad RMS
SciTegic.value.DoubleValue
0.000000

@<SCITEGIC>MOL_PROPERTY
U
SciTegic.value.DoubleValue
25.224

@<SCITEGIC>MOL_PROPERTY
W
SciTegic.value.DoubleValue
-58.506

@<SCITEGIC>MOL_PROPERTY
W(PB)
SciTegic.value.DoubleValue
-60.411

@<SCITEGIC>MOL_PROPERTY
W(SA)
SciTegic.value.DoubleValue
1.905

@<SCITEGIC>MOL_PROPERTY
Valence
SciTegic.value.DoubleValue
4.945

@<SCITEGIC>MOL_PROPERTY
Coulomb
SciTegic.value.DoubleValue
19.467

@<SCITEGIC>MOL_PROPERTY
VdW
SciTegic.value.DoubleValue
0.813

@<SCITEGIC>MOL_PROPERTY
VdW6
SciTegic.value.DoubleValue
-5.458

@<SCITEGIC>MOL_PROPERTY
VdW12
SciTegic.value.DoubleValue
6.270

@<SCITEGIC>MOL_PROPERTY
Bond
SciTegic.value.DoubleValue
0.200

@<SCITEGIC>MOL_PROPERTY
Angle
SciTegic.value.DoubleValue
1.675

@<SCITEGIC>MOL_PROPERTY
Pdih
SciTegic.value.DoubleValue
3.070

@<SCITEGIC>MOL_PROPERTY
Idih
SciTegic.value.DoubleValue
0.000

@<SCITEGIC>MOL_PROPERTY
Tether
SciTegic.value.DoubleValue
0.000

@<TRIPOS>MOLECULE
guest-s10_confgen4.mol2 : confsearch ligand conformer 604
          20          19           1
SMALL
USER_CHARGES
 
@<TRIPOS>ATOM
       1    N1      20.549020   19.726776   23.964121 N.4        1 MOL1        -0.5937
       2    H1      21.184399   19.006322   24.315715 H          1 MOL1         0.3684
       3    H2      20.426122   20.416908   24.709950 H          1 MOL1         0.3684
       4    H3      21.017554   20.194005   23.184917 H          1 MOL1         0.3684
       5    C1      19.233480   19.136146   23.535450 C.3        1 MOL1         0.1270
       6    H4      18.594782   19.966963   23.219942 H          1 MOL1         0.0960
       7    C2      18.560665   18.439299   24.730223 C.3        1 MOL1        -0.2382
       8    H5      19.154780   17.584780   25.077619 H          1 MOL1         0.1009
       9    H6      17.562517   18.073844   24.458582 H          1 MOL1         0.1009
      10    H7      18.440348   19.135741   25.569168 H          1 MOL1         0.1009
      11    C3      19.375361   18.154105   22.348141 C.3        1 MOL1        -0.1392
      12    H8      20.199748   17.454077   22.537665 H          1 MOL1         0.0998
      13    H9      18.467122   17.539252   22.292102 H          1 MOL1         0.0998
      14    C4      19.555825   18.829749   20.963387 C.3        1 MOL1        -0.1302
      15    H10     18.702868   19.492705   20.760932 H          1 MOL1         0.0998
      16    H11     19.519208   18.046494   20.193194 H          1 MOL1         0.0998
      17    C5      20.874082   19.618552   20.792523 C.3        1 MOL1        -0.2317
      18    H12     21.018936   19.890421   19.738771 H          1 MOL1         0.1009
      19    H13     21.740789   19.020484   21.103089 H          1 MOL1         0.1009
      20    H14     20.862786   20.553647   21.364282 H          1 MOL1         0.1009
@<TRIPOS>BOND
    1     1     2    1
    2     1     3    1
    3     1     4    1
    4     1     5    1
    5     5     6    1
    6     5     7    1
    7     7     8    1
    8     7     9    1
    9     7    10    1
   10     5    11    1
   11    11    12    1
   12    11    13    1
   13    11    14    1
   14    14    15    1
   15    14    16    1
   16    14    17    1
   17    17    18    1
   18    17    19    1
   19    17    20    1
@<TRIPOS>SUBSTRUCTURE
       1 MOL1            1 RESIDUE      1      MOL     
@<SCITEGIC>MOL_PROPERTY
VConf Rank
SciTegic.value.IntegerValue
604

@<SCITEGIC>MOL_PROPERTY
Conf_Id
SciTegic.value.IntegerValue
54

@<SCITEGIC>MOL_PROPERTY
Delta U+W
SciTegic.value.DoubleValue
2.752

@<SCITEGIC>MOL_PROPERTY
U+W
SciTegic.value.DoubleValue
-33.525

@<SCITEGIC>MOL_PROPERTY
Grad RMS
SciTegic.value.DoubleValue
0.000000

@<SCITEGIC>MOL_PROPERTY
U
SciTegic.value.DoubleValue
24.337

@<SCITEGIC>MOL_PROPERTY
W
SciTegic.value.DoubleValue
-57.862

@<SCITEGIC>MOL_PROPERTY
W(PB)
SciTegic.value.DoubleValue
-59.764

@<SCITEGIC>MOL_PROPERTY
W(SA)
SciTegic.value.DoubleValue
1.901

@<SCITEGIC>MOL_PROPERTY
Valence
SciTegic.value.DoubleValue
3.593

@<SCITEGIC>MOL_PROPERTY
Coulomb
SciTegic.value.DoubleValue
20.067

@<SCITEGIC>MOL_PROPERTY
VdW
SciTegic.value.DoubleValue
0.677

@<SCITEGIC>MOL_PROPERTY
VdW6
SciTegic.value.DoubleValue
-5.466

@<SCITEGIC>MOL_PROPERTY
VdW12
SciTegic.value.DoubleValue
6.144

@<SCITEGIC>MOL_PROPERTY
Bond
SciTegic.value.DoubleValue
0.191

@<SCITEGIC>MOL_PROPERTY
Angle
SciTegic.value.DoubleValue
1.557

@<SCITEGIC>MOL_PROPERTY
Pdih
SciTegic.value.DoubleValue
1.845

@<SCITEGIC>MOL_PROPERTY
Idih
SciTegic.value.DoubleValue
0.000

@<SCITEGIC>MOL_PROPERTY
Tether
SciTegic.value.DoubleValue
0.000

@<TRIPOS>MOLECULE
guest-s10_confgen4.mol2 : confsearch ligand conformer 605
          20          19           1
SMALL
USER_CHARGES
 
@<TRIPOS>ATOM
       1    N1      19.571472   18.905115   20.639947 N.4        1 MOL1        -0.5937
       2    H1      20.031309   19.148619   19.758522 H          1 MOL1         0.3684
       3    H2      18.561775   18.956809   20.480100 H          1 MOL1         0.3684
       4    H3      19.800728   17.929929   20.844649 H          1 MOL1         0.3684
       5    C1      20.002269   19.817432   21.756181 C.3        1 MOL1         0.1270
       6    H4      19.732908   20.830199   21.440318 H          1 MOL1         0.0960
       7    C2      21.529657   19.780681   21.942133 C.3        1 MOL1        -0.2382
       8    H5      21.839474   20.445621   22.757817 H          1 MOL1         0.1009
       9    H6      22.035320   20.117762   21.029024 H          1 MOL1         0.1009
      10    H7      21.887131   18.769199   22.168314 H          1 MOL1         0.1009
      11    C3      19.248263   19.534354   23.077693 C.3        1 MOL1        -0.1392
      12    H8      19.542017   20.288262   23.820033 H          1 MOL1         0.0998
      13    H9      18.174780   19.685488   22.903912 H          1 MOL1         0.0998
      14    C4      19.473214   18.118864   23.669409 C.3        1 MOL1        -0.1302
      15    H10     20.536440   17.967298   23.898737 H          1 MOL1         0.0998
      16    H11     19.192775   17.351821   22.935133 H          1 MOL1         0.0998
      17    C5      18.649849   17.906261   24.957896 C.3        1 MOL1        -0.2317
      18    H12     18.820849   16.901634   25.366000 H          1 MOL1         0.1009
      19    H13     17.574734   18.010997   24.761994 H          1 MOL1         0.1009
      20    H14     18.929114   18.634960   25.730058 H          1 MOL1         0.1009
@<TRIPOS>BOND
    1     1     2    1
    2     1     3    1
    3     1     4    1
    4     1     5    1
    5     5     6    1
    6     5     7    1
    7     7     8    1
    8     7     9    1
    9     7    10    1
   10     5    11    1
   11    11    12    1
   12    11    13    1
   13    11    14    1
   14    14    15    1
   15    14    16    1
   16    14    17    1
   17    17    18    1
   18    17    19    1
   19    17    20    1
@<TRIPOS>SUBSTRUCTURE
       1 MOL1            1 RESIDUE      1      MOL     
@<SCITEGIC>MOL_PROPERTY
VConf Rank
SciTegic.value.IntegerValue
605

@<SCITEGIC>MOL_PROPERTY
Conf_Id
SciTegic.value.IntegerValue
63

@<SCITEGIC>MOL_PROPERTY
Delta U+W
SciTegic.value.DoubleValue
0.420

@<SCITEGIC>MOL_PROPERTY
U+W
SciTegic.value.DoubleValue
-35.856

@<SCITEGIC>MOL_PROPERTY
Grad RMS
SciTegic.value.DoubleValue
0.000000

@<SCITEGIC>MOL_PROPERTY
U
SciTegic.value.DoubleValue
22.625

@<SCITEGIC>MOL_PROPERTY
W
SciTegic.value.DoubleValue
-58.481

@<SCITEGIC>MOL_PROPERTY
W(PB)
SciTegic.value.DoubleValue
-60.400

@<SCITEGIC>MOL_PROPERTY
W(SA)
SciTegic.value.DoubleValue
1.919

@<SCITEGIC>MOL_PROPERTY
Valence
SciTegic.value.DoubleValue
2.404

@<SCITEGIC>MOL_PROPERTY
Coulomb
SciTegic.value.DoubleValue
19.464

@<SCITEGIC>MOL_PROPERTY
VdW
SciTegic.value.DoubleValue
0.757

@<SCITEGIC>MOL_PROPERTY
VdW6
SciTegic.value.DoubleValue
-5.074

@<SCITEGIC>MOL_PROPERTY
VdW12
SciTegic.value.DoubleValue
5.830

@<SCITEGIC>MOL_PROPERTY
Bond
SciTegic.value.DoubleValue
0.172

@<SCITEGIC>MOL_PROPERTY
Angle
SciTegic.value.DoubleValue
1.207

@<SCITEGIC>MOL_PROPERTY
Pdih
SciTegic.value.DoubleValue
1.025

@<SCITEGIC>MOL_PROPERTY
Idih
SciTegic.value.DoubleValue
0.000

@<SCITEGIC>MOL_PROPERTY
Tether
SciTegic.value.DoubleValue
0.000

@<TRIPOS>MOLECULE
guest-s10_confgen4.mol2 : confsearch ligand conformer 606
          20          19           1
SMALL
USER_CHARGES
 
@<TRIPOS>ATOM
       1    N1      18.810989   20.468994   22.364555 N.4        1 MOL1        -0.5937
       2    H1      18.993739   20.725839   23.337955 H          1 MOL1         0.3684
       3    H2      17.808923   20.282410   22.278124 H          1 MOL1         0.3684
       4    H3      19.020553   21.288071   21.787720 H          1 MOL1         0.3684
       5    C1      19.631265   19.277508   21.950207 C.3        1 MOL1         0.1270
       6    H4      20.681174   19.561404   22.069470 H          1 MOL1         0.0960
       7    C2      19.391968   18.941978   20.469103 C.3        1 MOL1        -0.2382
       8    H5      19.621059   19.805931   19.833227 H          1 MOL1         0.1009
       9    H6      18.348701   18.653218   20.290319 H          1 MOL1         0.1009
      10    H7      20.035474   18.113348   20.148329 H          1 MOL1         0.1009
      11    C3      19.361126   18.038007   22.833182 C.3        1 MOL1        -0.1392
      12    H8      18.314646   17.727201   22.714390 H          1 MOL1         0.0998
      13    H9      19.972444   17.200961   22.470452 H          1 MOL1         0.0998
      14    C4      19.657882   18.253956   24.338905 C.3        1 MOL1        -0.1302
      15    H10     19.432197   17.324091   24.879572 H          1 MOL1         0.0998
      16    H11     18.983427   19.015199   24.753856 H          1 MOL1         0.0998
      17    C5      21.125874   18.650693   24.616336 C.3        1 MOL1        -0.2317
      18    H12     21.819960   17.903399   24.210163 H          1 MOL1         0.1009
      19    H13     21.307042   18.722938   25.696626 H          1 MOL1         0.1009
      20    H14     21.372915   19.623988   24.174108 H          1 MOL1         0.1009
@<TRIPOS>BOND
    1     1     2    1
    2     1     3    1
    3     1     4    1
    4     1     5    1
    5     5     6    1
    6     5     7    1
    7     7     8    1
    8     7     9    1
    9     7    10    1
   10     5    11    1
   11    11    12    1
   12    11    13    1
   13    11    14    1
   14    14    15    1
   15    14    16    1
   16    14    17    1
   17    17    18    1
   18    17    19    1
   19    17    20    1
@<TRIPOS>SUBSTRUCTURE
       1 MOL1            1 RESIDUE      1      MOL     
@<SCITEGIC>MOL_PROPERTY
VConf Rank
SciTegic.value.IntegerValue
606

@<SCITEGIC>MOL_PROPERTY
Conf_Id
SciTegic.value.IntegerValue
50

@<SCITEGIC>MOL_PROPERTY
Delta U+W
SciTegic.value.DoubleValue
0.466

@<SCITEGIC>MOL_PROPERTY
U+W
SciTegic.value.DoubleValue
-35.811

@<SCITEGIC>MOL_PROPERTY
Grad RMS
SciTegic.value.DoubleValue
0.000000

@<SCITEGIC>MOL_PROPERTY
U
SciTegic.value.DoubleValue
22.369

@<SCITEGIC>MOL_PROPERTY
W
SciTegic.value.DoubleValue
-58.180

@<SCITEGIC>MOL_PROPERTY
W(PB)
SciTegic.value.DoubleValue
-60.103

@<SCITEGIC>MOL_PROPERTY
W(SA)
SciTegic.value.DoubleValue
1.923

@<SCITEGIC>MOL_PROPERTY
Valence
SciTegic.value.DoubleValue
2.168

@<SCITEGIC>MOL_PROPERTY
Coulomb
SciTegic.value.DoubleValue
19.636

@<SCITEGIC>MOL_PROPERTY
VdW
SciTegic.value.DoubleValue
0.566

@<SCITEGIC>MOL_PROPERTY
VdW6
SciTegic.value.DoubleValue
-5.263

@<SCITEGIC>MOL_PROPERTY
VdW12
SciTegic.value.DoubleValue
5.829

@<SCITEGIC>MOL_PROPERTY
Bond
SciTegic.value.DoubleValue
0.162

@<SCITEGIC>MOL_PROPERTY
Angle
SciTegic.value.DoubleValue
1.066

@<SCITEGIC>MOL_PROPERTY
Pdih
SciTegic.value.DoubleValue
0.939

@<SCITEGIC>MOL_PROPERTY
Idih
SciTegic.value.DoubleValue
0.000

@<SCITEGIC>MOL_PROPERTY
Tether
SciTegic.value.DoubleValue
0.000

@<TRIPOS>MOLECULE
guest-s10_confgen4.mol2 : confsearch ligand conformer 607
          20          19           1
SMALL
USER_CHARGES
 
@<TRIPOS>ATOM
       1    N1      21.908801   19.535752   22.620322 N.4        1 MOL1        -0.5937
       2    H1      22.211030   19.222106   21.693888 H          1 MOL1         0.3684
       3    H2      22.419981   18.983451   23.313525 H          1 MOL1         0.3684
       4    H3      22.210828   20.508312   22.723481 H          1 MOL1         0.3684
       5    C1      20.420170   19.400046   22.793935 C.3        1 MOL1         0.1270
       6    H4      19.964869   20.017429   22.013357 H          1 MOL1         0.0960
       7    C2      19.997689   19.951228   24.168589 C.3        1 MOL1        -0.2382
       8    H5      20.471321   19.388434   24.982593 H          1 MOL1         0.1009
       9    H6      18.912742   19.896036   24.308707 H          1 MOL1         0.1009
      10    H7      20.290521   21.003471   24.269390 H          1 MOL1         0.1009
      11    C3      19.945215   17.939999   22.591666 C.3        1 MOL1        -0.1392
      12    H8      20.730524   17.375338   22.071936 H          1 MOL1         0.0998
      13    H9      19.815225   17.441049   23.561287 H          1 MOL1         0.0998
      14    C4      18.650958   17.812222   21.748842 C.3        1 MOL1        -0.1302
      15    H10     18.437203   16.745352   21.593827 H          1 MOL1         0.0998
      16    H11     18.819835   18.237692   20.749574 H          1 MOL1         0.0998
      17    C5      17.412463   18.479318   22.387081 C.3        1 MOL1        -0.2317
      18    H12     17.241514   18.105863   23.405087 H          1 MOL1         0.1009
      19    H13     16.513146   18.262789   21.795994 H          1 MOL1         0.1009
      20    H14     17.521647   19.570158   22.429249 H          1 MOL1         0.1009
@<TRIPOS>BOND
    1     1     2    1
    2     1     3    1
    3     1     4    1
    4     1     5    1
    5     5     6    1
    6     5     7    1
    7     7     8    1
    8     7     9    1
    9     7    10    1
   10     5    11    1
   11    11    12    1
   12    11    13    1
   13    11    14    1
   14    14    15    1
   15    14    16    1
   16    14    17    1
   17    17    18    1
   18    17    19    1
   19    17    20    1
@<TRIPOS>SUBSTRUCTURE
       1 MOL1            1 RESIDUE      1      MOL     
@<SCITEGIC>MOL_PROPERTY
VConf Rank
SciTegic.value.IntegerValue
607

@<SCITEGIC>MOL_PROPERTY
Conf_Id
SciTegic.value.IntegerValue
3

@<SCITEGIC>MOL_PROPERTY
Delta U+W
SciTegic.value.DoubleValue
3.093

@<SCITEGIC>MOL_PROPERTY
U+W
SciTegic.value.DoubleValue
-33.184

@<SCITEGIC>MOL_PROPERTY
Grad RMS
SciTegic.value.DoubleValue
0.000000

@<SCITEGIC>MOL_PROPERTY
U
SciTegic.value.DoubleValue
25.256

@<SCITEGIC>MOL_PROPERTY
W
SciTegic.value.DoubleValue
-58.439

@<SCITEGIC>MOL_PROPERTY
W(PB)
SciTegic.value.DoubleValue
-60.337

@<SCITEGIC>MOL_PROPERTY
W(SA)
SciTegic.value.DoubleValue
1.898

@<SCITEGIC>MOL_PROPERTY
Valence
SciTegic.value.DoubleValue
4.963

@<SCITEGIC>MOL_PROPERTY
Coulomb
SciTegic.value.DoubleValue
19.511

@<SCITEGIC>MOL_PROPERTY
VdW
SciTegic.value.DoubleValue
0.782

@<SCITEGIC>MOL_PROPERTY
VdW6
SciTegic.value.DoubleValue
-5.429

@<SCITEGIC>MOL_PROPERTY
VdW12
SciTegic.value.DoubleValue
6.211

@<SCITEGIC>MOL_PROPERTY
Bond
SciTegic.value.DoubleValue
0.174

@<SCITEGIC>MOL_PROPERTY
Angle
SciTegic.value.DoubleValue
1.377

@<SCITEGIC>MOL_PROPERTY
Pdih
SciTegic.value.DoubleValue
3.412

@<SCITEGIC>MOL_PROPERTY
Idih
SciTegic.value.DoubleValue
0.000

@<SCITEGIC>MOL_PROPERTY
Tether
SciTegic.value.DoubleValue
0.000

@<TRIPOS>MOLECULE
guest-s10_confgen4.mol2 : confsearch ligand conformer 608
          20          19           1
SMALL
USER_CHARGES
 
@<TRIPOS>ATOM
       1    N1      20.987828   20.260151   21.446239 N.4        1 MOL1        -0.5937
       2    H1      21.562276   21.022218   21.816239 H          1 MOL1         0.3684
       3    H2      20.321360   20.675324   20.789519 H          1 MOL1         0.3684
       4    H3      21.605878   19.647028   20.908858 H          1 MOL1         0.3684
       5    C1      20.288989   19.511982   22.548168 C.3        1 MOL1         0.1270
       6    H4      19.660177   20.243503   23.064471 H          1 MOL1         0.0960
       7    C2      21.314898   18.957396   23.553180 C.3        1 MOL1        -0.2382
       8    H5      20.819284   18.531168   24.433084 H          1 MOL1         0.1009
       9    H6      21.977914   19.755412   23.909148 H          1 MOL1         0.1009
      10    H7      21.936239   18.177017   23.096637 H          1 MOL1         0.1009
      11    C3      19.374639   18.401190   21.978488 C.3        1 MOL1        -0.1392
      12    H8      18.722666   18.841317   21.212495 H          1 MOL1         0.0998
      13    H9      19.990318   17.653568   21.461056 H          1 MOL1         0.0998
      14    C4      18.482716   17.685738   23.025247 C.3        1 MOL1        -0.1302
      15    H10     19.103710   17.121303   23.733803 H          1 MOL1         0.0998
      16    H11     17.863600   16.939141   22.508402 H          1 MOL1         0.0998
      17    C5      17.558403   18.654694   23.797206 C.3        1 MOL1        -0.2317
      18    H12     16.928853   19.232968   23.108422 H          1 MOL1         0.1009
      19    H13     18.134547   19.359492   24.409890 H          1 MOL1         0.1009
      20    H14     16.894012   18.097853   24.470652 H          1 MOL1         0.1009
@<TRIPOS>BOND
    1     1     2    1
    2     1     3    1
    3     1     4    1
    4     1     5    1
    5     5     6    1
    6     5     7    1
    7     7     8    1
    8     7     9    1
    9     7    10    1
   10     5    11    1
   11    11    12    1
   12    11    13    1
   13    11    14    1
   14    14    15    1
   15    14    16    1
   16    14    17    1
   17    17    18    1
   18    17    19    1
   19    17    20    1
@<TRIPOS>SUBSTRUCTURE
       1 MOL1            1 RESIDUE      1      MOL     
@<SCITEGIC>MOL_PROPERTY
VConf Rank
SciTegic.value.IntegerValue
608

@<SCITEGIC>MOL_PROPERTY
Conf_Id
SciTegic.value.IntegerValue
64

@<SCITEGIC>MOL_PROPERTY
Delta U+W
SciTegic.value.DoubleValue
0.544

@<SCITEGIC>MOL_PROPERTY
U+W
SciTegic.value.DoubleValue
-35.732

@<SCITEGIC>MOL_PROPERTY
Grad RMS
SciTegic.value.DoubleValue
0.000000

@<SCITEGIC>MOL_PROPERTY
U
SciTegic.value.DoubleValue
22.800

@<SCITEGIC>MOL_PROPERTY
W
SciTegic.value.DoubleValue
-58.532

@<SCITEGIC>MOL_PROPERTY
W(PB)
SciTegic.value.DoubleValue
-60.437

@<SCITEGIC>MOL_PROPERTY
W(SA)
SciTegic.value.DoubleValue
1.905

@<SCITEGIC>MOL_PROPERTY
Valence
SciTegic.value.DoubleValue
2.662

@<SCITEGIC>MOL_PROPERTY
Coulomb
SciTegic.value.DoubleValue
19.485

@<SCITEGIC>MOL_PROPERTY
VdW
SciTegic.value.DoubleValue
0.653

@<SCITEGIC>MOL_PROPERTY
VdW6
SciTegic.value.DoubleValue
-5.460

@<SCITEGIC>MOL_PROPERTY
VdW12
SciTegic.value.DoubleValue
6.113

@<SCITEGIC>MOL_PROPERTY
Bond
SciTegic.value.DoubleValue
0.174

@<SCITEGIC>MOL_PROPERTY
Angle
SciTegic.value.DoubleValue
1.378

@<SCITEGIC>MOL_PROPERTY
Pdih
SciTegic.value.DoubleValue
1.109

@<SCITEGIC>MOL_PROPERTY
Idih
SciTegic.value.DoubleValue
0.000

@<SCITEGIC>MOL_PROPERTY
Tether
SciTegic.value.DoubleValue
0.000

@<TRIPOS>MOLECULE
guest-s10_confgen4.mol2 : confsearch ligand conformer 609
          20          19           1
SMALL
USER_CHARGES
 
@<TRIPOS>ATOM
       1    N1      18.923001   20.848244   22.659775 N.4        1 MOL1        -0.5937
       2    H1      19.912401   21.057281   22.509230 H          1 MOL1         0.3684
       3    H2      18.581799   21.488424   23.381830 H          1 MOL1         0.3684
       4    H3      18.425972   21.074573   21.794098 H          1 MOL1         0.3684
       5    C1      18.717609   19.411202   23.056710 C.3        1 MOL1         0.1270
       6    H4      17.639546   19.292668   23.204000 H          1 MOL1         0.0960
       7    C2      19.400423   19.110930   24.401078 C.3        1 MOL1        -0.2382
       8    H5      20.472068   19.339232   24.366962 H          1 MOL1         0.1009
       9    H6      19.276059   18.056233   24.675828 H          1 MOL1         0.1009
      10    H7      18.956132   19.717178   25.199852 H          1 MOL1         0.1009
      11    C3      19.131151   18.425065   21.935347 C.3        1 MOL1        -0.1392
      12    H8      18.802059   17.412005   22.201628 H          1 MOL1         0.0998
      13    H9      18.555243   18.688347   21.038411 H          1 MOL1         0.0998
      14    C4      20.638602   18.407111   21.557865 C.3        1 MOL1        -0.1302
      15    H10     21.092030   19.395632   21.708229 H          1 MOL1         0.0998
      16    H11     20.723324   18.199937   20.481815 H          1 MOL1         0.0998
      17    C5      21.451676   17.328261   22.311351 C.3        1 MOL1        -0.2317
      18    H12     21.452914   17.492456   23.394409 H          1 MOL1         0.1009
      19    H13     22.496761   17.331995   21.975569 H          1 MOL1         0.1009
      20    H14     21.045847   16.326171   22.121190 H          1 MOL1         0.1009
@<TRIPOS>BOND
    1     1     2    1
    2     1     3    1
    3     1     4    1
    4     1     5    1
    5     5     6    1
    6     5     7    1
    7     7     8    1
    8     7     9    1
    9     7    10    1
   10     5    11    1
   11    11    12    1
   12    11    13    1
   13    11    14    1
   14    14    15    1
   15    14    16    1
   16    14    17    1
   17    17    18    1
   18    17    19    1
   19    17    20    1
@<TRIPOS>SUBSTRUCTURE
       1 MOL1            1 RESIDUE      1      MOL     
@<SCITEGIC>MOL_PROPERTY
VConf Rank
SciTegic.value.IntegerValue
609

@<SCITEGIC>MOL_PROPERTY
Conf_Id
SciTegic.value.IntegerValue
35

@<SCITEGIC>MOL_PROPERTY
Delta U+W
SciTegic.value.DoubleValue
3.004

@<SCITEGIC>MOL_PROPERTY
U+W
SciTegic.value.DoubleValue
-33.272

@<SCITEGIC>MOL_PROPERTY
Grad RMS
SciTegic.value.DoubleValue
0.000000

@<SCITEGIC>MOL_PROPERTY
U
SciTegic.value.DoubleValue
25.367

@<SCITEGIC>MOL_PROPERTY
W
SciTegic.value.DoubleValue
-58.639

@<SCITEGIC>MOL_PROPERTY
W(PB)
SciTegic.value.DoubleValue
-60.512

@<SCITEGIC>MOL_PROPERTY
W(SA)
SciTegic.value.DoubleValue
1.873

@<SCITEGIC>MOL_PROPERTY
Valence
SciTegic.value.DoubleValue
4.943

@<SCITEGIC>MOL_PROPERTY
Coulomb
SciTegic.value.DoubleValue
19.661

@<SCITEGIC>MOL_PROPERTY
VdW
SciTegic.value.DoubleValue
0.764

@<SCITEGIC>MOL_PROPERTY
VdW6
SciTegic.value.DoubleValue
-5.871

@<SCITEGIC>MOL_PROPERTY
VdW12
SciTegic.value.DoubleValue
6.636

@<SCITEGIC>MOL_PROPERTY
Bond
SciTegic.value.DoubleValue
0.230

@<SCITEGIC>MOL_PROPERTY
Angle
SciTegic.value.DoubleValue
1.857

@<SCITEGIC>MOL_PROPERTY
Pdih
SciTegic.value.DoubleValue
2.855

@<SCITEGIC>MOL_PROPERTY
Idih
SciTegic.value.DoubleValue
0.000

@<SCITEGIC>MOL_PROPERTY
Tether
SciTegic.value.DoubleValue
0.000

@<TRIPOS>MOLECULE
guest-s10_confgen4.mol2 : confsearch ligand conformer 610
          20          19           1
SMALL
USER_CHARGES
 
@<TRIPOS>ATOM
       1    N1      19.364183   18.481185   24.354729 N.4        1 MOL1        -0.5937
       2    H1      19.712084   18.610070   25.308645 H          1 MOL1         0.3684
       3    H2      18.725325   17.681660   24.368925 H          1 MOL1         0.3684
       4    H3      18.814811   19.307441   24.110826 H          1 MOL1         0.3684
       5    C1      20.490319   18.269081   23.380413 C.3        1 MOL1         0.1270
       6    H4      20.992963   17.355756   23.713748 H          1 MOL1         0.0960
       7    C2      21.519259   19.411161   23.454222 C.3        1 MOL1        -0.2382
       8    H5      21.064326   20.381637   23.222904 H          1 MOL1         0.1009
       9    H6      22.341936   19.239565   22.749115 H          1 MOL1         0.1009
      10    H7      21.951390   19.474612   24.460306 H          1 MOL1         0.1009
      11    C3      20.000024   18.008047   21.933076 C.3        1 MOL1        -0.1392
      12    H8      20.834147   17.562801   21.374920 H          1 MOL1         0.0998
      13    H9      19.220362   17.235501   21.955815 H          1 MOL1         0.0998
      14    C4      19.485987   19.231138   21.122884 C.3        1 MOL1        -0.1302
      15    H10     19.223170   18.883413   20.114004 H          1 MOL1         0.0998
      16    H11     20.294394   19.961224   20.981162 H          1 MOL1         0.0998
      17    C5      18.250907   19.934536   21.730117 C.3        1 MOL1        -0.2317
      18    H12     17.456182   19.213756   21.962556 H          1 MOL1         0.1009
      19    H13     17.840979   20.663276   21.018732 H          1 MOL1         0.1009
      20    H14     18.507861   20.485686   22.641970 H          1 MOL1         0.1009
@<TRIPOS>BOND
    1     1     2    1
    2     1     3    1
    3     1     4    1
    4     1     5    1
    5     5     6    1
    6     5     7    1
    7     7     8    1
    8     7     9    1
    9     7    10    1
   10     5    11    1
   11    11    12    1
   12    11    13    1
   13    11    14    1
   14    14    15    1
   15    14    16    1
   16    14    17    1
   17    17    18    1
   18    17    19    1
   19    17    20    1
@<TRIPOS>SUBSTRUCTURE
       1 MOL1            1 RESIDUE      1      MOL     
@<SCITEGIC>MOL_PROPERTY
VConf Rank
SciTegic.value.IntegerValue
610

@<SCITEGIC>MOL_PROPERTY
Conf_Id
SciTegic.value.IntegerValue
55

@<SCITEGIC>MOL_PROPERTY
Delta U+W
SciTegic.value.DoubleValue
2.767

@<SCITEGIC>MOL_PROPERTY
U+W
SciTegic.value.DoubleValue
-33.509

@<SCITEGIC>MOL_PROPERTY
Grad RMS
SciTegic.value.DoubleValue
0.000000

@<SCITEGIC>MOL_PROPERTY
U
SciTegic.value.DoubleValue
24.552

@<SCITEGIC>MOL_PROPERTY
W
SciTegic.value.DoubleValue
-58.061

@<SCITEGIC>MOL_PROPERTY
W(PB)
SciTegic.value.DoubleValue
-59.930

@<SCITEGIC>MOL_PROPERTY
W(SA)
SciTegic.value.DoubleValue
1.869

@<SCITEGIC>MOL_PROPERTY
Valence
SciTegic.value.DoubleValue
3.726

@<SCITEGIC>MOL_PROPERTY
Coulomb
SciTegic.value.DoubleValue
20.219

@<SCITEGIC>MOL_PROPERTY
VdW
SciTegic.value.DoubleValue
0.606

@<SCITEGIC>MOL_PROPERTY
VdW6
SciTegic.value.DoubleValue
-6.395

@<SCITEGIC>MOL_PROPERTY
VdW12
SciTegic.value.DoubleValue
7.001

@<SCITEGIC>MOL_PROPERTY
Bond
SciTegic.value.DoubleValue
0.241

@<SCITEGIC>MOL_PROPERTY
Angle
SciTegic.value.DoubleValue
2.098

@<SCITEGIC>MOL_PROPERTY
Pdih
SciTegic.value.DoubleValue
1.387

@<SCITEGIC>MOL_PROPERTY
Idih
SciTegic.value.DoubleValue
0.000

@<SCITEGIC>MOL_PROPERTY
Tether
SciTegic.value.DoubleValue
0.000

@<TRIPOS>MOLECULE
guest-s10_confgen4.mol2 : confsearch ligand conformer 611
          20          19           1
SMALL
USER_CHARGES
 
@<TRIPOS>ATOM
       1    N1      19.909606   17.015407   22.407025 N.4        1 MOL1        -0.5937
       2    H1      20.877304   17.014623   22.075203 H          1 MOL1         0.3684
       3    H2      19.455337   16.181531   22.024995 H          1 MOL1         0.3684
       4    H3      19.933124   16.909258   23.424257 H          1 MOL1         0.3684
       5    C1      19.187824   18.271510   21.999231 C.3        1 MOL1         0.1270
       6    H4      18.170370   18.192492   22.394745 H          1 MOL1         0.0960
       7    C2      19.102021   18.371951   20.467396 C.3        1 MOL1        -0.2382
       8    H5      18.608135   17.487254   20.047096 H          1 MOL1         0.1009
       9    H6      20.099645   18.452317   20.017864 H          1 MOL1         0.1009
      10    H7      18.519870   19.251700   20.166098 H          1 MOL1         0.1009
      11    C3      19.835921   19.545332   22.585318 C.3        1 MOL1        -0.1392
      12    H8      20.868210   19.635813   22.221851 H          1 MOL1         0.0998
      13    H9      19.293944   20.423448   22.209498 H          1 MOL1         0.0998
      14    C4      19.821663   19.575135   24.132712 C.3        1 MOL1        -0.1302
      15    H10     20.406155   18.736317   24.534183 H          1 MOL1         0.0998
      16    H11     18.792014   19.448460   24.496055 H          1 MOL1         0.0998
      17    C5      20.398463   20.897337   24.682610 C.3        1 MOL1        -0.2317
      18    H12     21.438717   21.038319   24.361281 H          1 MOL1         0.1009
      19    H13     20.382005   20.900721   25.780245 H          1 MOL1         0.1009
      20    H14     19.813679   21.759003   24.335059 H          1 MOL1         0.1009
@<TRIPOS>BOND
    1     1     2    1
    2     1     3    1
    3     1     4    1
    4     1     5    1
    5     5     6    1
    6     5     7    1
    7     7     8    1
    8     7     9    1
    9     7    10    1
   10     5    11    1
   11    11    12    1
   12    11    13    1
   13    11    14    1
   14    14    15    1
   15    14    16    1
   16    14    17    1
   17    17    18    1
   18    17    19    1
   19    17    20    1
@<TRIPOS>SUBSTRUCTURE
       1 MOL1            1 RESIDUE      1      MOL     
@<SCITEGIC>MOL_PROPERTY
VConf Rank
SciTegic.value.IntegerValue
611

@<SCITEGIC>MOL_PROPERTY
Conf_Id
SciTegic.value.IntegerValue
74

@<SCITEGIC>MOL_PROPERTY
Delta U+W
SciTegic.value.DoubleValue
0.000

@<SCITEGIC>MOL_PROPERTY
U+W
SciTegic.value.DoubleValue
-36.276

@<SCITEGIC>MOL_PROPERTY
Grad RMS
SciTegic.value.DoubleValue
0.000000

@<SCITEGIC>MOL_PROPERTY
U
SciTegic.value.DoubleValue
22.080

@<SCITEGIC>MOL_PROPERTY
W
SciTegic.value.DoubleValue
-58.356

@<SCITEGIC>MOL_PROPERTY
W(PB)
SciTegic.value.DoubleValue
-60.289

@<SCITEGIC>MOL_PROPERTY
W(SA)
SciTegic.value.DoubleValue
1.932

@<SCITEGIC>MOL_PROPERTY
Valence
SciTegic.value.DoubleValue
1.885

@<SCITEGIC>MOL_PROPERTY
Coulomb
SciTegic.value.DoubleValue
19.559

@<SCITEGIC>MOL_PROPERTY
VdW
SciTegic.value.DoubleValue
0.637

@<SCITEGIC>MOL_PROPERTY
VdW6
SciTegic.value.DoubleValue
-4.482

@<SCITEGIC>MOL_PROPERTY
VdW12
SciTegic.value.DoubleValue
5.119

@<SCITEGIC>MOL_PROPERTY
Bond
SciTegic.value.DoubleValue
0.136

@<SCITEGIC>MOL_PROPERTY
Angle
SciTegic.value.DoubleValue
0.867

@<SCITEGIC>MOL_PROPERTY
Pdih
SciTegic.value.DoubleValue
0.882

@<SCITEGIC>MOL_PROPERTY
Idih
SciTegic.value.DoubleValue
0.000

@<SCITEGIC>MOL_PROPERTY
Tether
SciTegic.value.DoubleValue
0.000

@<TRIPOS>MOLECULE
guest-s10_confgen4.mol2 : confsearch ligand conformer 612
          20          19           1
SMALL
USER_CHARGES
 
@<TRIPOS>ATOM
       1    N1      20.553610   16.806306   21.991179 N.4        1 MOL1        -0.5937
       2    H1      19.837861   16.530087   21.313490 H          1 MOL1         0.3684
       3    H2      20.378411   16.282552   22.852407 H          1 MOL1         0.3684
       4    H3      21.455556   16.492677   21.622655 H          1 MOL1         0.3684
       5    C1      20.544412   18.290485   22.235303 C.3        1 MOL1         0.1270
       6    H4      20.741363   18.763050   21.267957 H          1 MOL1         0.0960
       7    C2      21.675316   18.679004   23.205308 C.3        1 MOL1        -0.2382
       8    H5      22.637240   18.285233   22.854783 H          1 MOL1         0.1009
       9    H6      21.490924   18.280187   24.210556 H          1 MOL1         0.1009
      10    H7      21.780172   19.767351   23.281001 H          1 MOL1         0.1009
      11    C3      19.159962   18.766880   22.733131 C.3        1 MOL1        -0.1392
      12    H8      18.391660   18.366880   22.058316 H          1 MOL1         0.0998
      13    H9      18.956062   18.339394   23.723852 H          1 MOL1         0.0998
      14    C4      19.011303   20.306997   22.788832 C.3        1 MOL1        -0.1302
      15    H10     19.276561   20.740502   21.814264 H          1 MOL1         0.0998
      16    H11     19.706375   20.730675   23.525902 H          1 MOL1         0.0998
      17    C5      17.573167   20.727419   23.161242 C.3        1 MOL1        -0.2317
      18    H12     16.849188   20.358995   22.422759 H          1 MOL1         0.1009
      19    H13     17.486665   21.821091   23.199804 H          1 MOL1         0.1009
      20    H14     17.288649   20.332475   24.145279 H          1 MOL1         0.1009
@<TRIPOS>BOND
    1     1     2    1
    2     1     3    1
    3     1     4    1
    4     1     5    1
    5     5     6    1
    6     5     7    1
    7     7     8    1
    8     7     9    1
    9     7    10    1
   10     5    11    1
   11    11    12    1
   12    11    13    1
   13    11    14    1
   14    14    15    1
   15    14    16    1
   16    14    17    1
   17    17    18    1
   18    17    19    1
   19    17    20    1
@<TRIPOS>SUBSTRUCTURE
       1 MOL1            1 RESIDUE      1      MOL     
@<SCITEGIC>MOL_PROPERTY
VConf Rank
SciTegic.value.IntegerValue
612

@<SCITEGIC>MOL_PROPERTY
Conf_Id
SciTegic.value.IntegerValue
80

@<SCITEGIC>MOL_PROPERTY
Delta U+W
SciTegic.value.DoubleValue
0.460

@<SCITEGIC>MOL_PROPERTY
U+W
SciTegic.value.DoubleValue
-35.817

@<SCITEGIC>MOL_PROPERTY
Grad RMS
SciTegic.value.DoubleValue
0.000000

@<SCITEGIC>MOL_PROPERTY
U
SciTegic.value.DoubleValue
22.495

@<SCITEGIC>MOL_PROPERTY
W
SciTegic.value.DoubleValue
-58.311

@<SCITEGIC>MOL_PROPERTY
W(PB)
SciTegic.value.DoubleValue
-60.259

@<SCITEGIC>MOL_PROPERTY
W(SA)
SciTegic.value.DoubleValue
1.948

@<SCITEGIC>MOL_PROPERTY
Valence
SciTegic.value.DoubleValue
2.419

@<SCITEGIC>MOL_PROPERTY
Coulomb
SciTegic.value.DoubleValue
19.304

@<SCITEGIC>MOL_PROPERTY
VdW
SciTegic.value.DoubleValue
0.772

@<SCITEGIC>MOL_PROPERTY
VdW6
SciTegic.value.DoubleValue
-4.635

@<SCITEGIC>MOL_PROPERTY
VdW12
SciTegic.value.DoubleValue
5.407

@<SCITEGIC>MOL_PROPERTY
Bond
SciTegic.value.DoubleValue
0.149

@<SCITEGIC>MOL_PROPERTY
Angle
SciTegic.value.DoubleValue
1.142

@<SCITEGIC>MOL_PROPERTY
Pdih
SciTegic.value.DoubleValue
1.129

@<SCITEGIC>MOL_PROPERTY
Idih
SciTegic.value.DoubleValue
0.000

@<SCITEGIC>MOL_PROPERTY
Tether
SciTegic.value.DoubleValue
0.000

@<TRIPOS>MOLECULE
guest-s10_confgen4.mol2 : confsearch ligand conformer 613
          20          19           1
SMALL
USER_CHARGES
 
@<TRIPOS>ATOM
       1    N1      20.480964   21.063756   23.429862 N.4        1 MOL1        -0.5937
       2    H1      20.121235   21.792288   22.807249 H          1 MOL1         0.3684
       3    H2      21.463143   20.911050   23.187595 H          1 MOL1         0.3684
       4    H3      20.457437   21.440566   24.381217 H          1 MOL1         0.3684
       5    C1      19.681490   19.794263   23.320415 C.3        1 MOL1         0.1270
       6    H4      18.655964   20.053037   23.601720 H          1 MOL1         0.0960
       7    C2      20.202451   18.749098   24.321658 C.3        1 MOL1        -0.2382
       8    H5      20.284023   19.181833   25.326262 H          1 MOL1         0.1009
       9    H6      21.192037   18.376436   24.029603 H          1 MOL1         0.1009
      10    H7      19.515841   17.897978   24.393551 H          1 MOL1         0.1009
      11    C3      19.662499   19.273486   21.862415 C.3        1 MOL1        -0.1392
      12    H8      19.314035   20.095780   21.223589 H          1 MOL1         0.0998
      13    H9      20.683303   19.047257   21.526993 H          1 MOL1         0.0998
      14    C4      18.733412   18.055971   21.613219 C.3        1 MOL1        -0.1302
      15    H10     18.270609   18.165557   20.622299 H          1 MOL1         0.0998
      16    H11     17.903729   18.054464   22.334044 H          1 MOL1         0.0998
      17    C5      19.476090   16.699304   21.643478 C.3        1 MOL1        -0.2317
      18    H12     20.258506   16.663600   20.874279 H          1 MOL1         0.1009
      19    H13     18.778459   15.875157   21.445802 H          1 MOL1         0.1009
      20    H14     19.948609   16.508178   22.613395 H          1 MOL1         0.1009
@<TRIPOS>BOND
    1     1     2    1
    2     1     3    1
    3     1     4    1
    4     1     5    1
    5     5     6    1
    6     5     7    1
    7     7     8    1
    8     7     9    1
    9     7    10    1
   10     5    11    1
   11    11    12    1
   12    11    13    1
   13    11    14    1
   14    14    15    1
   15    14    16    1
   16    14    17    1
   17    17    18    1
   18    17    19    1
   19    17    20    1
@<TRIPOS>SUBSTRUCTURE
       1 MOL1            1 RESIDUE      1      MOL     
@<SCITEGIC>MOL_PROPERTY
VConf Rank
SciTegic.value.IntegerValue
613

@<SCITEGIC>MOL_PROPERTY
Conf_Id
SciTegic.value.IntegerValue
52

@<SCITEGIC>MOL_PROPERTY
Delta U+W
SciTegic.value.DoubleValue
2.995

@<SCITEGIC>MOL_PROPERTY
U+W
SciTegic.value.DoubleValue
-33.282

@<SCITEGIC>MOL_PROPERTY
Grad RMS
SciTegic.value.DoubleValue
0.000000

@<SCITEGIC>MOL_PROPERTY
U
SciTegic.value.DoubleValue
25.224

@<SCITEGIC>MOL_PROPERTY
W
SciTegic.value.DoubleValue
-58.506

@<SCITEGIC>MOL_PROPERTY
W(PB)
SciTegic.value.DoubleValue
-60.411

@<SCITEGIC>MOL_PROPERTY
W(SA)
SciTegic.value.DoubleValue
1.905

@<SCITEGIC>MOL_PROPERTY
Valence
SciTegic.value.DoubleValue
4.945

@<SCITEGIC>MOL_PROPERTY
Coulomb
SciTegic.value.DoubleValue
19.467

@<SCITEGIC>MOL_PROPERTY
VdW
SciTegic.value.DoubleValue
0.813

@<SCITEGIC>MOL_PROPERTY
VdW6
SciTegic.value.DoubleValue
-5.458

@<SCITEGIC>MOL_PROPERTY
VdW12
SciTegic.value.DoubleValue
6.270

@<SCITEGIC>MOL_PROPERTY
Bond
SciTegic.value.DoubleValue
0.200

@<SCITEGIC>MOL_PROPERTY
Angle
SciTegic.value.DoubleValue
1.675

@<SCITEGIC>MOL_PROPERTY
Pdih
SciTegic.value.DoubleValue
3.070

@<SCITEGIC>MOL_PROPERTY
Idih
SciTegic.value.DoubleValue
0.000

@<SCITEGIC>MOL_PROPERTY
Tether
SciTegic.value.DoubleValue
0.000

@<TRIPOS>MOLECULE
guest-s10_confgen4.mol2 : confsearch ligand conformer 614
          20          19           1
SMALL
USER_CHARGES
 
@<TRIPOS>ATOM
       1    N1      20.160952   20.355950   23.559314 N.4        1 MOL1        -0.5937
       2    H1      20.539913   20.015498   24.446364 H          1 MOL1         0.3684
       3    H2      19.875714   21.328604   23.701548 H          1 MOL1         0.3684
       4    H3      20.924532   20.354085   22.879661 H          1 MOL1         0.3684
       5    C1      19.011382   19.505673   23.091586 C.3        1 MOL1         0.1270
       6    H4      18.630731   19.957058   22.170125 H          1 MOL1         0.0960
       7    C2      17.885431   19.529012   24.139178 C.3        1 MOL1        -0.2382
       8    H5      18.210627   19.071517   25.081943 H          1 MOL1         0.1009
       9    H6      17.005078   18.981960   23.779513 H          1 MOL1         0.1009
      10    H7      17.571221   20.558788   24.349344 H          1 MOL1         0.1009
      11    C3      19.430106   18.048581   22.782093 C.3        1 MOL1        -0.1392
      12    H8      20.043394   17.652942   23.602411 H          1 MOL1         0.0998
      13    H9      18.527568   17.423487   22.754370 H          1 MOL1         0.0998
      14    C4      20.161131   17.855816   21.427452 C.3        1 MOL1        -0.1302
      15    H10     19.521082   18.210939   20.607537 H          1 MOL1         0.0998
      16    H11     20.294737   16.777606   21.261203 H          1 MOL1         0.0998
      17    C5      21.545213   18.537524   21.333653 C.3        1 MOL1        -0.2317
      18    H12     22.078066   18.191286   20.438403 H          1 MOL1         0.1009
      19    H13     22.168854   18.297318   22.204681 H          1 MOL1         0.1009
      20    H14     21.454661   19.626624   21.249395 H          1 MOL1         0.1009
@<TRIPOS>BOND
    1     1     2    1
    2     1     3    1
    3     1     4    1
    4     1     5    1
    5     5     6    1
    6     5     7    1
    7     7     8    1
    8     7     9    1
    9     7    10    1
   10     5    11    1
   11    11    12    1
   12    11    13    1
   13    11    14    1
   14    14    15    1
   15    14    16    1
   16    14    17    1
   17    17    18    1
   18    17    19    1
   19    17    20    1
@<TRIPOS>SUBSTRUCTURE
       1 MOL1            1 RESIDUE      1      MOL     
@<SCITEGIC>MOL_PROPERTY
VConf Rank
SciTegic.value.IntegerValue
614

@<SCITEGIC>MOL_PROPERTY
Conf_Id
SciTegic.value.IntegerValue
54

@<SCITEGIC>MOL_PROPERTY
Delta U+W
SciTegic.value.DoubleValue
2.752

@<SCITEGIC>MOL_PROPERTY
U+W
SciTegic.value.DoubleValue
-33.525

@<SCITEGIC>MOL_PROPERTY
Grad RMS
SciTegic.value.DoubleValue
0.000000

@<SCITEGIC>MOL_PROPERTY
U
SciTegic.value.DoubleValue
24.337

@<SCITEGIC>MOL_PROPERTY
W
SciTegic.value.DoubleValue
-57.862

@<SCITEGIC>MOL_PROPERTY
W(PB)
SciTegic.value.DoubleValue
-59.764

@<SCITEGIC>MOL_PROPERTY
W(SA)
SciTegic.value.DoubleValue
1.901

@<SCITEGIC>MOL_PROPERTY
Valence
SciTegic.value.DoubleValue
3.593

@<SCITEGIC>MOL_PROPERTY
Coulomb
SciTegic.value.DoubleValue
20.067

@<SCITEGIC>MOL_PROPERTY
VdW
SciTegic.value.DoubleValue
0.677

@<SCITEGIC>MOL_PROPERTY
VdW6
SciTegic.value.DoubleValue
-5.466

@<SCITEGIC>MOL_PROPERTY
VdW12
SciTegic.value.DoubleValue
6.144

@<SCITEGIC>MOL_PROPERTY
Bond
SciTegic.value.DoubleValue
0.191

@<SCITEGIC>MOL_PROPERTY
Angle
SciTegic.value.DoubleValue
1.557

@<SCITEGIC>MOL_PROPERTY
Pdih
SciTegic.value.DoubleValue
1.845

@<SCITEGIC>MOL_PROPERTY
Idih
SciTegic.value.DoubleValue
0.000

@<SCITEGIC>MOL_PROPERTY
Tether
SciTegic.value.DoubleValue
0.000

@<TRIPOS>MOLECULE
guest-s10_confgen4.mol2 : confsearch ligand conformer 615
          20          19           1
SMALL
USER_CHARGES
 
@<TRIPOS>ATOM
       1    N1      19.588047   20.872200   21.945905 N.4        1 MOL1        -0.5937
       2    H1      19.028591   21.728869   21.973871 H          1 MOL1         0.3684
       3    H2      20.002547   20.810561   21.012041 H          1 MOL1         0.3684
       4    H3      20.353008   20.985175   22.614873 H          1 MOL1         0.3684
       5    C1      18.754990   19.659902   22.262505 C.3        1 MOL1         0.1270
       6    H4      17.960410   19.633833   21.510185 H          1 MOL1         0.0960
       7    C2      18.083908   19.794733   23.641024 C.3        1 MOL1        -0.2382
       8    H5      17.479040   18.908333   23.868841 H          1 MOL1         0.1009
       9    H6      17.416871   20.665259   23.659268 H          1 MOL1         0.1009
      10    H7      18.822158   19.922378   24.441483 H          1 MOL1         0.1009
      11    C3      19.553614   18.340859   22.130676 C.3        1 MOL1        -0.1392
      12    H8      18.868652   17.496673   22.285311 H          1 MOL1         0.0998
      13    H9      19.910440   18.253207   21.096076 H          1 MOL1         0.0998
      14    C4      20.758529   18.205770   23.097256 C.3        1 MOL1        -0.1302
      15    H10     20.415093   18.239126   24.139826 H          1 MOL1         0.0998
      16    H11     21.449681   19.048485   22.961970 H          1 MOL1         0.0998
      17    C5      21.524440   16.885378   22.866453 C.3        1 MOL1        -0.2317
      18    H12     22.372460   16.802917   23.558645 H          1 MOL1         0.1009
      19    H13     21.919003   16.830688   21.843442 H          1 MOL1         0.1009
      20    H14     20.872594   16.016959   23.028220 H          1 MOL1         0.1009
@<TRIPOS>BOND
    1     1     2    1
    2     1     3    1
    3     1     4    1
    4     1     5    1
    5     5     6    1
    6     5     7    1
    7     7     8    1
    8     7     9    1
    9     7    10    1
   10     5    11    1
   11    11    12    1
   12    11    13    1
   13    11    14    1
   14    14    15    1
   15    14    16    1
   16    14    17    1
   17    17    18    1
   18    17    19    1
   19    17    20    1
@<TRIPOS>SUBSTRUCTURE
       1 MOL1            1 RESIDUE      1      MOL     
@<SCITEGIC>MOL_PROPERTY
VConf Rank
SciTegic.value.IntegerValue
615

@<SCITEGIC>MOL_PROPERTY
Conf_Id
SciTegic.value.IntegerValue
63

@<SCITEGIC>MOL_PROPERTY
Delta U+W
SciTegic.value.DoubleValue
0.420

@<SCITEGIC>MOL_PROPERTY
U+W
SciTegic.value.DoubleValue
-35.856

@<SCITEGIC>MOL_PROPERTY
Grad RMS
SciTegic.value.DoubleValue
0.000000

@<SCITEGIC>MOL_PROPERTY
U
SciTegic.value.DoubleValue
22.625

@<SCITEGIC>MOL_PROPERTY
W
SciTegic.value.DoubleValue
-58.481

@<SCITEGIC>MOL_PROPERTY
W(PB)
SciTegic.value.DoubleValue
-60.400

@<SCITEGIC>MOL_PROPERTY
W(SA)
SciTegic.value.DoubleValue
1.919

@<SCITEGIC>MOL_PROPERTY
Valence
SciTegic.value.DoubleValue
2.404

@<SCITEGIC>MOL_PROPERTY
Coulomb
SciTegic.value.DoubleValue
19.464

@<SCITEGIC>MOL_PROPERTY
VdW
SciTegic.value.DoubleValue
0.757

@<SCITEGIC>MOL_PROPERTY
VdW6
SciTegic.value.DoubleValue
-5.074

@<SCITEGIC>MOL_PROPERTY
VdW12
SciTegic.value.DoubleValue
5.830

@<SCITEGIC>MOL_PROPERTY
Bond
SciTegic.value.DoubleValue
0.172

@<SCITEGIC>MOL_PROPERTY
Angle
SciTegic.value.DoubleValue
1.207

@<SCITEGIC>MOL_PROPERTY
Pdih
SciTegic.value.DoubleValue
1.025

@<SCITEGIC>MOL_PROPERTY
Idih
SciTegic.value.DoubleValue
0.000

@<SCITEGIC>MOL_PROPERTY
Tether
SciTegic.value.DoubleValue
0.000

@<TRIPOS>MOLECULE
guest-s10_confgen4.mol2 : confsearch ligand conformer 616
          20          19           1
SMALL
USER_CHARGES
 
@<TRIPOS>ATOM
       1    N1      17.946468   18.986124   23.106290 N.4        1 MOL1        -0.5937
       2    H1      17.846783   18.663156   22.140563 H          1 MOL1         0.3684
       3    H2      17.595301   19.946005   23.147894 H          1 MOL1         0.3684
       4    H3      17.331044   18.409779   23.686482 H          1 MOL1         0.3684
       5    C1      19.376750   18.902045   23.566073 C.3        1 MOL1         0.1270
       6    H4      19.669431   17.850306   23.493200 H          1 MOL1         0.0960
       7    C2      19.500551   19.331986   25.036902 C.3        1 MOL1        -0.2382
       8    H5      18.854693   18.718134   25.676659 H          1 MOL1         0.1009
       9    H6      19.213687   20.382634   25.169571 H          1 MOL1         0.1009
      10    H7      20.531414   19.211874   25.392592 H          1 MOL1         0.1009
      11    C3      20.332240   19.733445   22.680186 C.3        1 MOL1        -0.1392
      12    H8      20.064478   20.795916   22.752932 H          1 MOL1         0.0998
      13    H9      21.352760   19.646811   23.076368 H          1 MOL1         0.0998
      14    C4      20.341290   19.314066   21.188228 C.3        1 MOL1        -0.1302
      15    H10     21.042821   19.961968   20.644188 H          1 MOL1         0.0998
      16    H11     19.355460   19.491702   20.737505 H          1 MOL1         0.0998
      17    C5      20.753942   17.839634   20.975780 C.3        1 MOL1        -0.2317
      18    H12     21.737998   17.637699   21.418540 H          1 MOL1         0.1009
      19    H13     20.815479   17.608134   19.904478 H          1 MOL1         0.1009
      20    H14     20.028766   17.147714   21.422169 H          1 MOL1         0.1009
@<TRIPOS>BOND
    1     1     2    1
    2     1     3    1
    3     1     4    1
    4     1     5    1
    5     5     6    1
    6     5     7    1
    7     7     8    1
    8     7     9    1
    9     7    10    1
   10     5    11    1
   11    11    12    1
   12    11    13    1
   13    11    14    1
   14    14    15    1
   15    14    16    1
   16    14    17    1
   17    17    18    1
   18    17    19    1
   19    17    20    1
@<TRIPOS>SUBSTRUCTURE
       1 MOL1            1 RESIDUE      1      MOL     
@<SCITEGIC>MOL_PROPERTY
VConf Rank
SciTegic.value.IntegerValue
616

@<SCITEGIC>MOL_PROPERTY
Conf_Id
SciTegic.value.IntegerValue
50

@<SCITEGIC>MOL_PROPERTY
Delta U+W
SciTegic.value.DoubleValue
0.466

@<SCITEGIC>MOL_PROPERTY
U+W
SciTegic.value.DoubleValue
-35.811

@<SCITEGIC>MOL_PROPERTY
Grad RMS
SciTegic.value.DoubleValue
0.000000

@<SCITEGIC>MOL_PROPERTY
U
SciTegic.value.DoubleValue
22.369

@<SCITEGIC>MOL_PROPERTY
W
SciTegic.value.DoubleValue
-58.180

@<SCITEGIC>MOL_PROPERTY
W(PB)
SciTegic.value.DoubleValue
-60.103

@<SCITEGIC>MOL_PROPERTY
W(SA)
SciTegic.value.DoubleValue
1.923

@<SCITEGIC>MOL_PROPERTY
Valence
SciTegic.value.DoubleValue
2.168

@<SCITEGIC>MOL_PROPERTY
Coulomb
SciTegic.value.DoubleValue
19.636

@<SCITEGIC>MOL_PROPERTY
VdW
SciTegic.value.DoubleValue
0.566

@<SCITEGIC>MOL_PROPERTY
VdW6
SciTegic.value.DoubleValue
-5.263

@<SCITEGIC>MOL_PROPERTY
VdW12
SciTegic.value.DoubleValue
5.829

@<SCITEGIC>MOL_PROPERTY
Bond
SciTegic.value.DoubleValue
0.162

@<SCITEGIC>MOL_PROPERTY
Angle
SciTegic.value.DoubleValue
1.066

@<SCITEGIC>MOL_PROPERTY
Pdih
SciTegic.value.DoubleValue
0.939

@<SCITEGIC>MOL_PROPERTY
Idih
SciTegic.value.DoubleValue
0.000

@<SCITEGIC>MOL_PROPERTY
Tether
SciTegic.value.DoubleValue
0.000

@<TRIPOS>MOLECULE
guest-s10_confgen4.mol2 : confsearch ligand conformer 617
          20          19           1
SMALL
USER_CHARGES
 
@<TRIPOS>ATOM
       1    N1      21.834340   18.025938   22.707215 N.4        1 MOL1        -0.5937
       2    H1      22.373476   18.699950   22.156728 H          1 MOL1         0.3684
       3    H2      21.786185   17.157614   22.168172 H          1 MOL1         0.3684
       4    H3      22.373091   17.828325   23.554818 H          1 MOL1         0.3684
       5    C1      20.462295   18.549189   23.036276 C.3        1 MOL1         0.1270
       6    H4      20.616266   19.471692   23.604646 H          1 MOL1         0.0960
       7    C2      19.713113   17.540041   23.926394 C.3        1 MOL1        -0.2382
       8    H5      19.578893   16.581267   23.410251 H          1 MOL1         0.1009
       9    H6      18.722153   17.910787   24.209828 H          1 MOL1         0.1009
      10    H7      20.271991   17.351388   24.851161 H          1 MOL1         0.1009
      11    C3      19.655348   18.897827   21.761317 C.3        1 MOL1        -0.1392
      12    H8      20.345046   18.980909   20.910972 H          1 MOL1         0.0998
      13    H9      18.968949   18.079487   21.505997 H          1 MOL1         0.0998
      14    C4      18.878037   20.235157   21.856804 C.3        1 MOL1        -0.1302
      15    H10     18.403643   20.435251   20.885802 H          1 MOL1         0.0998
      16    H11     19.584886   21.059570   22.026478 H          1 MOL1         0.0998
      17    C5      17.791450   20.257837   22.954553 C.3        1 MOL1        -0.2317
      18    H12     17.092501   19.419462   22.837828 H          1 MOL1         0.1009
      19    H13     17.210549   21.187670   22.899723 H          1 MOL1         0.1009
      20    H14     18.233469   20.206686   23.957365 H          1 MOL1         0.1009
@<TRIPOS>BOND
    1     1     2    1
    2     1     3    1
    3     1     4    1
    4     1     5    1
    5     5     6    1
    6     5     7    1
    7     7     8    1
    8     7     9    1
    9     7    10    1
   10     5    11    1
   11    11    12    1
   12    11    13    1
   13    11    14    1
   14    14    15    1
   15    14    16    1
   16    14    17    1
   17    17    18    1
   18    17    19    1
   19    17    20    1
@<TRIPOS>SUBSTRUCTURE
       1 MOL1            1 RESIDUE      1      MOL     
@<SCITEGIC>MOL_PROPERTY
VConf Rank
SciTegic.value.IntegerValue
617

@<SCITEGIC>MOL_PROPERTY
Conf_Id
SciTegic.value.IntegerValue
3

@<SCITEGIC>MOL_PROPERTY
Delta U+W
SciTegic.value.DoubleValue
3.093

@<SCITEGIC>MOL_PROPERTY
U+W
SciTegic.value.DoubleValue
-33.184

@<SCITEGIC>MOL_PROPERTY
Grad RMS
SciTegic.value.DoubleValue
0.000000

@<SCITEGIC>MOL_PROPERTY
U
SciTegic.value.DoubleValue
25.256

@<SCITEGIC>MOL_PROPERTY
W
SciTegic.value.DoubleValue
-58.439

@<SCITEGIC>MOL_PROPERTY
W(PB)
SciTegic.value.DoubleValue
-60.337

@<SCITEGIC>MOL_PROPERTY
W(SA)
SciTegic.value.DoubleValue
1.898

@<SCITEGIC>MOL_PROPERTY
Valence
SciTegic.value.DoubleValue
4.963

@<SCITEGIC>MOL_PROPERTY
Coulomb
SciTegic.value.DoubleValue
19.511

@<SCITEGIC>MOL_PROPERTY
VdW
SciTegic.value.DoubleValue
0.782

@<SCITEGIC>MOL_PROPERTY
VdW6
SciTegic.value.DoubleValue
-5.429

@<SCITEGIC>MOL_PROPERTY
VdW12
SciTegic.value.DoubleValue
6.211

@<SCITEGIC>MOL_PROPERTY
Bond
SciTegic.value.DoubleValue
0.174

@<SCITEGIC>MOL_PROPERTY
Angle
SciTegic.value.DoubleValue
1.377

@<SCITEGIC>MOL_PROPERTY
Pdih
SciTegic.value.DoubleValue
3.412

@<SCITEGIC>MOL_PROPERTY
Idih
SciTegic.value.DoubleValue
0.000

@<SCITEGIC>MOL_PROPERTY
Tether
SciTegic.value.DoubleValue
0.000

@<TRIPOS>MOLECULE
guest-s10_confgen4.mol2 : confsearch ligand conformer 618
          20          19           1
SMALL
USER_CHARGES
 
@<TRIPOS>ATOM
       1    N1      18.137270   20.238216   23.832986 N.4        1 MOL1        -0.5937
       2    H1      17.856922   21.163104   23.495905 H          1 MOL1         0.3684
       3    H2      18.541606   20.365764   24.764691 H          1 MOL1         0.3684
       4    H3      17.284708   19.683372   23.942395 H          1 MOL1         0.3684
       5    C1      19.108130   19.579723   22.891604 C.3        1 MOL1         0.1270
       6    H4      19.977568   20.241562   22.835539 H          1 MOL1         0.0960
       7    C2      18.494348   19.463159   21.484555 C.3        1 MOL1        -0.2382
       8    H5      19.234843   19.114808   20.755272 H          1 MOL1         0.1009
       9    H6      18.132450   20.439051   21.138437 H          1 MOL1         0.1009
      10    H7      17.648761   18.764296   21.476790 H          1 MOL1         0.1009
      11    C3      19.575097   18.209073   23.437214 C.3        1 MOL1        -0.1392
      12    H8      19.926736   18.342865   24.468705 H          1 MOL1         0.0998
      13    H9      18.715104   17.528750   23.494727 H          1 MOL1         0.0998
      14    C4      20.704581   17.529414   22.621474 C.3        1 MOL1        -0.1302
      15    H10     20.342650   17.258951   21.620411 H          1 MOL1         0.0998
      16    H11     20.970236   16.581676   23.110410 H          1 MOL1         0.0998
      17    C5      21.973943   18.402958   22.499848 C.3        1 MOL1        -0.2317
      18    H12     22.353189   18.688574   23.489673 H          1 MOL1         0.1009
      19    H13     21.779507   19.319577   21.928824 H          1 MOL1         0.1009
      20    H14     22.770660   17.853573   21.981741 H          1 MOL1         0.1009
@<TRIPOS>BOND
    1     1     2    1
    2     1     3    1
    3     1     4    1
    4     1     5    1
    5     5     6    1
    6     5     7    1
    7     7     8    1
    8     7     9    1
    9     7    10    1
   10     5    11    1
   11    11    12    1
   12    11    13    1
   13    11    14    1
   14    14    15    1
   15    14    16    1
   16    14    17    1
   17    17    18    1
   18    17    19    1
   19    17    20    1
@<TRIPOS>SUBSTRUCTURE
       1 MOL1            1 RESIDUE      1      MOL     
@<SCITEGIC>MOL_PROPERTY
VConf Rank
SciTegic.value.IntegerValue
618

@<SCITEGIC>MOL_PROPERTY
Conf_Id
SciTegic.value.IntegerValue
64

@<SCITEGIC>MOL_PROPERTY
Delta U+W
SciTegic.value.DoubleValue
0.544

@<SCITEGIC>MOL_PROPERTY
U+W
SciTegic.value.DoubleValue
-35.732

@<SCITEGIC>MOL_PROPERTY
Grad RMS
SciTegic.value.DoubleValue
0.000000

@<SCITEGIC>MOL_PROPERTY
U
SciTegic.value.DoubleValue
22.800

@<SCITEGIC>MOL_PROPERTY
W
SciTegic.value.DoubleValue
-58.532

@<SCITEGIC>MOL_PROPERTY
W(PB)
SciTegic.value.DoubleValue
-60.437

@<SCITEGIC>MOL_PROPERTY
W(SA)
SciTegic.value.DoubleValue
1.905

@<SCITEGIC>MOL_PROPERTY
Valence
SciTegic.value.DoubleValue
2.662

@<SCITEGIC>MOL_PROPERTY
Coulomb
SciTegic.value.DoubleValue
19.485

@<SCITEGIC>MOL_PROPERTY
VdW
SciTegic.value.DoubleValue
0.653

@<SCITEGIC>MOL_PROPERTY
VdW6
SciTegic.value.DoubleValue
-5.460

@<SCITEGIC>MOL_PROPERTY
VdW12
SciTegic.value.DoubleValue
6.113

@<SCITEGIC>MOL_PROPERTY
Bond
SciTegic.value.DoubleValue
0.174

@<SCITEGIC>MOL_PROPERTY
Angle
SciTegic.value.DoubleValue
1.378

@<SCITEGIC>MOL_PROPERTY
Pdih
SciTegic.value.DoubleValue
1.109

@<SCITEGIC>MOL_PROPERTY
Idih
SciTegic.value.DoubleValue
0.000

@<SCITEGIC>MOL_PROPERTY
Tether
SciTegic.value.DoubleValue
0.000

@<TRIPOS>MOLECULE
guest-s10_confgen4.mol2 : confsearch ligand conformer 619
          20          19           1
SMALL
USER_CHARGES
 
@<TRIPOS>ATOM
       1    N1      20.081786   20.590050   23.957663 N.4        1 MOL1        -0.5937
       2    H1      19.141183   20.290809   24.224110 H          1 MOL1         0.3684
       3    H2      20.050842   21.602857   23.813177 H          1 MOL1         0.3684
       4    H3      20.697404   20.416186   24.756691 H          1 MOL1         0.3684
       5    C1      20.559565   19.872515   22.724090 C.3        1 MOL1         0.1270
       6    H4      21.559380   20.266789   22.517014 H          1 MOL1         0.0960
       7    C2      19.672812   20.211504   21.514760 C.3        1 MOL1        -0.2382
       8    H5      18.621781   19.965643   21.706060 H          1 MOL1         0.1009
       9    H6      20.002973   19.665419   20.622503 H          1 MOL1         0.1009
      10    H7      19.728099   21.283192   21.288045 H          1 MOL1         0.1009
      11    C3      20.713862   18.347618   22.951732 C.3        1 MOL1        -0.1392
      12    H8      21.225714   17.900597   22.089364 H          1 MOL1         0.0998
      13    H9      21.400784   18.210196   23.797152 H          1 MOL1         0.0998
      14    C4      19.407141   17.562488   23.253853 C.3        1 MOL1        -0.1302
      15    H10     18.683468   18.195303   23.784157 H          1 MOL1         0.0998
      16    H11     19.648419   16.741647   23.943771 H          1 MOL1         0.0998
      17    C5      18.752567   16.944384   21.995988 C.3        1 MOL1        -0.2317
      18    H12     18.440968   17.707435   21.274436 H          1 MOL1         0.1009
      19    H13     17.860552   16.367471   22.272477 H          1 MOL1         0.1009
      20    H14     19.445316   16.260842   21.488137 H          1 MOL1         0.1009
@<TRIPOS>BOND
    1     1     2    1
    2     1     3    1
    3     1     4    1
    4     1     5    1
    5     5     6    1
    6     5     7    1
    7     7     8    1
    8     7     9    1
    9     7    10    1
   10     5    11    1
   11    11    12    1
   12    11    13    1
   13    11    14    1
   14    14    15    1
   15    14    16    1
   16    14    17    1
   17    17    18    1
   18    17    19    1
   19    17    20    1
@<TRIPOS>SUBSTRUCTURE
       1 MOL1            1 RESIDUE      1      MOL     
@<SCITEGIC>MOL_PROPERTY
VConf Rank
SciTegic.value.IntegerValue
619

@<SCITEGIC>MOL_PROPERTY
Conf_Id
SciTegic.value.IntegerValue
35

@<SCITEGIC>MOL_PROPERTY
Delta U+W
SciTegic.value.DoubleValue
3.004

@<SCITEGIC>MOL_PROPERTY
U+W
SciTegic.value.DoubleValue
-33.272

@<SCITEGIC>MOL_PROPERTY
Grad RMS
SciTegic.value.DoubleValue
0.000000

@<SCITEGIC>MOL_PROPERTY
U
SciTegic.value.DoubleValue
25.367

@<SCITEGIC>MOL_PROPERTY
W
SciTegic.value.DoubleValue
-58.639

@<SCITEGIC>MOL_PROPERTY
W(PB)
SciTegic.value.DoubleValue
-60.512

@<SCITEGIC>MOL_PROPERTY
W(SA)
SciTegic.value.DoubleValue
1.873

@<SCITEGIC>MOL_PROPERTY
Valence
SciTegic.value.DoubleValue
4.943

@<SCITEGIC>MOL_PROPERTY
Coulomb
SciTegic.value.DoubleValue
19.661

@<SCITEGIC>MOL_PROPERTY
VdW
SciTegic.value.DoubleValue
0.764

@<SCITEGIC>MOL_PROPERTY
VdW6
SciTegic.value.DoubleValue
-5.871

@<SCITEGIC>MOL_PROPERTY
VdW12
SciTegic.value.DoubleValue
6.636

@<SCITEGIC>MOL_PROPERTY
Bond
SciTegic.value.DoubleValue
0.230

@<SCITEGIC>MOL_PROPERTY
Angle
SciTegic.value.DoubleValue
1.857

@<SCITEGIC>MOL_PROPERTY
Pdih
SciTegic.value.DoubleValue
2.855

@<SCITEGIC>MOL_PROPERTY
Idih
SciTegic.value.DoubleValue
0.000

@<SCITEGIC>MOL_PROPERTY
Tether
SciTegic.value.DoubleValue
0.000

@<TRIPOS>MOLECULE
guest-s10_confgen4.mol2 : confsearch ligand conformer 620
          20          19           1
SMALL
USER_CHARGES
 
@<TRIPOS>ATOM
       1    N1      18.886501   20.110561   21.681727 N.4        1 MOL1        -0.5937
       2    H1      18.225488   20.882526   21.803107 H          1 MOL1         0.3684
       3    H2      18.811148   19.794802   20.711058 H          1 MOL1         0.3684
       4    H3      19.828252   20.485906   21.809084 H          1 MOL1         0.3684
       5    C1      18.611305   18.991134   22.647964 C.3        1 MOL1         0.1270
       6    H4      17.599273   18.647613   22.411931 H          1 MOL1         0.0960
       7    C2      18.596388   19.495342   24.101946 C.3        1 MOL1        -0.2382
       8    H5      19.556132   19.943823   24.384878 H          1 MOL1         0.1009
       9    H6      18.382174   18.673540   24.796334 H          1 MOL1         0.1009
      10    H7      17.817945   20.256127   24.236855 H          1 MOL1         0.1009
      11    C3      19.553832   17.775738   22.453627 C.3        1 MOL1        -0.1392
      12    H8      19.095553   16.915668   22.959394 H          1 MOL1         0.0998
      13    H9      19.575186   17.509187   21.388868 H          1 MOL1         0.0998
      14    C4      21.011236   17.912793   22.976874 C.3        1 MOL1        -0.1302
      15    H10     21.525180   16.956997   22.803259 H          1 MOL1         0.0998
      16    H11     21.013198   18.054287   24.066189 H          1 MOL1         0.0998
      17    C5      21.835116   19.035007   22.305473 C.3        1 MOL1        -0.2317
      18    H12     21.780446   18.969006   21.211034 H          1 MOL1         0.1009
      19    H13     22.891959   18.952931   22.590984 H          1 MOL1         0.1009
      20    H14     21.494300   20.028555   22.618484 H          1 MOL1         0.1009
@<TRIPOS>BOND
    1     1     2    1
    2     1     3    1
    3     1     4    1
    4     1     5    1
    5     5     6    1
    6     5     7    1
    7     7     8    1
    8     7     9    1
    9     7    10    1
   10     5    11    1
   11    11    12    1
   12    11    13    1
   13    11    14    1
   14    14    15    1
   15    14    16    1
   16    14    17    1
   17    17    18    1
   18    17    19    1
   19    17    20    1
@<TRIPOS>SUBSTRUCTURE
       1 MOL1            1 RESIDUE      1      MOL     
@<SCITEGIC>MOL_PROPERTY
VConf Rank
SciTegic.value.IntegerValue
620

@<SCITEGIC>MOL_PROPERTY
Conf_Id
SciTegic.value.IntegerValue
55

@<SCITEGIC>MOL_PROPERTY
Delta U+W
SciTegic.value.DoubleValue
2.767

@<SCITEGIC>MOL_PROPERTY
U+W
SciTegic.value.DoubleValue
-33.509

@<SCITEGIC>MOL_PROPERTY
Grad RMS
SciTegic.value.DoubleValue
0.000000

@<SCITEGIC>MOL_PROPERTY
U
SciTegic.value.DoubleValue
24.552

@<SCITEGIC>MOL_PROPERTY
W
SciTegic.value.DoubleValue
-58.061

@<SCITEGIC>MOL_PROPERTY
W(PB)
SciTegic.value.DoubleValue
-59.930

@<SCITEGIC>MOL_PROPERTY
W(SA)
SciTegic.value.DoubleValue
1.869

@<SCITEGIC>MOL_PROPERTY
Valence
SciTegic.value.DoubleValue
3.726

@<SCITEGIC>MOL_PROPERTY
Coulomb
SciTegic.value.DoubleValue
20.219

@<SCITEGIC>MOL_PROPERTY
VdW
SciTegic.value.DoubleValue
0.606

@<SCITEGIC>MOL_PROPERTY
VdW6
SciTegic.value.DoubleValue
-6.395

@<SCITEGIC>MOL_PROPERTY
VdW12
SciTegic.value.DoubleValue
7.001

@<SCITEGIC>MOL_PROPERTY
Bond
SciTegic.value.DoubleValue
0.241

@<SCITEGIC>MOL_PROPERTY
Angle
SciTegic.value.DoubleValue
2.098

@<SCITEGIC>MOL_PROPERTY
Pdih
SciTegic.value.DoubleValue
1.387

@<SCITEGIC>MOL_PROPERTY
Idih
SciTegic.value.DoubleValue
0.000

@<SCITEGIC>MOL_PROPERTY
Tether
SciTegic.value.DoubleValue
0.000

@<TRIPOS>MOLECULE
guest-s10_confgen4.mol2 : confsearch ligand conformer 621
          20          19           1
SMALL
USER_CHARGES
 
@<TRIPOS>ATOM
       1    N1      18.821696   17.814593   24.034190 N.4        1 MOL1        -0.5937
       2    H1      19.417795   16.988893   23.937083 H          1 MOL1         0.3684
       3    H2      17.913917   17.496199   24.383788 H          1 MOL1         0.3684
       4    H3      19.234366   18.408551   24.757723 H          1 MOL1         0.3684
       5    C1      18.681916   18.550427   22.728789 C.3        1 MOL1         0.1270
       6    H4      18.037949   19.414145   22.921626 H          1 MOL1         0.0960
       7    C2      17.993894   17.662223   21.679176 C.3        1 MOL1        -0.2382
       8    H5      17.015096   17.322322   22.039297 H          1 MOL1         0.1009
       9    H6      18.599689   16.776861   21.449091 H          1 MOL1         0.1009
      10    H7      17.830420   18.215939   20.746270 H          1 MOL1         0.1009
      11    C3      20.034599   19.067396   22.191071 C.3        1 MOL1        -0.1392
      12    H8      20.709340   18.219867   22.011249 H          1 MOL1         0.0998
      13    H9      19.868566   19.547050   21.217196 H          1 MOL1         0.0998
      14    C4      20.714086   20.085067   23.138786 C.3        1 MOL1        -0.1302
      15    H10     20.942416   19.611994   24.103406 H          1 MOL1         0.0998
      16    H11     20.024269   20.915232   23.346683 H          1 MOL1         0.0998
      17    C5      22.019102   20.644697   22.532939 C.3        1 MOL1        -0.2317
      18    H12     22.742146   19.841037   22.341646 H          1 MOL1         0.1009
      19    H13     22.487869   21.362926   23.218132 H          1 MOL1         0.1009
      20    H14     21.824877   21.162511   21.584584 H          1 MOL1         0.1009
@<TRIPOS>BOND
    1     1     2    1
    2     1     3    1
    3     1     4    1
    4     1     5    1
    5     5     6    1
    6     5     7    1
    7     7     8    1
    8     7     9    1
    9     7    10    1
   10     5    11    1
   11    11    12    1
   12    11    13    1
   13    11    14    1
   14    14    15    1
   15    14    16    1
   16    14    17    1
   17    17    18    1
   18    17    19    1
   19    17    20    1
@<TRIPOS>SUBSTRUCTURE
       1 MOL1            1 RESIDUE      1      MOL     
@<SCITEGIC>MOL_PROPERTY
VConf Rank
SciTegic.value.IntegerValue
621

@<SCITEGIC>MOL_PROPERTY
Conf_Id
SciTegic.value.IntegerValue
74

@<SCITEGIC>MOL_PROPERTY
Delta U+W
SciTegic.value.DoubleValue
0.000

@<SCITEGIC>MOL_PROPERTY
U+W
SciTegic.value.DoubleValue
-36.276

@<SCITEGIC>MOL_PROPERTY
Grad RMS
SciTegic.value.DoubleValue
0.000000

@<SCITEGIC>MOL_PROPERTY
U
SciTegic.value.DoubleValue
22.080

@<SCITEGIC>MOL_PROPERTY
W
SciTegic.value.DoubleValue
-58.356

@<SCITEGIC>MOL_PROPERTY
W(PB)
SciTegic.value.DoubleValue
-60.289

@<SCITEGIC>MOL_PROPERTY
W(SA)
SciTegic.value.DoubleValue
1.932

@<SCITEGIC>MOL_PROPERTY
Valence
SciTegic.value.DoubleValue
1.885

@<SCITEGIC>MOL_PROPERTY
Coulomb
SciTegic.value.DoubleValue
19.559

@<SCITEGIC>MOL_PROPERTY
VdW
SciTegic.value.DoubleValue
0.637

@<SCITEGIC>MOL_PROPERTY
VdW6
SciTegic.value.DoubleValue
-4.482

@<SCITEGIC>MOL_PROPERTY
VdW12
SciTegic.value.DoubleValue
5.119

@<SCITEGIC>MOL_PROPERTY
Bond
SciTegic.value.DoubleValue
0.136

@<SCITEGIC>MOL_PROPERTY
Angle
SciTegic.value.DoubleValue
0.867

@<SCITEGIC>MOL_PROPERTY
Pdih
SciTegic.value.DoubleValue
0.882

@<SCITEGIC>MOL_PROPERTY
Idih
SciTegic.value.DoubleValue
0.000

@<SCITEGIC>MOL_PROPERTY
Tether
SciTegic.value.DoubleValue
0.000

@<TRIPOS>MOLECULE
guest-s10_confgen4.mol2 : confsearch ligand conformer 622
          20          19           1
SMALL
USER_CHARGES
 
@<TRIPOS>ATOM
       1    N1      21.275954   20.650952   23.359780 N.4        1 MOL1        -0.5937
       2    H1      20.749390   21.498150   23.129904 H          1 MOL1         0.3684
       3    H2      21.966711   20.509024   22.618540 H          1 MOL1         0.3684
       4    H3      21.791363   20.840702   24.223510 H          1 MOL1         0.3684
       5    C1      20.371920   19.458041   23.508621 C.3        1 MOL1         0.1270
       6    H4      19.675627   19.698256   24.318151 H          1 MOL1         0.0960
       7    C2      21.187146   18.218451   23.920475 C.3        1 MOL1        -0.2382
       8    H5      21.798506   18.434594   24.805202 H          1 MOL1         0.1009
       9    H6      21.858173   17.898317   23.113743 H          1 MOL1         0.1009
      10    H7      20.532880   17.377597   24.177625 H          1 MOL1         0.1009
      11    C3      19.550788   19.214406   22.221038 C.3        1 MOL1        -0.1392
      12    H8      19.082601   20.161886   21.923137 H          1 MOL1         0.0998
      13    H9      20.223929   18.929568   21.401528 H          1 MOL1         0.0998
      14    C4      18.440971   18.146553   22.379652 C.3        1 MOL1        -0.1302
      15    H10     17.804425   18.398379   23.239572 H          1 MOL1         0.0998
      16    H11     18.884478   17.163885   22.588379 H          1 MOL1         0.0998
      17    C5      17.567790   18.039600   21.110874 C.3        1 MOL1        -0.2317
      18    H12     17.070197   18.993206   20.891158 H          1 MOL1         0.1009
      19    H13     16.789375   17.276252   21.239165 H          1 MOL1         0.1009
      20    H14     18.172233   17.760420   20.237966 H          1 MOL1         0.1009
@<TRIPOS>BOND
    1     1     2    1
    2     1     3    1
    3     1     4    1
    4     1     5    1
    5     5     6    1
    6     5     7    1
    7     7     8    1
    8     7     9    1
    9     7    10    1
   10     5    11    1
   11    11    12    1
   12    11    13    1
   13    11    14    1
   14    14    15    1
   15    14    16    1
   16    14    17    1
   17    17    18    1
   18    17    19    1
   19    17    20    1
@<TRIPOS>SUBSTRUCTURE
       1 MOL1            1 RESIDUE      1      MOL     
@<SCITEGIC>MOL_PROPERTY
VConf Rank
SciTegic.value.IntegerValue
622

@<SCITEGIC>MOL_PROPERTY
Conf_Id
SciTegic.value.IntegerValue
80

@<SCITEGIC>MOL_PROPERTY
Delta U+W
SciTegic.value.DoubleValue
0.460

@<SCITEGIC>MOL_PROPERTY
U+W
SciTegic.value.DoubleValue
-35.817

@<SCITEGIC>MOL_PROPERTY
Grad RMS
SciTegic.value.DoubleValue
0.000000

@<SCITEGIC>MOL_PROPERTY
U
SciTegic.value.DoubleValue
22.495

@<SCITEGIC>MOL_PROPERTY
W
SciTegic.value.DoubleValue
-58.311

@<SCITEGIC>MOL_PROPERTY
W(PB)
SciTegic.value.DoubleValue
-60.259

@<SCITEGIC>MOL_PROPERTY
W(SA)
SciTegic.value.DoubleValue
1.948

@<SCITEGIC>MOL_PROPERTY
Valence
SciTegic.value.DoubleValue
2.419

@<SCITEGIC>MOL_PROPERTY
Coulomb
SciTegic.value.DoubleValue
19.304

@<SCITEGIC>MOL_PROPERTY
VdW
SciTegic.value.DoubleValue
0.772

@<SCITEGIC>MOL_PROPERTY
VdW6
SciTegic.value.DoubleValue
-4.635

@<SCITEGIC>MOL_PROPERTY
VdW12
SciTegic.value.DoubleValue
5.407

@<SCITEGIC>MOL_PROPERTY
Bond
SciTegic.value.DoubleValue
0.149

@<SCITEGIC>MOL_PROPERTY
Angle
SciTegic.value.DoubleValue
1.142

@<SCITEGIC>MOL_PROPERTY
Pdih
SciTegic.value.DoubleValue
1.129

@<SCITEGIC>MOL_PROPERTY
Idih
SciTegic.value.DoubleValue
0.000

@<SCITEGIC>MOL_PROPERTY
Tether
SciTegic.value.DoubleValue
0.000

@<TRIPOS>MOLECULE
guest-s10_confgen4.mol2 : confsearch ligand conformer 623
          20          19           1
SMALL
USER_CHARGES
 
@<TRIPOS>ATOM
       1    N1      21.487794   20.142685   21.641278 N.4        1 MOL1        -0.5937
       2    H1      22.306062   19.557648   21.451590 H          1 MOL1         0.3684
       3    H2      21.705059   20.717642   22.459147 H          1 MOL1         0.3684
       4    H3      21.377946   20.776053   20.844790 H          1 MOL1         0.3684
       5    C1      20.251289   19.314758   21.861140 C.3        1 MOL1         0.1270
       6    H4      20.097033   18.744218   20.940005 H          1 MOL1         0.0960
       7    C2      19.029993   20.226692   22.068671 C.3        1 MOL1        -0.2382
       8    H5      18.969875   20.980607   21.274227 H          1 MOL1         0.1009
       9    H6      19.082464   20.749596   23.031621 H          1 MOL1         0.1009
      10    H7      18.098926   19.649658   22.034725 H          1 MOL1         0.1009
      11    C3      20.454935   18.308880   23.020481 C.3        1 MOL1        -0.1392
      12    H8      21.363803   17.733129   22.801022 H          1 MOL1         0.0998
      13    H9      20.660342   18.845143   23.956408 H          1 MOL1         0.0998
      14    C4      19.294335   17.299294   23.223922 C.3        1 MOL1        -0.1302
      15    H10     19.721303   16.327907   23.510666 H          1 MOL1         0.0998
      16    H11     18.766523   17.127478   22.275313 H          1 MOL1         0.0998
      17    C5      18.296159   17.723874   24.326832 C.3        1 MOL1        -0.2317
      18    H12     18.802229   17.824474   25.295796 H          1 MOL1         0.1009
      19    H13     17.506820   16.969680   24.441360 H          1 MOL1         0.1009
      20    H14     17.810946   18.679646   24.099654 H          1 MOL1         0.1009
@<TRIPOS>BOND
    1     1     2    1
    2     1     3    1
    3     1     4    1
    4     1     5    1
    5     5     6    1
    6     5     7    1
    7     7     8    1
    8     7     9    1
    9     7    10    1
   10     5    11    1
   11    11    12    1
   12    11    13    1
   13    11    14    1
   14    14    15    1
   15    14    16    1
   16    14    17    1
   17    17    18    1
   18    17    19    1
   19    17    20    1
@<TRIPOS>SUBSTRUCTURE
       1 MOL1            1 RESIDUE      1      MOL     
@<SCITEGIC>MOL_PROPERTY
VConf Rank
SciTegic.value.IntegerValue
623

@<SCITEGIC>MOL_PROPERTY
Conf_Id
SciTegic.value.IntegerValue
52

@<SCITEGIC>MOL_PROPERTY
Delta U+W
SciTegic.value.DoubleValue
2.995

@<SCITEGIC>MOL_PROPERTY
U+W
SciTegic.value.DoubleValue
-33.282

@<SCITEGIC>MOL_PROPERTY
Grad RMS
SciTegic.value.DoubleValue
0.000000

@<SCITEGIC>MOL_PROPERTY
U
SciTegic.value.DoubleValue
25.224

@<SCITEGIC>MOL_PROPERTY
W
SciTegic.value.DoubleValue
-58.506

@<SCITEGIC>MOL_PROPERTY
W(PB)
SciTegic.value.DoubleValue
-60.411

@<SCITEGIC>MOL_PROPERTY
W(SA)
SciTegic.value.DoubleValue
1.905

@<SCITEGIC>MOL_PROPERTY
Valence
SciTegic.value.DoubleValue
4.945

@<SCITEGIC>MOL_PROPERTY
Coulomb
SciTegic.value.DoubleValue
19.467

@<SCITEGIC>MOL_PROPERTY
VdW
SciTegic.value.DoubleValue
0.813

@<SCITEGIC>MOL_PROPERTY
VdW6
SciTegic.value.DoubleValue
-5.458

@<SCITEGIC>MOL_PROPERTY
VdW12
SciTegic.value.DoubleValue
6.270

@<SCITEGIC>MOL_PROPERTY
Bond
SciTegic.value.DoubleValue
0.200

@<SCITEGIC>MOL_PROPERTY
Angle
SciTegic.value.DoubleValue
1.675

@<SCITEGIC>MOL_PROPERTY
Pdih
SciTegic.value.DoubleValue
3.070

@<SCITEGIC>MOL_PROPERTY
Idih
SciTegic.value.DoubleValue
0.000

@<SCITEGIC>MOL_PROPERTY
Tether
SciTegic.value.DoubleValue
0.000

@<TRIPOS>MOLECULE
guest-s10_confgen4.mol2 : confsearch ligand conformer 624
          20          19           1
SMALL
USER_CHARGES
 
@<TRIPOS>ATOM
       1    N1      19.675704   20.020778   21.472160 N.4        1 MOL1        -0.5937
       2    H1      20.315403   19.618430   20.782755 H          1 MOL1         0.3684
       3    H2      19.553227   21.009105   21.235821 H          1 MOL1         0.3684
       4    H3      18.770531   19.560502   21.354721 H          1 MOL1         0.3684
       5    C1      20.198713   19.848032   22.872114 C.3        1 MOL1         0.1270
       6    H4      19.490306   20.342397   23.544049 H          1 MOL1         0.0960
       7    C2      21.561090   20.548518   23.009975 C.3        1 MOL1        -0.2382
       8    H5      22.315667   20.079633   22.366065 H          1 MOL1         0.1009
       9    H6      21.920492   20.504648   24.045616 H          1 MOL1         0.1009
      10    H7      21.484047   21.606800   22.731694 H          1 MOL1         0.1009
      11    C3      20.310903   18.362846   23.291485 C.3        1 MOL1        -0.1392
      12    H8      20.804840   17.786100   22.498412 H          1 MOL1         0.0998
      13    H9      20.971011   18.295216   24.166567 H          1 MOL1         0.0998
      14    C4      18.966506   17.693642   23.680547 C.3        1 MOL1        -0.1302
      15    H10     18.501540   18.249797   24.506703 H          1 MOL1         0.0998
      16    H11     19.184936   16.691679   24.076003 H          1 MOL1         0.0998
      17    C5      17.953799   17.548993   22.521795 C.3        1 MOL1        -0.2317
      18    H12     17.125000   16.894833   22.822551 H          1 MOL1         0.1009
      19    H13     18.422690   17.103884   21.634476 H          1 MOL1         0.1009
      20    H14     17.513985   18.514439   22.246267 H          1 MOL1         0.1009
@<TRIPOS>BOND
    1     1     2    1
    2     1     3    1
    3     1     4    1
    4     1     5    1
    5     5     6    1
    6     5     7    1
    7     7     8    1
    8     7     9    1
    9     7    10    1
   10     5    11    1
   11    11    12    1
   12    11    13    1
   13    11    14    1
   14    14    15    1
   15    14    16    1
   16    14    17    1
   17    17    18    1
   18    17    19    1
   19    17    20    1
@<TRIPOS>SUBSTRUCTURE
       1 MOL1            1 RESIDUE      1      MOL     
@<SCITEGIC>MOL_PROPERTY
VConf Rank
SciTegic.value.IntegerValue
624

@<SCITEGIC>MOL_PROPERTY
Conf_Id
SciTegic.value.IntegerValue
54

@<SCITEGIC>MOL_PROPERTY
Delta U+W
SciTegic.value.DoubleValue
2.752

@<SCITEGIC>MOL_PROPERTY
U+W
SciTegic.value.DoubleValue
-33.525

@<SCITEGIC>MOL_PROPERTY
Grad RMS
SciTegic.value.DoubleValue
0.000000

@<SCITEGIC>MOL_PROPERTY
U
SciTegic.value.DoubleValue
24.337

@<SCITEGIC>MOL_PROPERTY
W
SciTegic.value.DoubleValue
-57.862

@<SCITEGIC>MOL_PROPERTY
W(PB)
SciTegic.value.DoubleValue
-59.764

@<SCITEGIC>MOL_PROPERTY
W(SA)
SciTegic.value.DoubleValue
1.901

@<SCITEGIC>MOL_PROPERTY
Valence
SciTegic.value.DoubleValue
3.593

@<SCITEGIC>MOL_PROPERTY
Coulomb
SciTegic.value.DoubleValue
20.067

@<SCITEGIC>MOL_PROPERTY
VdW
SciTegic.value.DoubleValue
0.677

@<SCITEGIC>MOL_PROPERTY
VdW6
SciTegic.value.DoubleValue
-5.466

@<SCITEGIC>MOL_PROPERTY
VdW12
SciTegic.value.DoubleValue
6.144

@<SCITEGIC>MOL_PROPERTY
Bond
SciTegic.value.DoubleValue
0.191

@<SCITEGIC>MOL_PROPERTY
Angle
SciTegic.value.DoubleValue
1.557

@<SCITEGIC>MOL_PROPERTY
Pdih
SciTegic.value.DoubleValue
1.845

@<SCITEGIC>MOL_PROPERTY
Idih
SciTegic.value.DoubleValue
0.000

@<SCITEGIC>MOL_PROPERTY
Tether
SciTegic.value.DoubleValue
0.000

@<TRIPOS>MOLECULE
guest-s10_confgen4.mol2 : confsearch ligand conformer 625
          20          19           1
SMALL
USER_CHARGES
 
@<TRIPOS>ATOM
       1    N1      17.948549   19.205280   23.664264 N.4        1 MOL1        -0.5937
       2    H1      17.380391   19.862083   24.205985 H          1 MOL1         0.3684
       3    H2      17.699384   18.261763   23.973138 H          1 MOL1         0.3684
       4    H3      17.666379   19.292798   22.685403 H          1 MOL1         0.3684
       5    C1      19.418526   19.474478   23.839157 C.3        1 MOL1         0.1270
       6    H4      19.619033   19.375016   24.910570 H          1 MOL1         0.0960
       7    C2      19.768480   20.917488   23.434068 C.3        1 MOL1        -0.2382
       8    H5      20.841109   21.109188   23.561311 H          1 MOL1         0.1009
       9    H6      19.226410   21.634418   24.062763 H          1 MOL1         0.1009
      10    H7      19.504065   21.121758   22.389846 H          1 MOL1         0.1009
      11    C3      20.302587   18.434674   23.109569 C.3        1 MOL1        -0.1392
      12    H8      21.354907   18.634676   23.351142 H          1 MOL1         0.0998
      13    H9      20.082583   17.441456   23.522513 H          1 MOL1         0.0998
      14    C4      20.129965   18.394506   21.569137 C.3        1 MOL1        -0.1302
      15    H10     20.395813   19.365955   21.131387 H          1 MOL1         0.0998
      16    H11     19.079781   18.204510   21.309952 H          1 MOL1         0.0998
      17    C5      21.011599   17.300881   20.928798 C.3        1 MOL1        -0.2317
      18    H12     20.880504   17.285915   19.839002 H          1 MOL1         0.1009
      19    H13     20.749223   16.306367   21.312624 H          1 MOL1         0.1009
      20    H14     22.074787   17.478095   21.137244 H          1 MOL1         0.1009
@<TRIPOS>BOND
    1     1     2    1
    2     1     3    1
    3     1     4    1
    4     1     5    1
    5     5     6    1
    6     5     7    1
    7     7     8    1
    8     7     9    1
    9     7    10    1
   10     5    11    1
   11    11    12    1
   12    11    13    1
   13    11    14    1
   14    14    15    1
   15    14    16    1
   16    14    17    1
   17    17    18    1
   18    17    19    1
   19    17    20    1
@<TRIPOS>SUBSTRUCTURE
       1 MOL1            1 RESIDUE      1      MOL     
@<SCITEGIC>MOL_PROPERTY
VConf Rank
SciTegic.value.IntegerValue
625

@<SCITEGIC>MOL_PROPERTY
Conf_Id
SciTegic.value.IntegerValue
63

@<SCITEGIC>MOL_PROPERTY
Delta U+W
SciTegic.value.DoubleValue
0.420

@<SCITEGIC>MOL_PROPERTY
U+W
SciTegic.value.DoubleValue
-35.856

@<SCITEGIC>MOL_PROPERTY
Grad RMS
SciTegic.value.DoubleValue
0.000000

@<SCITEGIC>MOL_PROPERTY
U
SciTegic.value.DoubleValue
22.625

@<SCITEGIC>MOL_PROPERTY
W
SciTegic.value.DoubleValue
-58.481

@<SCITEGIC>MOL_PROPERTY
W(PB)
SciTegic.value.DoubleValue
-60.400

@<SCITEGIC>MOL_PROPERTY
W(SA)
SciTegic.value.DoubleValue
1.919

@<SCITEGIC>MOL_PROPERTY
Valence
SciTegic.value.DoubleValue
2.404

@<SCITEGIC>MOL_PROPERTY
Coulomb
SciTegic.value.DoubleValue
19.464

@<SCITEGIC>MOL_PROPERTY
VdW
SciTegic.value.DoubleValue
0.757

@<SCITEGIC>MOL_PROPERTY
VdW6
SciTegic.value.DoubleValue
-5.074

@<SCITEGIC>MOL_PROPERTY
VdW12
SciTegic.value.DoubleValue
5.830

@<SCITEGIC>MOL_PROPERTY
Bond
SciTegic.value.DoubleValue
0.172

@<SCITEGIC>MOL_PROPERTY
Angle
SciTegic.value.DoubleValue
1.207

@<SCITEGIC>MOL_PROPERTY
Pdih
SciTegic.value.DoubleValue
1.025

@<SCITEGIC>MOL_PROPERTY
Idih
SciTegic.value.DoubleValue
0.000

@<SCITEGIC>MOL_PROPERTY
Tether
SciTegic.value.DoubleValue
0.000

@<TRIPOS>MOLECULE
guest-s10_confgen4.mol2 : confsearch ligand conformer 626
          20          19           1
SMALL
USER_CHARGES
 
@<TRIPOS>ATOM
       1    N1      21.156209   19.779381   22.182921 N.4        1 MOL1        -0.5937
       2    H1      20.545763   20.585420   22.026300 H          1 MOL1         0.3684
       3    H2      21.424455   19.413367   21.266134 H          1 MOL1         0.3684
       4    H3      22.007043   20.123658   22.635797 H          1 MOL1         0.3684
       5    C1      20.472859   18.729852   23.017008 C.3        1 MOL1         0.1270
       6    H4      20.224633   19.200188   23.973197 H          1 MOL1         0.0960
       7    C2      21.422959   17.553638   23.295111 C.3        1 MOL1        -0.2382
       8    H5      22.337819   17.901994   23.790002 H          1 MOL1         0.1009
       9    H6      21.709434   17.045575   22.365833 H          1 MOL1         0.1009
      10    H7      20.948220   16.816774   23.954867 H          1 MOL1         0.1009
      11    C3      19.163035   18.222629   22.371976 C.3        1 MOL1        -0.1392
      12    H8      19.393477   17.731843   21.417063 H          1 MOL1         0.0998
      13    H9      18.723954   17.449060   23.015968 H          1 MOL1         0.0998
      14    C4      18.104082   19.328270   22.130986 C.3        1 MOL1        -0.1302
      15    H10     17.217378   18.872345   21.668610 H          1 MOL1         0.0998
      16    H11     18.479182   20.061981   21.404671 H          1 MOL1         0.0998
      17    C5      17.676338   20.050790   23.428818 C.3        1 MOL1        -0.2317
      18    H12     17.297082   19.336562   24.171262 H          1 MOL1         0.1009
      19    H13     16.876436   20.773281   23.220897 H          1 MOL1         0.1009
      20    H14     18.511000   20.602525   23.879178 H          1 MOL1         0.1009
@<TRIPOS>BOND
    1     1     2    1
    2     1     3    1
    3     1     4    1
    4     1     5    1
    5     5     6    1
    6     5     7    1
    7     7     8    1
    8     7     9    1
    9     7    10    1
   10     5    11    1
   11    11    12    1
   12    11    13    1
   13    11    14    1
   14    14    15    1
   15    14    16    1
   16    14    17    1
   17    17    18    1
   18    17    19    1
   19    17    20    1
@<TRIPOS>SUBSTRUCTURE
       1 MOL1            1 RESIDUE      1      MOL     
@<SCITEGIC>MOL_PROPERTY
VConf Rank
SciTegic.value.IntegerValue
626

@<SCITEGIC>MOL_PROPERTY
Conf_Id
SciTegic.value.IntegerValue
50

@<SCITEGIC>MOL_PROPERTY
Delta U+W
SciTegic.value.DoubleValue
0.466

@<SCITEGIC>MOL_PROPERTY
U+W
SciTegic.value.DoubleValue
-35.811

@<SCITEGIC>MOL_PROPERTY
Grad RMS
SciTegic.value.DoubleValue
0.000000

@<SCITEGIC>MOL_PROPERTY
U
SciTegic.value.DoubleValue
22.369

@<SCITEGIC>MOL_PROPERTY
W
SciTegic.value.DoubleValue
-58.180

@<SCITEGIC>MOL_PROPERTY
W(PB)
SciTegic.value.DoubleValue
-60.103

@<SCITEGIC>MOL_PROPERTY
W(SA)
SciTegic.value.DoubleValue
1.923

@<SCITEGIC>MOL_PROPERTY
Valence
SciTegic.value.DoubleValue
2.168

@<SCITEGIC>MOL_PROPERTY
Coulomb
SciTegic.value.DoubleValue
19.636

@<SCITEGIC>MOL_PROPERTY
VdW
SciTegic.value.DoubleValue
0.566

@<SCITEGIC>MOL_PROPERTY
VdW6
SciTegic.value.DoubleValue
-5.263

@<SCITEGIC>MOL_PROPERTY
VdW12
SciTegic.value.DoubleValue
5.829

@<SCITEGIC>MOL_PROPERTY
Bond
SciTegic.value.DoubleValue
0.162

@<SCITEGIC>MOL_PROPERTY
Angle
SciTegic.value.DoubleValue
1.066

@<SCITEGIC>MOL_PROPERTY
Pdih
SciTegic.value.DoubleValue
0.939

@<SCITEGIC>MOL_PROPERTY
Idih
SciTegic.value.DoubleValue
0.000

@<SCITEGIC>MOL_PROPERTY
Tether
SciTegic.value.DoubleValue
0.000

@<TRIPOS>MOLECULE
guest-s10_confgen4.mol2 : confsearch ligand conformer 627
          20          19           1
SMALL
USER_CHARGES
 
@<TRIPOS>ATOM
       1    N1      21.806199   18.019580   22.427269 N.4        1 MOL1        -0.5937
       2    H1      21.812668   17.725332   21.446773 H          1 MOL1         0.3684
       3    H2      21.869347   17.175303   23.001796 H          1 MOL1         0.3684
       4    H3      22.660700   18.560252   22.586131 H          1 MOL1         0.3684
       5    C1      20.577081   18.822492   22.757693 C.3        1 MOL1         0.1270
       6    H4      20.595861   19.694375   22.096458 H          1 MOL1         0.0960
       7    C2      20.642075   19.308543   24.217657 C.3        1 MOL1        -0.2382
       8    H5      20.673128   18.462111   24.914976 H          1 MOL1         0.1009
       9    H6      19.774467   19.925219   24.476030 H          1 MOL1         0.1009
      10    H7      21.540099   19.916344   24.382756 H          1 MOL1         0.1009
      11    C3      19.276274   18.031220   22.474810 C.3        1 MOL1        -0.1392
      12    H8      19.507477   17.182857   21.817165 H          1 MOL1         0.0998
      13    H9      18.887033   17.588962   23.401585 H          1 MOL1         0.0998
      14    C4      18.172362   18.866847   21.778471 C.3        1 MOL1        -0.1302
      15    H10     17.324426   18.206238   21.549270 H          1 MOL1         0.0998
      16    H11     18.543985   19.232805   20.810973 H          1 MOL1         0.0998
      17    C5      17.660326   20.060152   22.615178 C.3        1 MOL1        -0.2317
      18    H12     17.320736   19.732592   23.606344 H          1 MOL1         0.1009
      19    H13     16.811861   20.543749   22.113898 H          1 MOL1         0.1009
      20    H14     18.439575   20.821072   22.747096 H          1 MOL1         0.1009
@<TRIPOS>BOND
    1     1     2    1
    2     1     3    1
    3     1     4    1
    4     1     5    1
    5     5     6    1
    6     5     7    1
    7     7     8    1
    8     7     9    1
    9     7    10    1
   10     5    11    1
   11    11    12    1
   12    11    13    1
   13    11    14    1
   14    14    15    1
   15    14    16    1
   16    14    17    1
   17    17    18    1
   18    17    19    1
   19    17    20    1
@<TRIPOS>SUBSTRUCTURE
       1 MOL1            1 RESIDUE      1      MOL     
@<SCITEGIC>MOL_PROPERTY
VConf Rank
SciTegic.value.IntegerValue
627

@<SCITEGIC>MOL_PROPERTY
Conf_Id
SciTegic.value.IntegerValue
3

@<SCITEGIC>MOL_PROPERTY
Delta U+W
SciTegic.value.DoubleValue
3.093

@<SCITEGIC>MOL_PROPERTY
U+W
SciTegic.value.DoubleValue
-33.184

@<SCITEGIC>MOL_PROPERTY
Grad RMS
SciTegic.value.DoubleValue
0.000000

@<SCITEGIC>MOL_PROPERTY
U
SciTegic.value.DoubleValue
25.256

@<SCITEGIC>MOL_PROPERTY
W
SciTegic.value.DoubleValue
-58.439

@<SCITEGIC>MOL_PROPERTY
W(PB)
SciTegic.value.DoubleValue
-60.337

@<SCITEGIC>MOL_PROPERTY
W(SA)
SciTegic.value.DoubleValue
1.898

@<SCITEGIC>MOL_PROPERTY
Valence
SciTegic.value.DoubleValue
4.963

@<SCITEGIC>MOL_PROPERTY
Coulomb
SciTegic.value.DoubleValue
19.511

@<SCITEGIC>MOL_PROPERTY
VdW
SciTegic.value.DoubleValue
0.782

@<SCITEGIC>MOL_PROPERTY
VdW6
SciTegic.value.DoubleValue
-5.429

@<SCITEGIC>MOL_PROPERTY
VdW12
SciTegic.value.DoubleValue
6.211

@<SCITEGIC>MOL_PROPERTY
Bond
SciTegic.value.DoubleValue
0.174

@<SCITEGIC>MOL_PROPERTY
Angle
SciTegic.value.DoubleValue
1.377

@<SCITEGIC>MOL_PROPERTY
Pdih
SciTegic.value.DoubleValue
3.412

@<SCITEGIC>MOL_PROPERTY
Idih
SciTegic.value.DoubleValue
0.000

@<SCITEGIC>MOL_PROPERTY
Tether
SciTegic.value.DoubleValue
0.000

@<TRIPOS>MOLECULE
guest-s10_confgen4.mol2 : confsearch ligand conformer 628
          20          19           1
SMALL
USER_CHARGES
 
@<TRIPOS>ATOM
       1    N1      18.307916   17.287126   21.987333 N.4        1 MOL1        -0.5937
       2    H1      17.467501   17.472969   21.433437 H          1 MOL1         0.3684
       3    H2      18.007783   16.807848   22.840587 H          1 MOL1         0.3684
       4    H3      18.884348   16.631245   21.454201 H          1 MOL1         0.3684
       5    C1      19.055650   18.555125   22.296289 C.3        1 MOL1         0.1270
       6    H4      18.364185   19.189376   22.859048 H          1 MOL1         0.0960
       7    C2      19.434165   19.284343   20.994340 C.3        1 MOL1        -0.2382
       8    H5      19.854722   20.275209   21.201342 H          1 MOL1         0.1009
       9    H6      18.549546   19.432890   20.363059 H          1 MOL1         0.1009
      10    H7      20.171170   18.711399   20.418105 H          1 MOL1         0.1009
      11    C3      20.290724   18.274476   23.185253 C.3        1 MOL1        -0.1392
      12    H8      19.971126   17.685054   24.054715 H          1 MOL1         0.0998
      13    H9      20.999633   17.643015   22.633492 H          1 MOL1         0.0998
      14    C4      21.029950   19.537145   23.697421 C.3        1 MOL1        -0.1302
      15    H10     21.479792   20.083123   22.857288 H          1 MOL1         0.0998
      16    H11     21.868945   19.220207   24.332619 H          1 MOL1         0.0998
      17    C5      20.118247   20.485632   24.508791 C.3        1 MOL1        -0.2317
      18    H12     19.654342   19.960474   25.353871 H          1 MOL1         0.1009
      19    H13     19.319298   20.907540   23.886104 H          1 MOL1         0.1009
      20    H14     20.699263   21.324272   24.913909 H          1 MOL1         0.1009
@<TRIPOS>BOND
    1     1     2    1
    2     1     3    1
    3     1     4    1
    4     1     5    1
    5     5     6    1
    6     5     7    1
    7     7     8    1
    8     7     9    1
    9     7    10    1
   10     5    11    1
   11    11    12    1
   12    11    13    1
   13    11    14    1
   14    14    15    1
   15    14    16    1
   16    14    17    1
   17    17    18    1
   18    17    19    1
   19    17    20    1
@<TRIPOS>SUBSTRUCTURE
       1 MOL1            1 RESIDUE      1      MOL     
@<SCITEGIC>MOL_PROPERTY
VConf Rank
SciTegic.value.IntegerValue
628

@<SCITEGIC>MOL_PROPERTY
Conf_Id
SciTegic.value.IntegerValue
64

@<SCITEGIC>MOL_PROPERTY
Delta U+W
SciTegic.value.DoubleValue
0.544

@<SCITEGIC>MOL_PROPERTY
U+W
SciTegic.value.DoubleValue
-35.732

@<SCITEGIC>MOL_PROPERTY
Grad RMS
SciTegic.value.DoubleValue
0.000000

@<SCITEGIC>MOL_PROPERTY
U
SciTegic.value.DoubleValue
22.800

@<SCITEGIC>MOL_PROPERTY
W
SciTegic.value.DoubleValue
-58.532

@<SCITEGIC>MOL_PROPERTY
W(PB)
SciTegic.value.DoubleValue
-60.437

@<SCITEGIC>MOL_PROPERTY
W(SA)
SciTegic.value.DoubleValue
1.905

@<SCITEGIC>MOL_PROPERTY
Valence
SciTegic.value.DoubleValue
2.662

@<SCITEGIC>MOL_PROPERTY
Coulomb
SciTegic.value.DoubleValue
19.485

@<SCITEGIC>MOL_PROPERTY
VdW
SciTegic.value.DoubleValue
0.653

@<SCITEGIC>MOL_PROPERTY
VdW6
SciTegic.value.DoubleValue
-5.460

@<SCITEGIC>MOL_PROPERTY
VdW12
SciTegic.value.DoubleValue
6.113

@<SCITEGIC>MOL_PROPERTY
Bond
SciTegic.value.DoubleValue
0.174

@<SCITEGIC>MOL_PROPERTY
Angle
SciTegic.value.DoubleValue
1.378

@<SCITEGIC>MOL_PROPERTY
Pdih
SciTegic.value.DoubleValue
1.109

@<SCITEGIC>MOL_PROPERTY
Idih
SciTegic.value.DoubleValue
0.000

@<SCITEGIC>MOL_PROPERTY
Tether
SciTegic.value.DoubleValue
0.000

@<TRIPOS>MOLECULE
guest-s10_confgen4.mol2 : confsearch ligand conformer 629
          20          19           1
SMALL
USER_CHARGES
 
@<TRIPOS>ATOM
       1    N1      21.891679   18.854082   22.564379 N.4        1 MOL1        -0.5937
       2    H1      21.628060   19.105630   21.609129 H          1 MOL1         0.3684
       3    H2      22.575995   18.095439   22.502857 H          1 MOL1         0.3684
       4    H3      22.369526   19.661300   22.973917 H          1 MOL1         0.3684
       5    C1      20.692493   18.448854   23.378365 C.3        1 MOL1         0.1270
       6    H4      21.077358   18.190582   24.369898 H          1 MOL1         0.0960
       7    C2      20.036876   17.185570   22.796984 C.3        1 MOL1        -0.2382
       8    H5      19.745877   17.329782   21.749973 H          1 MOL1         0.1009
       9    H6      19.145483   16.907401   23.372638 H          1 MOL1         0.1009
      10    H7      20.734524   16.340113   22.835212 H          1 MOL1         0.1009
      11    C3      19.690627   19.614815   23.572630 C.3        1 MOL1        -0.1392
      12    H8      18.931121   19.323348   24.309987 H          1 MOL1         0.0998
      13    H9      20.239349   20.444591   24.037235 H          1 MOL1         0.0998
      14    C4      18.999355   20.147944   22.286885 C.3        1 MOL1        -0.1302
      15    H10     19.656643   20.038249   21.414349 H          1 MOL1         0.0998
      16    H11     18.836403   21.228508   22.404405 H          1 MOL1         0.0998
      17    C5      17.627083   19.491861   22.005511 C.3        1 MOL1        -0.2317
      18    H12     17.711897   18.413642   21.831649 H          1 MOL1         0.1009
      19    H13     17.166263   19.935017   21.113198 H          1 MOL1         0.1009
      20    H14     16.938002   19.646215   22.845978 H          1 MOL1         0.1009
@<TRIPOS>BOND
    1     1     2    1
    2     1     3    1
    3     1     4    1
    4     1     5    1
    5     5     6    1
    6     5     7    1
    7     7     8    1
    8     7     9    1
    9     7    10    1
   10     5    11    1
   11    11    12    1
   12    11    13    1
   13    11    14    1
   14    14    15    1
   15    14    16    1
   16    14    17    1
   17    17    18    1
   18    17    19    1
   19    17    20    1
@<TRIPOS>SUBSTRUCTURE
       1 MOL1            1 RESIDUE      1      MOL     
@<SCITEGIC>MOL_PROPERTY
VConf Rank
SciTegic.value.IntegerValue
629

@<SCITEGIC>MOL_PROPERTY
Conf_Id
SciTegic.value.IntegerValue
35

@<SCITEGIC>MOL_PROPERTY
Delta U+W
SciTegic.value.DoubleValue
3.004

@<SCITEGIC>MOL_PROPERTY
U+W
SciTegic.value.DoubleValue
-33.272

@<SCITEGIC>MOL_PROPERTY
Grad RMS
SciTegic.value.DoubleValue
0.000000

@<SCITEGIC>MOL_PROPERTY
U
SciTegic.value.DoubleValue
25.367

@<SCITEGIC>MOL_PROPERTY
W
SciTegic.value.DoubleValue
-58.639

@<SCITEGIC>MOL_PROPERTY
W(PB)
SciTegic.value.DoubleValue
-60.512

@<SCITEGIC>MOL_PROPERTY
W(SA)
SciTegic.value.DoubleValue
1.873

@<SCITEGIC>MOL_PROPERTY
Valence
SciTegic.value.DoubleValue
4.943

@<SCITEGIC>MOL_PROPERTY
Coulomb
SciTegic.value.DoubleValue
19.661

@<SCITEGIC>MOL_PROPERTY
VdW
SciTegic.value.DoubleValue
0.764

@<SCITEGIC>MOL_PROPERTY
VdW6
SciTegic.value.DoubleValue
-5.871

@<SCITEGIC>MOL_PROPERTY
VdW12
SciTegic.value.DoubleValue
6.636

@<SCITEGIC>MOL_PROPERTY
Bond
SciTegic.value.DoubleValue
0.230

@<SCITEGIC>MOL_PROPERTY
Angle
SciTegic.value.DoubleValue
1.857

@<SCITEGIC>MOL_PROPERTY
Pdih
SciTegic.value.DoubleValue
2.855

@<SCITEGIC>MOL_PROPERTY
Idih
SciTegic.value.DoubleValue
0.000

@<SCITEGIC>MOL_PROPERTY
Tether
SciTegic.value.DoubleValue
0.000

@<TRIPOS>MOLECULE
guest-s10_confgen4.mol2 : confsearch ligand conformer 630
          20          19           1
SMALL
USER_CHARGES
 
@<TRIPOS>ATOM
       1    N1      19.224236   18.821049   21.019104 N.4        1 MOL1        -0.5937
       2    H1      18.819266   19.418722   20.293577 H          1 MOL1         0.3684
       3    H2      19.029757   17.850695   20.758008 H          1 MOL1         0.3684
       4    H3      20.237886   18.947171   20.994543 H          1 MOL1         0.3684
       5    C1      18.667693   19.147934   22.377732 C.3        1 MOL1         0.1270
       6    H4      17.592555   18.956918   22.303445 H          1 MOL1         0.0960
       7    C2      18.845798   20.639255   22.713516 C.3        1 MOL1        -0.2382
       8    H5      19.902802   20.930870   22.713636 H          1 MOL1         0.1009
       9    H6      18.425092   20.868604   23.700342 H          1 MOL1         0.1009
      10    H7      18.325686   21.263741   21.976992 H          1 MOL1         0.1009
      11    C3      19.211255   18.221506   23.495581 C.3        1 MOL1        -0.1392
      12    H8      18.539968   18.314061   24.359497 H          1 MOL1         0.0998
      13    H9      19.120535   17.177756   23.167599 H          1 MOL1         0.0998
      14    C4      20.661837   18.478403   23.991979 C.3        1 MOL1        -0.1302
      15    H10     20.871223   17.772193   24.807607 H          1 MOL1         0.0998
      16    H11     20.739437   19.477891   24.441016 H          1 MOL1         0.0998
      17    C5      21.753484   18.307970   22.911154 C.3        1 MOL1        -0.2317
      18    H12     21.647156   17.350307   22.385117 H          1 MOL1         0.1009
      19    H13     22.749845   18.325316   23.371734 H          1 MOL1         0.1009
      20    H14     21.725097   19.121183   22.176888 H          1 MOL1         0.1009
@<TRIPOS>BOND
    1     1     2    1
    2     1     3    1
    3     1     4    1
    4     1     5    1
    5     5     6    1
    6     5     7    1
    7     7     8    1
    8     7     9    1
    9     7    10    1
   10     5    11    1
   11    11    12    1
   12    11    13    1
   13    11    14    1
   14    14    15    1
   15    14    16    1
   16    14    17    1
   17    17    18    1
   18    17    19    1
   19    17    20    1
@<TRIPOS>SUBSTRUCTURE
       1 MOL1            1 RESIDUE      1      MOL     
@<SCITEGIC>MOL_PROPERTY
VConf Rank
SciTegic.value.IntegerValue
630

@<SCITEGIC>MOL_PROPERTY
Conf_Id
SciTegic.value.IntegerValue
55

@<SCITEGIC>MOL_PROPERTY
Delta U+W
SciTegic.value.DoubleValue
2.767

@<SCITEGIC>MOL_PROPERTY
U+W
SciTegic.value.DoubleValue
-33.509

@<SCITEGIC>MOL_PROPERTY
Grad RMS
SciTegic.value.DoubleValue
0.000000

@<SCITEGIC>MOL_PROPERTY
U
SciTegic.value.DoubleValue
24.552

@<SCITEGIC>MOL_PROPERTY
W
SciTegic.value.DoubleValue
-58.061

@<SCITEGIC>MOL_PROPERTY
W(PB)
SciTegic.value.DoubleValue
-59.930

@<SCITEGIC>MOL_PROPERTY
W(SA)
SciTegic.value.DoubleValue
1.869

@<SCITEGIC>MOL_PROPERTY
Valence
SciTegic.value.DoubleValue
3.726

@<SCITEGIC>MOL_PROPERTY
Coulomb
SciTegic.value.DoubleValue
20.219

@<SCITEGIC>MOL_PROPERTY
VdW
SciTegic.value.DoubleValue
0.606

@<SCITEGIC>MOL_PROPERTY
VdW6
SciTegic.value.DoubleValue
-6.395

@<SCITEGIC>MOL_PROPERTY
VdW12
SciTegic.value.DoubleValue
7.001

@<SCITEGIC>MOL_PROPERTY
Bond
SciTegic.value.DoubleValue
0.241

@<SCITEGIC>MOL_PROPERTY
Angle
SciTegic.value.DoubleValue
2.098

@<SCITEGIC>MOL_PROPERTY
Pdih
SciTegic.value.DoubleValue
1.387

@<SCITEGIC>MOL_PROPERTY
Idih
SciTegic.value.DoubleValue
0.000

@<SCITEGIC>MOL_PROPERTY
Tether
SciTegic.value.DoubleValue
0.000

@<TRIPOS>MOLECULE
guest-s10_confgen4.mol2 : confsearch ligand conformer 631
          20          19           1
SMALL
USER_CHARGES
 
@<TRIPOS>ATOM
       1    N1      18.091996   18.994135   23.790972 N.4        1 MOL1        -0.5937
       2    H1      18.247104   19.898715   24.242882 H          1 MOL1         0.3684
       3    H2      17.466132   18.454589   24.394992 H          1 MOL1         0.3684
       4    H3      17.592622   19.169261   22.915450 H          1 MOL1         0.3684
       5    C1      19.388208   18.267704   23.551821 C.3        1 MOL1         0.1270
       6    H4      19.133375   17.320664   23.065958 H          1 MOL1         0.0960
       7    C2      20.084393   17.951923   24.885829 C.3        1 MOL1        -0.2382
       8    H5      19.426014   17.365414   25.538368 H          1 MOL1         0.1009
       9    H6      20.361336   18.871150   25.416975 H          1 MOL1         0.1009
      10    H7      20.996500   17.365075   24.720569 H          1 MOL1         0.1009
      11    C3      20.342121   19.047031   22.619700 C.3        1 MOL1        -0.1392
      12    H8      20.595171   20.014081   23.074339 H          1 MOL1         0.0998
      13    H9      21.283234   18.488357   22.528836 H          1 MOL1         0.0998
      14    C4      19.756811   19.271459   21.204580 C.3        1 MOL1        -0.1302
      15    H10     18.842701   19.877574   21.263350 H          1 MOL1         0.0998
      16    H11     19.470649   18.305591   20.764748 H          1 MOL1         0.0998
      17    C5      20.767651   19.976716   20.275001 C.3        1 MOL1        -0.2317
      18    H12     21.050591   20.960055   20.672801 H          1 MOL1         0.1009
      19    H13     20.336003   20.128959   19.277210 H          1 MOL1         0.1009
      20    H14     21.681392   19.379472   20.158346 H          1 MOL1         0.1009
@<TRIPOS>BOND
    1     1     2    1
    2     1     3    1
    3     1     4    1
    4     1     5    1
    5     5     6    1
    6     5     7    1
    7     7     8    1
    8     7     9    1
    9     7    10    1
   10     5    11    1
   11    11    12    1
   12    11    13    1
   13    11    14    1
   14    14    15    1
   15    14    16    1
   16    14    17    1
   17    17    18    1
   18    17    19    1
   19    17    20    1
@<TRIPOS>SUBSTRUCTURE
       1 MOL1            1 RESIDUE      1      MOL     
@<SCITEGIC>MOL_PROPERTY
VConf Rank
SciTegic.value.IntegerValue
631

@<SCITEGIC>MOL_PROPERTY
Conf_Id
SciTegic.value.IntegerValue
74

@<SCITEGIC>MOL_PROPERTY
Delta U+W
SciTegic.value.DoubleValue
0.000

@<SCITEGIC>MOL_PROPERTY
U+W
SciTegic.value.DoubleValue
-36.276

@<SCITEGIC>MOL_PROPERTY
Grad RMS
SciTegic.value.DoubleValue
0.000000

@<SCITEGIC>MOL_PROPERTY
U
SciTegic.value.DoubleValue
22.080

@<SCITEGIC>MOL_PROPERTY
W
SciTegic.value.DoubleValue
-58.356

@<SCITEGIC>MOL_PROPERTY
W(PB)
SciTegic.value.DoubleValue
-60.289

@<SCITEGIC>MOL_PROPERTY
W(SA)
SciTegic.value.DoubleValue
1.932

@<SCITEGIC>MOL_PROPERTY
Valence
SciTegic.value.DoubleValue
1.885

@<SCITEGIC>MOL_PROPERTY
Coulomb
SciTegic.value.DoubleValue
19.559

@<SCITEGIC>MOL_PROPERTY
VdW
SciTegic.value.DoubleValue
0.637

@<SCITEGIC>MOL_PROPERTY
VdW6
SciTegic.value.DoubleValue
-4.482

@<SCITEGIC>MOL_PROPERTY
VdW12
SciTegic.value.DoubleValue
5.119

@<SCITEGIC>MOL_PROPERTY
Bond
SciTegic.value.DoubleValue
0.136

@<SCITEGIC>MOL_PROPERTY
Angle
SciTegic.value.DoubleValue
0.867

@<SCITEGIC>MOL_PROPERTY
Pdih
SciTegic.value.DoubleValue
0.882

@<SCITEGIC>MOL_PROPERTY
Idih
SciTegic.value.DoubleValue
0.000

@<SCITEGIC>MOL_PROPERTY
Tether
SciTegic.value.DoubleValue
0.000

@<TRIPOS>MOLECULE
guest-s10_confgen4.mol2 : confsearch ligand conformer 632
          20          19           1
SMALL
USER_CHARGES
 
@<TRIPOS>ATOM
       1    N1      19.108689   21.007871   21.711851 N.4        1 MOL1        -0.5937
       2    H1      19.598261   21.684950   22.303238 H          1 MOL1         0.3684
       3    H2      18.124910   21.010740   21.992737 H          1 MOL1         0.3684
       4    H3      19.151747   21.359006   20.751367 H          1 MOL1         0.3684
       5    C1      19.711417   19.634304   21.823657 C.3        1 MOL1         0.1270
       6    H4      20.753610   19.728138   21.502885 H          1 MOL1         0.0960
       7    C2      18.995873   18.658208   20.871799 C.3        1 MOL1        -0.2382
       8    H5      18.974198   19.059851   19.851292 H          1 MOL1         0.1009
       9    H6      17.960792   18.480881   21.189196 H          1 MOL1         0.1009
      10    H7      19.512350   17.692524   20.827874 H          1 MOL1         0.1009
      11    C3      19.699153   19.135562   23.287417 C.3        1 MOL1        -0.1392
      12    H8      20.124645   19.921223   23.925662 H          1 MOL1         0.0998
      13    H9      18.662657   18.992328   23.620598 H          1 MOL1         0.0998
      14    C4      20.503815   17.831792   23.510724 C.3        1 MOL1        -0.1302
      15    H10     21.523720   17.954072   23.119684 H          1 MOL1         0.0998
      16    H11     20.046907   17.001947   22.955304 H          1 MOL1         0.0998
      17    C5      20.571315   17.453022   25.005936 C.3        1 MOL1        -0.2317
      18    H12     21.062390   18.240718   25.592125 H          1 MOL1         0.1009
      19    H13     21.141565   16.525437   25.145537 H          1 MOL1         0.1009
      20    H14     19.566445   17.295665   25.419137 H          1 MOL1         0.1009
@<TRIPOS>BOND
    1     1     2    1
    2     1     3    1
    3     1     4    1
    4     1     5    1
    5     5     6    1
    6     5     7    1
    7     7     8    1
    8     7     9    1
    9     7    10    1
   10     5    11    1
   11    11    12    1
   12    11    13    1
   13    11    14    1
   14    14    15    1
   15    14    16    1
   16    14    17    1
   17    17    18    1
   18    17    19    1
   19    17    20    1
@<TRIPOS>SUBSTRUCTURE
       1 MOL1            1 RESIDUE      1      MOL     
@<SCITEGIC>MOL_PROPERTY
VConf Rank
SciTegic.value.IntegerValue
632

@<SCITEGIC>MOL_PROPERTY
Conf_Id
SciTegic.value.IntegerValue
80

@<SCITEGIC>MOL_PROPERTY
Delta U+W
SciTegic.value.DoubleValue
0.460

@<SCITEGIC>MOL_PROPERTY
U+W
SciTegic.value.DoubleValue
-35.817

@<SCITEGIC>MOL_PROPERTY
Grad RMS
SciTegic.value.DoubleValue
0.000000

@<SCITEGIC>MOL_PROPERTY
U
SciTegic.value.DoubleValue
22.495

@<SCITEGIC>MOL_PROPERTY
W
SciTegic.value.DoubleValue
-58.311

@<SCITEGIC>MOL_PROPERTY
W(PB)
SciTegic.value.DoubleValue
-60.259

@<SCITEGIC>MOL_PROPERTY
W(SA)
SciTegic.value.DoubleValue
1.948

@<SCITEGIC>MOL_PROPERTY
Valence
SciTegic.value.DoubleValue
2.419

@<SCITEGIC>MOL_PROPERTY
Coulomb
SciTegic.value.DoubleValue
19.304

@<SCITEGIC>MOL_PROPERTY
VdW
SciTegic.value.DoubleValue
0.772

@<SCITEGIC>MOL_PROPERTY
VdW6
SciTegic.value.DoubleValue
-4.635

@<SCITEGIC>MOL_PROPERTY
VdW12
SciTegic.value.DoubleValue
5.407

@<SCITEGIC>MOL_PROPERTY
Bond
SciTegic.value.DoubleValue
0.149

@<SCITEGIC>MOL_PROPERTY
Angle
SciTegic.value.DoubleValue
1.142

@<SCITEGIC>MOL_PROPERTY
Pdih
SciTegic.value.DoubleValue
1.129

@<SCITEGIC>MOL_PROPERTY
Idih
SciTegic.value.DoubleValue
0.000

@<SCITEGIC>MOL_PROPERTY
Tether
SciTegic.value.DoubleValue
0.000

@<TRIPOS>MOLECULE
guest-s10_confgen4.mol2 : confsearch ligand conformer 633
          20          19           1
SMALL
USER_CHARGES
 
@<TRIPOS>ATOM
       1    N1      17.806688   18.464619   21.386801 N.4        1 MOL1        -0.5937
       2    H1      17.051739   19.116824   21.615911 H          1 MOL1         0.3684
       3    H2      17.584859   17.570493   21.831795 H          1 MOL1         0.3684
       4    H3      17.780301   18.315358   20.374556 H          1 MOL1         0.3684
       5    C1      19.145767   18.985663   21.831917 C.3        1 MOL1         0.1270
       6    H4      19.296919   19.932285   21.303844 H          1 MOL1         0.0960
       7    C2      20.262270   18.017110   21.405791 C.3        1 MOL1        -0.2382
       8    H5      20.172487   17.766327   20.341746 H          1 MOL1         0.1009
       9    H6      20.220696   17.083737   21.980717 H          1 MOL1         0.1009
      10    H7      21.250054   18.470421   21.546502 H          1 MOL1         0.1009
      11    C3      19.150825   19.277996   23.352394 C.3        1 MOL1        -0.1392
      12    H8      18.302832   19.943131   23.562620 H          1 MOL1         0.0998
      13    H9      18.954214   18.356694   23.916555 H          1 MOL1         0.0998
      14    C4      20.435087   19.968539   23.882926 C.3        1 MOL1        -0.1302
      15    H10     20.149279   20.686884   24.664214 H          1 MOL1         0.0998
      16    H11     20.906673   20.561843   23.086959 H          1 MOL1         0.0998
      17    C5      21.455933   18.980961   24.495785 C.3        1 MOL1        -0.2317
      18    H12     21.015862   18.437226   25.341838 H          1 MOL1         0.1009
      19    H13     22.335606   19.520786   24.869615 H          1 MOL1         0.1009
      20    H14     21.805745   18.242161   23.766163 H          1 MOL1         0.1009
@<TRIPOS>BOND
    1     1     2    1
    2     1     3    1
    3     1     4    1
    4     1     5    1
    5     5     6    1
    6     5     7    1
    7     7     8    1
    8     7     9    1
    9     7    10    1
   10     5    11    1
   11    11    12    1
   12    11    13    1
   13    11    14    1
   14    14    15    1
   15    14    16    1
   16    14    17    1
   17    17    18    1
   18    17    19    1
   19    17    20    1
@<TRIPOS>SUBSTRUCTURE
       1 MOL1            1 RESIDUE      1      MOL     
@<SCITEGIC>MOL_PROPERTY
VConf Rank
SciTegic.value.IntegerValue
633

@<SCITEGIC>MOL_PROPERTY
Conf_Id
SciTegic.value.IntegerValue
52

@<SCITEGIC>MOL_PROPERTY
Delta U+W
SciTegic.value.DoubleValue
2.995

@<SCITEGIC>MOL_PROPERTY
U+W
SciTegic.value.DoubleValue
-33.282

@<SCITEGIC>MOL_PROPERTY
Grad RMS
SciTegic.value.DoubleValue
0.000000

@<SCITEGIC>MOL_PROPERTY
U
SciTegic.value.DoubleValue
25.224

@<SCITEGIC>MOL_PROPERTY
W
SciTegic.value.DoubleValue
-58.506

@<SCITEGIC>MOL_PROPERTY
W(PB)
SciTegic.value.DoubleValue
-60.411

@<SCITEGIC>MOL_PROPERTY
W(SA)
SciTegic.value.DoubleValue
1.905

@<SCITEGIC>MOL_PROPERTY
Valence
SciTegic.value.DoubleValue
4.945

@<SCITEGIC>MOL_PROPERTY
Coulomb
SciTegic.value.DoubleValue
19.467

@<SCITEGIC>MOL_PROPERTY
VdW
SciTegic.value.DoubleValue
0.813

@<SCITEGIC>MOL_PROPERTY
VdW6
SciTegic.value.DoubleValue
-5.458

@<SCITEGIC>MOL_PROPERTY
VdW12
SciTegic.value.DoubleValue
6.270

@<SCITEGIC>MOL_PROPERTY
Bond
SciTegic.value.DoubleValue
0.200

@<SCITEGIC>MOL_PROPERTY
Angle
SciTegic.value.DoubleValue
1.675

@<SCITEGIC>MOL_PROPERTY
Pdih
SciTegic.value.DoubleValue
3.070

@<SCITEGIC>MOL_PROPERTY
Idih
SciTegic.value.DoubleValue
0.000

@<SCITEGIC>MOL_PROPERTY
Tether
SciTegic.value.DoubleValue
0.000

@<TRIPOS>MOLECULE
guest-s10_confgen4.mol2 : confsearch ligand conformer 634
          20          19           1
SMALL
USER_CHARGES
 
@<TRIPOS>ATOM
       1    N1      20.230968   19.041257   24.293560 N.4        1 MOL1        -0.5937
       2    H1      21.218089   18.774439   24.265645 H          1 MOL1         0.3684
       3    H2      19.892307   18.862371   25.242747 H          1 MOL1         0.3684
       4    H3      20.182017   20.049613   24.132914 H          1 MOL1         0.3684
       5    C1      19.429324   18.285455   23.269168 C.3        1 MOL1         0.1270
       6    H4      18.384239   18.586264   23.391835 H          1 MOL1         0.0960
       7    C2      19.529675   16.774623   23.539490 C.3        1 MOL1        -0.2382
       8    H5      20.559083   16.416260   23.413979 H          1 MOL1         0.1009
       9    H6      18.885380   16.210830   22.853438 H          1 MOL1         0.1009
      10    H7      19.208348   16.540405   24.561853 H          1 MOL1         0.1009
      11    C3      19.859375   18.603392   21.817201 C.3        1 MOL1        -0.1392
      12    H8      20.952942   18.555057   21.731472 H          1 MOL1         0.0998
      13    H9      19.472015   17.815814   21.157083 H          1 MOL1         0.0998
      14    C4      19.339623   19.957447   21.266746 C.3        1 MOL1        -0.1302
      15    H10     18.241671   19.978723   21.312395 H          1 MOL1         0.0998
      16    H11     19.598877   20.015344   20.200228 H          1 MOL1         0.0998
      17    C5      19.909583   21.207908   21.974347 C.3        1 MOL1        -0.2317
      18    H12     19.657549   22.112666   21.405858 H          1 MOL1         0.1009
      19    H13     21.003581   21.159066   22.052440 H          1 MOL1         0.1009
      20    H14     19.485747   21.333338   22.977377 H          1 MOL1         0.1009
@<TRIPOS>BOND
    1     1     2    1
    2     1     3    1
    3     1     4    1
    4     1     5    1
    5     5     6    1
    6     5     7    1
    7     7     8    1
    8     7     9    1
    9     7    10    1
   10     5    11    1
   11    11    12    1
   12    11    13    1
   13    11    14    1
   14    14    15    1
   15    14    16    1
   16    14    17    1
   17    17    18    1
   18    17    19    1
   19    17    20    1
@<TRIPOS>SUBSTRUCTURE
       1 MOL1            1 RESIDUE      1      MOL     
@<SCITEGIC>MOL_PROPERTY
VConf Rank
SciTegic.value.IntegerValue
634

@<SCITEGIC>MOL_PROPERTY
Conf_Id
SciTegic.value.IntegerValue
54

@<SCITEGIC>MOL_PROPERTY
Delta U+W
SciTegic.value.DoubleValue
2.752

@<SCITEGIC>MOL_PROPERTY
U+W
SciTegic.value.DoubleValue
-33.525

@<SCITEGIC>MOL_PROPERTY
Grad RMS
SciTegic.value.DoubleValue
0.000000

@<SCITEGIC>MOL_PROPERTY
U
SciTegic.value.DoubleValue
24.337

@<SCITEGIC>MOL_PROPERTY
W
SciTegic.value.DoubleValue
-57.862

@<SCITEGIC>MOL_PROPERTY
W(PB)
SciTegic.value.DoubleValue
-59.764

@<SCITEGIC>MOL_PROPERTY
W(SA)
SciTegic.value.DoubleValue
1.901

@<SCITEGIC>MOL_PROPERTY
Valence
SciTegic.value.DoubleValue
3.593

@<SCITEGIC>MOL_PROPERTY
Coulomb
SciTegic.value.DoubleValue
20.067

@<SCITEGIC>MOL_PROPERTY
VdW
SciTegic.value.DoubleValue
0.677

@<SCITEGIC>MOL_PROPERTY
VdW6
SciTegic.value.DoubleValue
-5.466

@<SCITEGIC>MOL_PROPERTY
VdW12
SciTegic.value.DoubleValue
6.144

@<SCITEGIC>MOL_PROPERTY
Bond
SciTegic.value.DoubleValue
0.191

@<SCITEGIC>MOL_PROPERTY
Angle
SciTegic.value.DoubleValue
1.557

@<SCITEGIC>MOL_PROPERTY
Pdih
SciTegic.value.DoubleValue
1.845

@<SCITEGIC>MOL_PROPERTY
Idih
SciTegic.value.DoubleValue
0.000

@<SCITEGIC>MOL_PROPERTY
Tether
SciTegic.value.DoubleValue
0.000

@<TRIPOS>MOLECULE
guest-s10_confgen4.mol2 : confsearch ligand conformer 635
          20          19           1
SMALL
USER_CHARGES
 
@<TRIPOS>ATOM
       1    N1      20.300892   18.591845   20.737362 N.4        1 MOL1        -0.5937
       2    H1      20.278661   18.968343   19.785832 H          1 MOL1         0.3684
       3    H2      20.286183   17.571260   20.660532 H          1 MOL1         0.3684
       4    H3      21.198580   18.856159   21.149359 H          1 MOL1         0.3684
       5    C1      19.147542   19.101486   21.558297 C.3        1 MOL1         0.1270
       6    H4      18.240078   18.786822   21.033398 H          1 MOL1         0.0960
       7    C2      19.143044   20.639696   21.610566 C.3        1 MOL1        -0.2382
       8    H5      18.301903   21.007180   22.211324 H          1 MOL1         0.1009
       9    H6      19.037787   21.057333   20.601811 H          1 MOL1         0.1009
      10    H7      20.071169   21.034265   22.040614 H          1 MOL1         0.1009
      11    C3      19.101090   18.471166   22.970951 C.3        1 MOL1        -0.1392
      12    H8      18.191257   18.814594   23.480850 H          1 MOL1         0.0998
      13    H9      18.993045   17.383988   22.862424 H          1 MOL1         0.0998
      14    C4      20.332684   18.773163   23.863317 C.3        1 MOL1        -0.1302
      15    H10     20.427714   19.854984   24.026552 H          1 MOL1         0.0998
      16    H11     21.253360   18.443945   23.363184 H          1 MOL1         0.0998
      17    C5      20.225594   18.069570   25.233286 C.3        1 MOL1        -0.2317
      18    H12     21.102600   18.294171   25.854158 H          1 MOL1         0.1009
      19    H13     20.167909   16.979695   25.114686 H          1 MOL1         0.1009
      20    H14     19.332986   18.401639   25.779367 H          1 MOL1         0.1009
@<TRIPOS>BOND
    1     1     2    1
    2     1     3    1
    3     1     4    1
    4     1     5    1
    5     5     6    1
    6     5     7    1
    7     7     8    1
    8     7     9    1
    9     7    10    1
   10     5    11    1
   11    11    12    1
   12    11    13    1
   13    11    14    1
   14    14    15    1
   15    14    16    1
   16    14    17    1
   17    17    18    1
   18    17    19    1
   19    17    20    1
@<TRIPOS>SUBSTRUCTURE
       1 MOL1            1 RESIDUE      1      MOL     
@<SCITEGIC>MOL_PROPERTY
VConf Rank
SciTegic.value.IntegerValue
635

@<SCITEGIC>MOL_PROPERTY
Conf_Id
SciTegic.value.IntegerValue
63

@<SCITEGIC>MOL_PROPERTY
Delta U+W
SciTegic.value.DoubleValue
0.420

@<SCITEGIC>MOL_PROPERTY
U+W
SciTegic.value.DoubleValue
-35.856

@<SCITEGIC>MOL_PROPERTY
Grad RMS
SciTegic.value.DoubleValue
0.000000

@<SCITEGIC>MOL_PROPERTY
U
SciTegic.value.DoubleValue
22.625

@<SCITEGIC>MOL_PROPERTY
W
SciTegic.value.DoubleValue
-58.481

@<SCITEGIC>MOL_PROPERTY
W(PB)
SciTegic.value.DoubleValue
-60.400

@<SCITEGIC>MOL_PROPERTY
W(SA)
SciTegic.value.DoubleValue
1.919

@<SCITEGIC>MOL_PROPERTY
Valence
SciTegic.value.DoubleValue
2.404

@<SCITEGIC>MOL_PROPERTY
Coulomb
SciTegic.value.DoubleValue
19.464

@<SCITEGIC>MOL_PROPERTY
VdW
SciTegic.value.DoubleValue
0.757

@<SCITEGIC>MOL_PROPERTY
VdW6
SciTegic.value.DoubleValue
-5.074

@<SCITEGIC>MOL_PROPERTY
VdW12
SciTegic.value.DoubleValue
5.830

@<SCITEGIC>MOL_PROPERTY
Bond
SciTegic.value.DoubleValue
0.172

@<SCITEGIC>MOL_PROPERTY
Angle
SciTegic.value.DoubleValue
1.207

@<SCITEGIC>MOL_PROPERTY
Pdih
SciTegic.value.DoubleValue
1.025

@<SCITEGIC>MOL_PROPERTY
Idih
SciTegic.value.DoubleValue
0.000

@<SCITEGIC>MOL_PROPERTY
Tether
SciTegic.value.DoubleValue
0.000

@<TRIPOS>MOLECULE
guest-s10_confgen4.mol2 : confsearch ligand conformer 636
          20          19           1
SMALL
USER_CHARGES
 
@<TRIPOS>ATOM
       1    N1      21.404425   18.805611   22.370408 N.4        1 MOL1        -0.5937
       2    H1      21.266594   19.647806   21.805975 H          1 MOL1         0.3684
       3    H2      21.546727   18.023331   21.726818 H          1 MOL1         0.3684
       4    H3      22.272749   18.929743   22.897803 H          1 MOL1         0.3684
       5    C1      20.233774   18.561935   23.283850 C.3        1 MOL1         0.1270
       6    H4      20.155050   19.437688   23.934993 H          1 MOL1         0.0960
       7    C2      20.482436   17.329303   24.168325 C.3        1 MOL1        -0.2382
       8    H5      21.405034   17.448138   24.749642 H          1 MOL1         0.1009
       9    H6      20.574348   16.418228   23.563967 H          1 MOL1         0.1009
      10    H7      19.658370   17.186474   24.878351 H          1 MOL1         0.1009
      11    C3      18.903218   18.410794   22.511994 C.3        1 MOL1        -0.1392
      12    H8      18.956546   17.525978   21.863851 H          1 MOL1         0.0998
      13    H9      18.094339   18.217097   23.229018 H          1 MOL1         0.0998
      14    C4      18.522442   19.644636   21.654939 C.3        1 MOL1        -0.1302
      15    H10     17.570533   19.439629   21.145288 H          1 MOL1         0.0998
      16    H11     19.263669   19.797845   20.858902 H          1 MOL1         0.0998
      17    C5      18.376020   20.938800   22.487446 C.3        1 MOL1        -0.2317
      18    H12     17.638978   20.809810   23.290757 H          1 MOL1         0.1009
      19    H13     18.037179   21.767946   21.852803 H          1 MOL1         0.1009
      20    H14     19.328928   21.238343   22.941470 H          1 MOL1         0.1009
@<TRIPOS>BOND
    1     1     2    1
    2     1     3    1
    3     1     4    1
    4     1     5    1
    5     5     6    1
    6     5     7    1
    7     7     8    1
    8     7     9    1
    9     7    10    1
   10     5    11    1
   11    11    12    1
   12    11    13    1
   13    11    14    1
   14    14    15    1
   15    14    16    1
   16    14    17    1
   17    17    18    1
   18    17    19    1
   19    17    20    1
@<TRIPOS>SUBSTRUCTURE
       1 MOL1            1 RESIDUE      1      MOL     
@<SCITEGIC>MOL_PROPERTY
VConf Rank
SciTegic.value.IntegerValue
636

@<SCITEGIC>MOL_PROPERTY
Conf_Id
SciTegic.value.IntegerValue
50

@<SCITEGIC>MOL_PROPERTY
Delta U+W
SciTegic.value.DoubleValue
0.466

@<SCITEGIC>MOL_PROPERTY
U+W
SciTegic.value.DoubleValue
-35.811

@<SCITEGIC>MOL_PROPERTY
Grad RMS
SciTegic.value.DoubleValue
0.000000

@<SCITEGIC>MOL_PROPERTY
U
SciTegic.value.DoubleValue
22.369

@<SCITEGIC>MOL_PROPERTY
W
SciTegic.value.DoubleValue
-58.180

@<SCITEGIC>MOL_PROPERTY
W(PB)
SciTegic.value.DoubleValue
-60.103

@<SCITEGIC>MOL_PROPERTY
W(SA)
SciTegic.value.DoubleValue
1.923

@<SCITEGIC>MOL_PROPERTY
Valence
SciTegic.value.DoubleValue
2.168

@<SCITEGIC>MOL_PROPERTY
Coulomb
SciTegic.value.DoubleValue
19.636

@<SCITEGIC>MOL_PROPERTY
VdW
SciTegic.value.DoubleValue
0.566

@<SCITEGIC>MOL_PROPERTY
VdW6
SciTegic.value.DoubleValue
-5.263

@<SCITEGIC>MOL_PROPERTY
VdW12
SciTegic.value.DoubleValue
5.829

@<SCITEGIC>MOL_PROPERTY
Bond
SciTegic.value.DoubleValue
0.162

@<SCITEGIC>MOL_PROPERTY
Angle
SciTegic.value.DoubleValue
1.066

@<SCITEGIC>MOL_PROPERTY
Pdih
SciTegic.value.DoubleValue
0.939

@<SCITEGIC>MOL_PROPERTY
Idih
SciTegic.value.DoubleValue
0.000

@<SCITEGIC>MOL_PROPERTY
Tether
SciTegic.value.DoubleValue
0.000

@<TRIPOS>MOLECULE
guest-s10_confgen4.mol2 : confsearch ligand conformer 637
          20          19           1
SMALL
USER_CHARGES
 
@<TRIPOS>ATOM
       1    N1      18.370429   19.422469   24.577814 N.4        1 MOL1        -0.5937
       2    H1      18.847917   20.209169   25.026261 H          1 MOL1         0.3684
       3    H2      18.419837   18.626992   25.219411 H          1 MOL1         0.3684
       4    H3      17.383789   19.679603   24.487487 H          1 MOL1         0.3684
       5    C1      18.978306   19.093225   23.241152 C.3        1 MOL1         0.1270
       6    H4      18.882098   19.997174   22.631741 H          1 MOL1         0.0960
       7    C2      18.186149   17.957069   22.567654 C.3        1 MOL1        -0.2382
       8    H5      18.216966   17.041758   23.171742 H          1 MOL1         0.1009
       9    H6      18.586779   17.719179   21.576346 H          1 MOL1         0.1009
      10    H7      17.134938   18.242656   22.439110 H          1 MOL1         0.1009
      11    C3      20.483751   18.749896   23.359440 C.3        1 MOL1        -0.1392
      12    H8      20.859470   19.109450   24.326513 H          1 MOL1         0.0998
      13    H9      20.629150   17.661454   23.372301 H          1 MOL1         0.0998
      14    C4      21.362360   19.391898   22.255963 C.3        1 MOL1        -0.1302
      15    H10     22.415596   19.158582   22.466178 H          1 MOL1         0.0998
      16    H11     21.276202   20.486395   22.308250 H          1 MOL1         0.0998
      17    C5      21.025045   18.919250   20.824510 C.3        1 MOL1        -0.2317
      18    H12     21.060630   17.824636   20.749791 H          1 MOL1         0.1009
      19    H13     21.747687   19.327191   20.105891 H          1 MOL1         0.1009
      20    H14     20.028581   19.258001   20.514774 H          1 MOL1         0.1009
@<TRIPOS>BOND
    1     1     2    1
    2     1     3    1
    3     1     4    1
    4     1     5    1
    5     5     6    1
    6     5     7    1
    7     7     8    1
    8     7     9    1
    9     7    10    1
   10     5    11    1
   11    11    12    1
   12    11    13    1
   13    11    14    1
   14    14    15    1
   15    14    16    1
   16    14    17    1
   17    17    18    1
   18    17    19    1
   19    17    20    1
@<TRIPOS>SUBSTRUCTURE
       1 MOL1            1 RESIDUE      1      MOL     
@<SCITEGIC>MOL_PROPERTY
VConf Rank
SciTegic.value.IntegerValue
637

@<SCITEGIC>MOL_PROPERTY
Conf_Id
SciTegic.value.IntegerValue
3

@<SCITEGIC>MOL_PROPERTY
Delta U+W
SciTegic.value.DoubleValue
3.093

@<SCITEGIC>MOL_PROPERTY
U+W
SciTegic.value.DoubleValue
-33.184

@<SCITEGIC>MOL_PROPERTY
Grad RMS
SciTegic.value.DoubleValue
0.000000

@<SCITEGIC>MOL_PROPERTY
U
SciTegic.value.DoubleValue
25.256

@<SCITEGIC>MOL_PROPERTY
W
SciTegic.value.DoubleValue
-58.439

@<SCITEGIC>MOL_PROPERTY
W(PB)
SciTegic.value.DoubleValue
-60.337

@<SCITEGIC>MOL_PROPERTY
W(SA)
SciTegic.value.DoubleValue
1.898

@<SCITEGIC>MOL_PROPERTY
Valence
SciTegic.value.DoubleValue
4.963

@<SCITEGIC>MOL_PROPERTY
Coulomb
SciTegic.value.DoubleValue
19.511

@<SCITEGIC>MOL_PROPERTY
VdW
SciTegic.value.DoubleValue
0.782

@<SCITEGIC>MOL_PROPERTY
VdW6
SciTegic.value.DoubleValue
-5.429

@<SCITEGIC>MOL_PROPERTY
VdW12
SciTegic.value.DoubleValue
6.211

@<SCITEGIC>MOL_PROPERTY
Bond
SciTegic.value.DoubleValue
0.174

@<SCITEGIC>MOL_PROPERTY
Angle
SciTegic.value.DoubleValue
1.377

@<SCITEGIC>MOL_PROPERTY
Pdih
SciTegic.value.DoubleValue
3.412

@<SCITEGIC>MOL_PROPERTY
Idih
SciTegic.value.DoubleValue
0.000

@<SCITEGIC>MOL_PROPERTY
Tether
SciTegic.value.DoubleValue
0.000

@<TRIPOS>MOLECULE
guest-s10_confgen4.mol2 : confsearch ligand conformer 638
          20          19           1
SMALL
USER_CHARGES
 
@<TRIPOS>ATOM
       1    N1      20.009176   16.761003   23.355349 N.4        1 MOL1        -0.5937
       2    H1      20.614613   16.125660   22.828642 H          1 MOL1         0.3684
       3    H2      19.065825   16.364021   23.337366 H          1 MOL1         0.3684
       4    H3      20.328184   16.748754   24.327341 H          1 MOL1         0.3684
       5    C1      20.037750   18.151205   22.781848 C.3        1 MOL1         0.1270
       6    H4      19.687374   18.063987   21.749023 H          1 MOL1         0.0960
       7    C2      21.478689   18.692880   22.762282 C.3        1 MOL1        -0.2382
       8    H5      21.538432   19.644708   22.221921 H          1 MOL1         0.1009
       9    H6      22.149561   17.989063   22.254634 H          1 MOL1         0.1009
      10    H7      21.857530   18.850566   23.779682 H          1 MOL1         0.1009
      11    C3      19.073849   19.091426   23.544284 C.3        1 MOL1        -0.1392
      12    H8      18.085419   18.615967   23.593995 H          1 MOL1         0.0998
      13    H9      19.413948   19.195708   24.583126 H          1 MOL1         0.0998
      14    C4      18.905738   20.501548   22.922675 C.3        1 MOL1        -0.1302
      15    H10     19.850706   21.058474   22.978724 H          1 MOL1         0.0998
      16    H11     18.186432   21.069782   23.528934 H          1 MOL1         0.0998
      17    C5      18.407611   20.463426   21.459949 C.3        1 MOL1        -0.2317
      18    H12     17.463925   19.908480   21.378403 H          1 MOL1         0.1009
      19    H13     19.142422   19.991082   20.795866 H          1 MOL1         0.1009
      20    H14     18.231123   21.480725   21.087157 H          1 MOL1         0.1009
@<TRIPOS>BOND
    1     1     2    1
    2     1     3    1
    3     1     4    1
    4     1     5    1
    5     5     6    1
    6     5     7    1
    7     7     8    1
    8     7     9    1
    9     7    10    1
   10     5    11    1
   11    11    12    1
   12    11    13    1
   13    11    14    1
   14    14    15    1
   15    14    16    1
   16    14    17    1
   17    17    18    1
   18    17    19    1
   19    17    20    1
@<TRIPOS>SUBSTRUCTURE
       1 MOL1            1 RESIDUE      1      MOL     
@<SCITEGIC>MOL_PROPERTY
VConf Rank
SciTegic.value.IntegerValue
638

@<SCITEGIC>MOL_PROPERTY
Conf_Id
SciTegic.value.IntegerValue
64

@<SCITEGIC>MOL_PROPERTY
Delta U+W
SciTegic.value.DoubleValue
0.544

@<SCITEGIC>MOL_PROPERTY
U+W
SciTegic.value.DoubleValue
-35.732

@<SCITEGIC>MOL_PROPERTY
Grad RMS
SciTegic.value.DoubleValue
0.000000

@<SCITEGIC>MOL_PROPERTY
U
SciTegic.value.DoubleValue
22.800

@<SCITEGIC>MOL_PROPERTY
W
SciTegic.value.DoubleValue
-58.532

@<SCITEGIC>MOL_PROPERTY
W(PB)
SciTegic.value.DoubleValue
-60.437

@<SCITEGIC>MOL_PROPERTY
W(SA)
SciTegic.value.DoubleValue
1.905

@<SCITEGIC>MOL_PROPERTY
Valence
SciTegic.value.DoubleValue
2.662

@<SCITEGIC>MOL_PROPERTY
Coulomb
SciTegic.value.DoubleValue
19.485

@<SCITEGIC>MOL_PROPERTY
VdW
SciTegic.value.DoubleValue
0.653

@<SCITEGIC>MOL_PROPERTY
VdW6
SciTegic.value.DoubleValue
-5.460

@<SCITEGIC>MOL_PROPERTY
VdW12
SciTegic.value.DoubleValue
6.113

@<SCITEGIC>MOL_PROPERTY
Bond
SciTegic.value.DoubleValue
0.174

@<SCITEGIC>MOL_PROPERTY
Angle
SciTegic.value.DoubleValue
1.378

@<SCITEGIC>MOL_PROPERTY
Pdih
SciTegic.value.DoubleValue
1.109

@<SCITEGIC>MOL_PROPERTY
Idih
SciTegic.value.DoubleValue
0.000

@<SCITEGIC>MOL_PROPERTY
Tether
SciTegic.value.DoubleValue
0.000

@<TRIPOS>MOLECULE
guest-s10_confgen4.mol2 : confsearch ligand conformer 639
          20          19           1
SMALL
USER_CHARGES
 
@<TRIPOS>ATOM
       1    N1      18.358585   19.560979   21.278514 N.4        1 MOL1        -0.5937
       2    H1      18.647868   20.446408   21.699944 H          1 MOL1         0.3684
       3    H2      17.335526   19.556986   21.247722 H          1 MOL1         0.3684
       4    H3      18.691316   19.558207   20.310556 H          1 MOL1         0.3684
       5    C1      18.890531   18.383590   22.050278 C.3        1 MOL1         0.1270
       6    H4      18.520292   17.493823   21.531433 H          1 MOL1         0.0960
       7    C2      18.314533   18.356957   23.475494 C.3        1 MOL1        -0.2382
       8    H5      18.533311   19.286156   24.014415 H          1 MOL1         0.1009
       9    H6      18.725186   17.515843   24.047533 H          1 MOL1         0.1009
      10    H7      17.224599   18.238112   23.445655 H          1 MOL1         0.1009
      11    C3      20.438084   18.311148   22.022505 C.3        1 MOL1        -0.1392
      12    H8      20.765382   17.351519   22.443795 H          1 MOL1         0.0998
      13    H9      20.746120   18.283045   20.969032 H          1 MOL1         0.0998
      14    C4      21.192968   19.477271   22.719306 C.3        1 MOL1        -0.1302
      15    H10     20.617792   20.410238   22.655086 H          1 MOL1         0.0998
      16    H11     22.126153   19.662952   22.169150 H          1 MOL1         0.0998
      17    C5      21.564283   19.181025   24.191417 C.3        1 MOL1        -0.2317
      18    H12     20.679273   19.027707   24.818497 H          1 MOL1         0.1009
      19    H13     22.131335   20.017832   24.619403 H          1 MOL1         0.1009
      20    H14     22.191481   18.283147   24.265442 H          1 MOL1         0.1009
@<TRIPOS>BOND
    1     1     2    1
    2     1     3    1
    3     1     4    1
    4     1     5    1
    5     5     6    1
    6     5     7    1
    7     7     8    1
    8     7     9    1
    9     7    10    1
   10     5    11    1
   11    11    12    1
   12    11    13    1
   13    11    14    1
   14    14    15    1
   15    14    16    1
   16    14    17    1
   17    17    18    1
   18    17    19    1
   19    17    20    1
@<TRIPOS>SUBSTRUCTURE
       1 MOL1            1 RESIDUE      1      MOL     
@<SCITEGIC>MOL_PROPERTY
VConf Rank
SciTegic.value.IntegerValue
639

@<SCITEGIC>MOL_PROPERTY
Conf_Id
SciTegic.value.IntegerValue
35

@<SCITEGIC>MOL_PROPERTY
Delta U+W
SciTegic.value.DoubleValue
3.004

@<SCITEGIC>MOL_PROPERTY
U+W
SciTegic.value.DoubleValue
-33.272

@<SCITEGIC>MOL_PROPERTY
Grad RMS
SciTegic.value.DoubleValue
0.000000

@<SCITEGIC>MOL_PROPERTY
U
SciTegic.value.DoubleValue
25.367

@<SCITEGIC>MOL_PROPERTY
W
SciTegic.value.DoubleValue
-58.639

@<SCITEGIC>MOL_PROPERTY
W(PB)
SciTegic.value.DoubleValue
-60.512

@<SCITEGIC>MOL_PROPERTY
W(SA)
SciTegic.value.DoubleValue
1.873

@<SCITEGIC>MOL_PROPERTY
Valence
SciTegic.value.DoubleValue
4.943

@<SCITEGIC>MOL_PROPERTY
Coulomb
SciTegic.value.DoubleValue
19.661

@<SCITEGIC>MOL_PROPERTY
VdW
SciTegic.value.DoubleValue
0.764

@<SCITEGIC>MOL_PROPERTY
VdW6
SciTegic.value.DoubleValue
-5.871

@<SCITEGIC>MOL_PROPERTY
VdW12
SciTegic.value.DoubleValue
6.636

@<SCITEGIC>MOL_PROPERTY
Bond
SciTegic.value.DoubleValue
0.230

@<SCITEGIC>MOL_PROPERTY
Angle
SciTegic.value.DoubleValue
1.857

@<SCITEGIC>MOL_PROPERTY
Pdih
SciTegic.value.DoubleValue
2.855

@<SCITEGIC>MOL_PROPERTY
Idih
SciTegic.value.DoubleValue
0.000

@<SCITEGIC>MOL_PROPERTY
Tether
SciTegic.value.DoubleValue
0.000

@<TRIPOS>MOLECULE
guest-s10_confgen4.mol2 : confsearch ligand conformer 640
          20          19           1
SMALL
USER_CHARGES
 
@<TRIPOS>ATOM
       1    N1      21.214760   20.032450   22.940630 N.4        1 MOL1        -0.5937
       2    H1      22.008287   20.116830   23.581563 H          1 MOL1         0.3684
       3    H2      21.112331   20.931679   22.462638 H          1 MOL1         0.3684
       4    H3      21.459792   19.336466   22.233832 H          1 MOL1         0.3684
       5    C1      19.955564   19.649119   23.668604 C.3        1 MOL1         0.1270
       6    H4      19.770700   20.464026   24.375484 H          1 MOL1         0.0960
       7    C2      20.152244   18.364071   24.492303 C.3        1 MOL1        -0.2382
       8    H5      20.435038   17.515696   23.857808 H          1 MOL1         0.1009
       9    H6      19.232101   18.101362   25.028718 H          1 MOL1         0.1009
      10    H7      20.943927   18.503354   25.238498 H          1 MOL1         0.1009
      11    C3      18.716742   19.571872   22.739808 C.3        1 MOL1        -0.1392
      12    H8      17.822228   19.602495   23.375772 H          1 MOL1         0.0998
      13    H9      18.671668   20.484172   22.130796 H          1 MOL1         0.0998
      14    C4      18.597339   18.330134   21.812217 C.3        1 MOL1        -0.1302
      15    H10     17.650181   18.408878   21.260388 H          1 MOL1         0.0998
      16    H11     18.513280   17.413490   22.411658 H          1 MOL1         0.0998
      17    C5      19.744135   18.177588   20.787272 C.3        1 MOL1        -0.2317
      18    H12     19.908055   19.109830   20.231218 H          1 MOL1         0.1009
      19    H13     19.499935   17.394191   20.058008 H          1 MOL1         0.1009
      20    H14     20.682303   17.883839   21.271854 H          1 MOL1         0.1009
@<TRIPOS>BOND
    1     1     2    1
    2     1     3    1
    3     1     4    1
    4     1     5    1
    5     5     6    1
    6     5     7    1
    7     7     8    1
    8     7     9    1
    9     7    10    1
   10     5    11    1
   11    11    12    1
   12    11    13    1
   13    11    14    1
   14    14    15    1
   15    14    16    1
   16    14    17    1
   17    17    18    1
   18    17    19    1
   19    17    20    1
@<TRIPOS>SUBSTRUCTURE
       1 MOL1            1 RESIDUE      1      MOL     
@<SCITEGIC>MOL_PROPERTY
VConf Rank
SciTegic.value.IntegerValue
640

@<SCITEGIC>MOL_PROPERTY
Conf_Id
SciTegic.value.IntegerValue
55

@<SCITEGIC>MOL_PROPERTY
Delta U+W
SciTegic.value.DoubleValue
2.767

@<SCITEGIC>MOL_PROPERTY
U+W
SciTegic.value.DoubleValue
-33.509

@<SCITEGIC>MOL_PROPERTY
Grad RMS
SciTegic.value.DoubleValue
0.000000

@<SCITEGIC>MOL_PROPERTY
U
SciTegic.value.DoubleValue
24.552

@<SCITEGIC>MOL_PROPERTY
W
SciTegic.value.DoubleValue
-58.061

@<SCITEGIC>MOL_PROPERTY
W(PB)
SciTegic.value.DoubleValue
-59.930

@<SCITEGIC>MOL_PROPERTY
W(SA)
SciTegic.value.DoubleValue
1.869

@<SCITEGIC>MOL_PROPERTY
Valence
SciTegic.value.DoubleValue
3.726

@<SCITEGIC>MOL_PROPERTY
Coulomb
SciTegic.value.DoubleValue
20.219

@<SCITEGIC>MOL_PROPERTY
VdW
SciTegic.value.DoubleValue
0.606

@<SCITEGIC>MOL_PROPERTY
VdW6
SciTegic.value.DoubleValue
-6.395

@<SCITEGIC>MOL_PROPERTY
VdW12
SciTegic.value.DoubleValue
7.001

@<SCITEGIC>MOL_PROPERTY
Bond
SciTegic.value.DoubleValue
0.241

@<SCITEGIC>MOL_PROPERTY
Angle
SciTegic.value.DoubleValue
2.098

@<SCITEGIC>MOL_PROPERTY
Pdih
SciTegic.value.DoubleValue
1.387

@<SCITEGIC>MOL_PROPERTY
Idih
SciTegic.value.DoubleValue
0.000

@<SCITEGIC>MOL_PROPERTY
Tether
SciTegic.value.DoubleValue
0.000

@<TRIPOS>MOLECULE
guest-s10_confgen4.mol2 : confsearch ligand conformer 641
          20          19           1
SMALL
USER_CHARGES
 
@<TRIPOS>ATOM
       1    N1      18.361324   20.255374   22.188256 N.4        1 MOL1        -0.5937
       2    H1      18.595319   20.301661   21.193445 H          1 MOL1         0.3684
       3    H2      17.889045   21.130220   22.431678 H          1 MOL1         0.3684
       4    H3      17.682392   19.499813   22.309745 H          1 MOL1         0.3684
       5    C1      19.587321   20.037600   23.033577 C.3        1 MOL1         0.1270
       6    H4      19.249335   19.996638   24.073757 H          1 MOL1         0.0960
       7    C2      20.559417   21.220113   22.889846 C.3        1 MOL1        -0.2382
       8    H5      20.066601   22.162901   23.157330 H          1 MOL1         0.1009
       9    H6      20.929193   21.307798   21.860589 H          1 MOL1         0.1009
      10    H7      21.423999   21.097367   23.553977 H          1 MOL1         0.1009
      11    C3      20.305371   18.709544   22.706741 C.3        1 MOL1        -0.1392
      12    H8      20.634568   18.715208   21.659119 H          1 MOL1         0.0998
      13    H9      21.213833   18.637980   23.319638 H          1 MOL1         0.0998
      14    C4      19.425561   17.464089   22.971878 C.3        1 MOL1        -0.1302
      15    H10     18.535784   17.483574   22.328183 H          1 MOL1         0.0998
      16    H11     19.067201   17.478250   24.010925 H          1 MOL1         0.0998
      17    C5      20.200951   16.153766   22.716676 C.3        1 MOL1        -0.2317
      18    H12     20.546831   16.095731   21.676361 H          1 MOL1         0.1009
      19    H13     19.562198   15.281711   22.907987 H          1 MOL1         0.1009
      20    H14     21.077762   16.078590   23.373016 H          1 MOL1         0.1009
@<TRIPOS>BOND
    1     1     2    1
    2     1     3    1
    3     1     4    1
    4     1     5    1
    5     5     6    1
    6     5     7    1
    7     7     8    1
    8     7     9    1
    9     7    10    1
   10     5    11    1
   11    11    12    1
   12    11    13    1
   13    11    14    1
   14    14    15    1
   15    14    16    1
   16    14    17    1
   17    17    18    1
   18    17    19    1
   19    17    20    1
@<TRIPOS>SUBSTRUCTURE
       1 MOL1            1 RESIDUE      1      MOL     
@<SCITEGIC>MOL_PROPERTY
VConf Rank
SciTegic.value.IntegerValue
641

@<SCITEGIC>MOL_PROPERTY
Conf_Id
SciTegic.value.IntegerValue
74

@<SCITEGIC>MOL_PROPERTY
Delta U+W
SciTegic.value.DoubleValue
0.000

@<SCITEGIC>MOL_PROPERTY
U+W
SciTegic.value.DoubleValue
-36.276

@<SCITEGIC>MOL_PROPERTY
Grad RMS
SciTegic.value.DoubleValue
0.000000

@<SCITEGIC>MOL_PROPERTY
U
SciTegic.value.DoubleValue
22.080

@<SCITEGIC>MOL_PROPERTY
W
SciTegic.value.DoubleValue
-58.356

@<SCITEGIC>MOL_PROPERTY
W(PB)
SciTegic.value.DoubleValue
-60.289

@<SCITEGIC>MOL_PROPERTY
W(SA)
SciTegic.value.DoubleValue
1.932

@<SCITEGIC>MOL_PROPERTY
Valence
SciTegic.value.DoubleValue
1.885

@<SCITEGIC>MOL_PROPERTY
Coulomb
SciTegic.value.DoubleValue
19.559

@<SCITEGIC>MOL_PROPERTY
VdW
SciTegic.value.DoubleValue
0.637

@<SCITEGIC>MOL_PROPERTY
VdW6
SciTegic.value.DoubleValue
-4.482

@<SCITEGIC>MOL_PROPERTY
VdW12
SciTegic.value.DoubleValue
5.119

@<SCITEGIC>MOL_PROPERTY
Bond
SciTegic.value.DoubleValue
0.136

@<SCITEGIC>MOL_PROPERTY
Angle
SciTegic.value.DoubleValue
0.867

@<SCITEGIC>MOL_PROPERTY
Pdih
SciTegic.value.DoubleValue
0.882

@<SCITEGIC>MOL_PROPERTY
Idih
SciTegic.value.DoubleValue
0.000

@<SCITEGIC>MOL_PROPERTY
Tether
SciTegic.value.DoubleValue
0.000

@<TRIPOS>MOLECULE
guest-s10_confgen4.mol2 : confsearch ligand conformer 642
          20          19           1
SMALL
USER_CHARGES
 
@<TRIPOS>ATOM
       1    N1      21.637588   20.360518   23.003658 N.4        1 MOL1        -0.5937
       2    H1      21.349942   20.934611   23.800862 H          1 MOL1         0.3684
       3    H2      21.518817   20.926634   22.159779 H          1 MOL1         0.3684
       4    H3      22.639204   20.177789   23.108804 H          1 MOL1         0.3684
       5    C1      20.849518   19.081651   22.926751 C.3        1 MOL1         0.1270
       6    H4      21.038932   18.546306   23.862376 H          1 MOL1         0.0960
       7    C2      21.353488   18.213375   21.759313 C.3        1 MOL1        -0.2382
       8    H5      22.439218   18.071238   21.824194 H          1 MOL1         0.1009
       9    H6      21.129054   18.679481   20.791866 H          1 MOL1         0.1009
      10    H7      20.895889   17.217605   21.775708 H          1 MOL1         0.1009
      11    C3      19.332239   19.364574   22.830282 C.3        1 MOL1        -0.1392
      12    H8      19.059679   20.072287   23.624332 H          1 MOL1         0.0998
      13    H9      19.109141   19.864818   21.878530 H          1 MOL1         0.0998
      14    C4      18.449875   18.100553   22.974666 C.3        1 MOL1        -0.1302
      15    H10     18.717124   17.565262   23.896681 H          1 MOL1         0.0998
      16    H11     18.633519   17.410142   22.140694 H          1 MOL1         0.0998
      17    C5      16.947544   18.455077   23.006238 C.3        1 MOL1        -0.2317
      18    H12     16.713433   19.111673   23.854361 H          1 MOL1         0.1009
      19    H13     16.337150   17.548034   23.105132 H          1 MOL1         0.1009
      20    H14     16.643105   18.966613   22.083792 H          1 MOL1         0.1009
@<TRIPOS>BOND
    1     1     2    1
    2     1     3    1
    3     1     4    1
    4     1     5    1
    5     5     6    1
    6     5     7    1
    7     7     8    1
    8     7     9    1
    9     7    10    1
   10     5    11    1
   11    11    12    1
   12    11    13    1
   13    11    14    1
   14    14    15    1
   15    14    16    1
   16    14    17    1
   17    17    18    1
   18    17    19    1
   19    17    20    1
@<TRIPOS>SUBSTRUCTURE
       1 MOL1            1 RESIDUE      1      MOL     
@<SCITEGIC>MOL_PROPERTY
VConf Rank
SciTegic.value.IntegerValue
642

@<SCITEGIC>MOL_PROPERTY
Conf_Id
SciTegic.value.IntegerValue
80

@<SCITEGIC>MOL_PROPERTY
Delta U+W
SciTegic.value.DoubleValue
0.460

@<SCITEGIC>MOL_PROPERTY
U+W
SciTegic.value.DoubleValue
-35.817

@<SCITEGIC>MOL_PROPERTY
Grad RMS
SciTegic.value.DoubleValue
0.000000

@<SCITEGIC>MOL_PROPERTY
U
SciTegic.value.DoubleValue
22.495

@<SCITEGIC>MOL_PROPERTY
W
SciTegic.value.DoubleValue
-58.311

@<SCITEGIC>MOL_PROPERTY
W(PB)
SciTegic.value.DoubleValue
-60.259

@<SCITEGIC>MOL_PROPERTY
W(SA)
SciTegic.value.DoubleValue
1.948

@<SCITEGIC>MOL_PROPERTY
Valence
SciTegic.value.DoubleValue
2.419

@<SCITEGIC>MOL_PROPERTY
Coulomb
SciTegic.value.DoubleValue
19.304

@<SCITEGIC>MOL_PROPERTY
VdW
SciTegic.value.DoubleValue
0.772

@<SCITEGIC>MOL_PROPERTY
VdW6
SciTegic.value.DoubleValue
-4.635

@<SCITEGIC>MOL_PROPERTY
VdW12
SciTegic.value.DoubleValue
5.407

@<SCITEGIC>MOL_PROPERTY
Bond
SciTegic.value.DoubleValue
0.149

@<SCITEGIC>MOL_PROPERTY
Angle
SciTegic.value.DoubleValue
1.142

@<SCITEGIC>MOL_PROPERTY
Pdih
SciTegic.value.DoubleValue
1.129

@<SCITEGIC>MOL_PROPERTY
Idih
SciTegic.value.DoubleValue
0.000

@<SCITEGIC>MOL_PROPERTY
Tether
SciTegic.value.DoubleValue
0.000

@<TRIPOS>MOLECULE
guest-s10_confgen4.mol2 : confsearch ligand conformer 643
          20          19           1
SMALL
USER_CHARGES
 
@<TRIPOS>ATOM
       1    N1      18.304578   17.384130   23.917149 N.4        1 MOL1        -0.5937
       2    H1      17.973104   16.630288   23.309154 H          1 MOL1         0.3684
       3    H2      17.540865   18.057955   24.014064 H          1 MOL1         0.3684
       4    H3      18.469603   16.976499   24.841389 H          1 MOL1         0.3684
       5    C1      19.547253   18.032782   23.371476 C.3        1 MOL1         0.1270
       6    H4      20.302766   17.243372   23.309576 H          1 MOL1         0.0960
       7    C2      20.058188   19.107992   24.345707 C.3        1 MOL1        -0.2382
       8    H5      20.132229   18.705194   25.363260 H          1 MOL1         0.1009
       9    H6      19.386274   19.974815   24.370240 H          1 MOL1         0.1009
      10    H7      21.059932   19.450348   24.062319 H          1 MOL1         0.1009
      11    C3      19.306932   18.580368   21.943284 C.3        1 MOL1        -0.1392
      12    H8      18.911654   17.755049   21.336409 H          1 MOL1         0.0998
      13    H9      18.518341   19.344337   21.957553 H          1 MOL1         0.0998
      14    C4      20.571424   19.127456   21.229563 C.3        1 MOL1        -0.1302
      15    H10     20.510936   18.869164   20.162912 H          1 MOL1         0.0998
      16    H11     21.472225   18.625543   21.609835 H          1 MOL1         0.0998
      17    C5      20.723340   20.663040   21.338831 C.3        1 MOL1        -0.2317
      18    H12     19.860940   21.174927   20.892340 H          1 MOL1         0.1009
      19    H13     21.621682   20.998983   20.804876 H          1 MOL1         0.1009
      20    H14     20.811570   20.996818   22.378711 H          1 MOL1         0.1009
@<TRIPOS>BOND
    1     1     2    1
    2     1     3    1
    3     1     4    1
    4     1     5    1
    5     5     6    1
    6     5     7    1
    7     7     8    1
    8     7     9    1
    9     7    10    1
   10     5    11    1
   11    11    12    1
   12    11    13    1
   13    11    14    1
   14    14    15    1
   15    14    16    1
   16    14    17    1
   17    17    18    1
   18    17    19    1
   19    17    20    1
@<TRIPOS>SUBSTRUCTURE
       1 MOL1            1 RESIDUE      1      MOL     
@<SCITEGIC>MOL_PROPERTY
VConf Rank
SciTegic.value.IntegerValue
643

@<SCITEGIC>MOL_PROPERTY
Conf_Id
SciTegic.value.IntegerValue
52

@<SCITEGIC>MOL_PROPERTY
Delta U+W
SciTegic.value.DoubleValue
2.995

@<SCITEGIC>MOL_PROPERTY
U+W
SciTegic.value.DoubleValue
-33.282

@<SCITEGIC>MOL_PROPERTY
Grad RMS
SciTegic.value.DoubleValue
0.000000

@<SCITEGIC>MOL_PROPERTY
U
SciTegic.value.DoubleValue
25.224

@<SCITEGIC>MOL_PROPERTY
W
SciTegic.value.DoubleValue
-58.506

@<SCITEGIC>MOL_PROPERTY
W(PB)
SciTegic.value.DoubleValue
-60.411

@<SCITEGIC>MOL_PROPERTY
W(SA)
SciTegic.value.DoubleValue
1.905

@<SCITEGIC>MOL_PROPERTY
Valence
SciTegic.value.DoubleValue
4.945

@<SCITEGIC>MOL_PROPERTY
Coulomb
SciTegic.value.DoubleValue
19.467

@<SCITEGIC>MOL_PROPERTY
VdW
SciTegic.value.DoubleValue
0.813

@<SCITEGIC>MOL_PROPERTY
VdW6
SciTegic.value.DoubleValue
-5.458

@<SCITEGIC>MOL_PROPERTY
VdW12
SciTegic.value.DoubleValue
6.270

@<SCITEGIC>MOL_PROPERTY
Bond
SciTegic.value.DoubleValue
0.200

@<SCITEGIC>MOL_PROPERTY
Angle
SciTegic.value.DoubleValue
1.675

@<SCITEGIC>MOL_PROPERTY
Pdih
SciTegic.value.DoubleValue
3.070

@<SCITEGIC>MOL_PROPERTY
Idih
SciTegic.value.DoubleValue
0.000

@<SCITEGIC>MOL_PROPERTY
Tether
SciTegic.value.DoubleValue
0.000

@<TRIPOS>MOLECULE
guest-s10_confgen4.mol2 : confsearch ligand conformer 644
          20          19           1
SMALL
USER_CHARGES
 
@<TRIPOS>ATOM
       1    N1      18.863003   17.976637   21.866687 N.4        1 MOL1        -0.5937
       2    H1      17.928270   18.391424   21.842126 H          1 MOL1         0.3684
       3    H2      18.760492   16.978803   21.663055 H          1 MOL1         0.3684
       4    H3      19.402749   18.393556   21.105216 H          1 MOL1         0.3684
       5    C1      19.529077   18.203737   23.196357 C.3        1 MOL1         0.1270
       6    H4      20.496761   17.693607   23.163324 H          1 MOL1         0.0960
       7    C2      18.688221   17.567646   24.316227 C.3        1 MOL1        -0.2382
       8    H5      17.709054   18.055004   24.403258 H          1 MOL1         0.1009
       9    H6      19.198593   17.650609   25.283844 H          1 MOL1         0.1009
      10    H7      18.523064   16.501020   24.120349 H          1 MOL1         0.1009
      11    C3      19.779110   19.701459   23.493923 C.3        1 MOL1        -0.1392
      12    H8      18.870866   20.281639   23.284020 H          1 MOL1         0.0998
      13    H9      19.967056   19.817896   24.569657 H          1 MOL1         0.0998
      14    C4      20.991634   20.318908   22.748841 C.3        1 MOL1        -0.1302
      15    H10     21.904490   19.761320   23.001477 H          1 MOL1         0.0998
      16    H11     21.144801   21.338183   23.130476 H          1 MOL1         0.0998
      17    C5      20.840832   20.392490   21.212270 C.3        1 MOL1        -0.2317
      18    H12     21.636151   21.015809   20.783052 H          1 MOL1         0.1009
      19    H13     19.879116   20.837973   20.925977 H          1 MOL1         0.1009
      20    H14     20.927052   19.402551   20.749639 H          1 MOL1         0.1009
@<TRIPOS>BOND
    1     1     2    1
    2     1     3    1
    3     1     4    1
    4     1     5    1
    5     5     6    1
    6     5     7    1
    7     7     8    1
    8     7     9    1
    9     7    10    1
   10     5    11    1
   11    11    12    1
   12    11    13    1
   13    11    14    1
   14    14    15    1
   15    14    16    1
   16    14    17    1
   17    17    18    1
   18    17    19    1
   19    17    20    1
@<TRIPOS>SUBSTRUCTURE
       1 MOL1            1 RESIDUE      1      MOL     
@<SCITEGIC>MOL_PROPERTY
VConf Rank
SciTegic.value.IntegerValue
644

@<SCITEGIC>MOL_PROPERTY
Conf_Id
SciTegic.value.IntegerValue
54

@<SCITEGIC>MOL_PROPERTY
Delta U+W
SciTegic.value.DoubleValue
2.752

@<SCITEGIC>MOL_PROPERTY
U+W
SciTegic.value.DoubleValue
-33.525

@<SCITEGIC>MOL_PROPERTY
Grad RMS
SciTegic.value.DoubleValue
0.000000

@<SCITEGIC>MOL_PROPERTY
U
SciTegic.value.DoubleValue
24.337

@<SCITEGIC>MOL_PROPERTY
W
SciTegic.value.DoubleValue
-57.862

@<SCITEGIC>MOL_PROPERTY
W(PB)
SciTegic.value.DoubleValue
-59.764

@<SCITEGIC>MOL_PROPERTY
W(SA)
SciTegic.value.DoubleValue
1.901

@<SCITEGIC>MOL_PROPERTY
Valence
SciTegic.value.DoubleValue
3.593

@<SCITEGIC>MOL_PROPERTY
Coulomb
SciTegic.value.DoubleValue
20.067

@<SCITEGIC>MOL_PROPERTY
VdW
SciTegic.value.DoubleValue
0.677

@<SCITEGIC>MOL_PROPERTY
VdW6
SciTegic.value.DoubleValue
-5.466

@<SCITEGIC>MOL_PROPERTY
VdW12
SciTegic.value.DoubleValue
6.144

@<SCITEGIC>MOL_PROPERTY
Bond
SciTegic.value.DoubleValue
0.191

@<SCITEGIC>MOL_PROPERTY
Angle
SciTegic.value.DoubleValue
1.557

@<SCITEGIC>MOL_PROPERTY
Pdih
SciTegic.value.DoubleValue
1.845

@<SCITEGIC>MOL_PROPERTY
Idih
SciTegic.value.DoubleValue
0.000

@<SCITEGIC>MOL_PROPERTY
Tether
SciTegic.value.DoubleValue
0.000

@<TRIPOS>MOLECULE
guest-s10_confgen4.mol2 : confsearch ligand conformer 645
          20          19           1
SMALL
USER_CHARGES
 
@<TRIPOS>ATOM
       1    N1      20.967796   18.660765   24.344461 N.4        1 MOL1        -0.5937
       2    H1      21.856636   18.922665   24.779232 H          1 MOL1         0.3684
       3    H2      20.753860   17.705208   24.642547 H          1 MOL1         0.3684
       4    H3      20.246227   19.272570   24.732381 H          1 MOL1         0.3684
       5    C1      21.034556   18.770746   22.845350 C.3        1 MOL1         0.1270
       6    H4      21.838818   18.099490   22.528175 H          1 MOL1         0.0960
       7    C2      21.422265   20.195829   22.412149 C.3        1 MOL1        -0.2382
       8    H5      21.468122   20.272323   21.318752 H          1 MOL1         0.1009
       9    H6      22.411611   20.460226   22.805054 H          1 MOL1         0.1009
      10    H7      20.706655   20.940879   22.779360 H          1 MOL1         0.1009
      11    C3      19.735882   18.286401   22.156939 C.3        1 MOL1        -0.1392
      12    H8      19.884072   18.307674   21.069132 H          1 MOL1         0.0998
      13    H9      19.577047   17.231978   22.418414 H          1 MOL1         0.0998
      14    C4      18.463407   19.096523   22.515900 C.3        1 MOL1        -0.1302
      15    H10     18.583003   20.145641   22.214137 H          1 MOL1         0.0998
      16    H11     18.305677   19.093221   23.602763 H          1 MOL1         0.0998
      17    C5      17.210124   18.518384   21.824261 C.3        1 MOL1        -0.2317
      18    H12     16.318498   19.102903   22.085812 H          1 MOL1         0.1009
      19    H13     17.032883   17.479356   22.131224 H          1 MOL1         0.1009
      20    H14     17.316936   18.538520   20.731828 H          1 MOL1         0.1009
@<TRIPOS>BOND
    1     1     2    1
    2     1     3    1
    3     1     4    1
    4     1     5    1
    5     5     6    1
    6     5     7    1
    7     7     8    1
    8     7     9    1
    9     7    10    1
   10     5    11    1
   11    11    12    1
   12    11    13    1
   13    11    14    1
   14    14    15    1
   15    14    16    1
   16    14    17    1
   17    17    18    1
   18    17    19    1
   19    17    20    1
@<TRIPOS>SUBSTRUCTURE
       1 MOL1            1 RESIDUE      1      MOL     
@<SCITEGIC>MOL_PROPERTY
VConf Rank
SciTegic.value.IntegerValue
645

@<SCITEGIC>MOL_PROPERTY
Conf_Id
SciTegic.value.IntegerValue
63

@<SCITEGIC>MOL_PROPERTY
Delta U+W
SciTegic.value.DoubleValue
0.420

@<SCITEGIC>MOL_PROPERTY
U+W
SciTegic.value.DoubleValue
-35.856

@<SCITEGIC>MOL_PROPERTY
Grad RMS
SciTegic.value.DoubleValue
0.000000

@<SCITEGIC>MOL_PROPERTY
U
SciTegic.value.DoubleValue
22.625

@<SCITEGIC>MOL_PROPERTY
W
SciTegic.value.DoubleValue
-58.481

@<SCITEGIC>MOL_PROPERTY
W(PB)
SciTegic.value.DoubleValue
-60.400

@<SCITEGIC>MOL_PROPERTY
W(SA)
SciTegic.value.DoubleValue
1.919

@<SCITEGIC>MOL_PROPERTY
Valence
SciTegic.value.DoubleValue
2.404

@<SCITEGIC>MOL_PROPERTY
Coulomb
SciTegic.value.DoubleValue
19.464

@<SCITEGIC>MOL_PROPERTY
VdW
SciTegic.value.DoubleValue
0.757

@<SCITEGIC>MOL_PROPERTY
VdW6
SciTegic.value.DoubleValue
-5.074

@<SCITEGIC>MOL_PROPERTY
VdW12
SciTegic.value.DoubleValue
5.830

@<SCITEGIC>MOL_PROPERTY
Bond
SciTegic.value.DoubleValue
0.172

@<SCITEGIC>MOL_PROPERTY
Angle
SciTegic.value.DoubleValue
1.207

@<SCITEGIC>MOL_PROPERTY
Pdih
SciTegic.value.DoubleValue
1.025

@<SCITEGIC>MOL_PROPERTY
Idih
SciTegic.value.DoubleValue
0.000

@<SCITEGIC>MOL_PROPERTY
Tether
SciTegic.value.DoubleValue
0.000

@<TRIPOS>MOLECULE
guest-s10_confgen4.mol2 : confsearch ligand conformer 646
          20          19           1
SMALL
USER_CHARGES
 
@<TRIPOS>ATOM
       1    N1      19.063846   19.859057   21.353522 N.4        1 MOL1        -0.5937
       2    H1      18.488396   19.026661   21.202365 H          1 MOL1         0.3684
       3    H2      19.767330   19.886142   20.611364 H          1 MOL1         0.3684
       4    H3      18.458688   20.675396   21.231392 H          1 MOL1         0.3684
       5    C1      19.700974   19.843166   22.716605 C.3        1 MOL1         0.1270
       6    H4      18.885028   19.817387   23.445094 H          1 MOL1         0.0960
       7    C2      20.511783   21.127938   22.952107 C.3        1 MOL1        -0.2382
       8    H5      19.876912   22.014786   22.835157 H          1 MOL1         0.1009
       9    H6      21.344812   21.208106   22.242608 H          1 MOL1         0.1009
      10    H7      20.925415   21.147011   23.968063 H          1 MOL1         0.1009
      11    C3      20.589089   18.597948   22.939461 C.3        1 MOL1        -0.1392
      12    H8      21.424649   18.614233   22.227136 H          1 MOL1         0.0998
      13    H9      21.038251   18.653990   23.939982 H          1 MOL1         0.0998
      14    C4      19.836798   17.249417   22.807485 C.3        1 MOL1        -0.1302
      15    H10     20.549381   16.430136   22.977503 H          1 MOL1         0.0998
      16    H11     19.467093   17.119282   21.781352 H          1 MOL1         0.0998
      17    C5      18.665054   17.109036   23.805823 C.3        1 MOL1        -0.2317
      18    H12     19.010742   17.235418   24.840089 H          1 MOL1         0.1009
      19    H13     18.208343   16.114058   23.725186 H          1 MOL1         0.1009
      20    H14     17.878772   17.849967   23.614305 H          1 MOL1         0.1009
@<TRIPOS>BOND
    1     1     2    1
    2     1     3    1
    3     1     4    1
    4     1     5    1
    5     5     6    1
    6     5     7    1
    7     7     8    1
    8     7     9    1
    9     7    10    1
   10     5    11    1
   11    11    12    1
   12    11    13    1
   13    11    14    1
   14    14    15    1
   15    14    16    1
   16    14    17    1
   17    17    18    1
   18    17    19    1
   19    17    20    1
@<TRIPOS>SUBSTRUCTURE
       1 MOL1            1 RESIDUE      1      MOL     
@<SCITEGIC>MOL_PROPERTY
VConf Rank
SciTegic.value.IntegerValue
646

@<SCITEGIC>MOL_PROPERTY
Conf_Id
SciTegic.value.IntegerValue
50

@<SCITEGIC>MOL_PROPERTY
Delta U+W
SciTegic.value.DoubleValue
0.466

@<SCITEGIC>MOL_PROPERTY
U+W
SciTegic.value.DoubleValue
-35.811

@<SCITEGIC>MOL_PROPERTY
Grad RMS
SciTegic.value.DoubleValue
0.000000

@<SCITEGIC>MOL_PROPERTY
U
SciTegic.value.DoubleValue
22.369

@<SCITEGIC>MOL_PROPERTY
W
SciTegic.value.DoubleValue
-58.180

@<SCITEGIC>MOL_PROPERTY
W(PB)
SciTegic.value.DoubleValue
-60.103

@<SCITEGIC>MOL_PROPERTY
W(SA)
SciTegic.value.DoubleValue
1.923

@<SCITEGIC>MOL_PROPERTY
Valence
SciTegic.value.DoubleValue
2.168

@<SCITEGIC>MOL_PROPERTY
Coulomb
SciTegic.value.DoubleValue
19.636

@<SCITEGIC>MOL_PROPERTY
VdW
SciTegic.value.DoubleValue
0.566

@<SCITEGIC>MOL_PROPERTY
VdW6
SciTegic.value.DoubleValue
-5.263

@<SCITEGIC>MOL_PROPERTY
VdW12
SciTegic.value.DoubleValue
5.829

@<SCITEGIC>MOL_PROPERTY
Bond
SciTegic.value.DoubleValue
0.162

@<SCITEGIC>MOL_PROPERTY
Angle
SciTegic.value.DoubleValue
1.066

@<SCITEGIC>MOL_PROPERTY
Pdih
SciTegic.value.DoubleValue
0.939

@<SCITEGIC>MOL_PROPERTY
Idih
SciTegic.value.DoubleValue
0.000

@<SCITEGIC>MOL_PROPERTY
Tether
SciTegic.value.DoubleValue
0.000

@<TRIPOS>MOLECULE
guest-s10_confgen4.mol2 : confsearch ligand conformer 647
          20          19           1
SMALL
USER_CHARGES
 
@<TRIPOS>ATOM
       1    N1      21.502170   19.651018   21.538916 N.4        1 MOL1        -0.5937
       2    H1      21.307476   19.355357   20.578356 H          1 MOL1         0.3684
       3    H2      22.317713   19.124932   21.862944 H          1 MOL1         0.3684
       4    H3      21.771543   20.637859   21.502596 H          1 MOL1         0.3684
       5    C1      20.313821   19.437257   22.437089 C.3        1 MOL1         0.1270
       6    H4      19.499311   20.031424   22.011294 H          1 MOL1         0.0960
       7    C2      20.621287   19.962994   23.851666 C.3        1 MOL1        -0.2382
       8    H5      21.466091   19.424238   24.298561 H          1 MOL1         0.1009
       9    H6      19.760137   19.850829   24.519220 H          1 MOL1         0.1009
      10    H7      20.878026   21.028931   23.820199 H          1 MOL1         0.1009
      11    C3      19.866883   17.954733   22.461615 C.3        1 MOL1        -0.1392
      12    H8      20.305214   17.432924   21.600654 H          1 MOL1         0.0998
      13    H9      20.267702   17.447848   23.349548 H          1 MOL1         0.0998
      14    C4      18.331178   17.760968   22.385144 C.3        1 MOL1        -0.1302
      15    H10     18.115760   16.684665   22.329482 H          1 MOL1         0.0998
      16    H11     17.952097   18.196565   21.449926 H          1 MOL1         0.0998
      17    C5      17.557953   18.361130   23.580202 C.3        1 MOL1        -0.2317
      18    H12     17.942434   17.977332   24.534090 H          1 MOL1         0.1009
      19    H13     16.493753   18.098934   23.518777 H          1 MOL1         0.1009
      20    H14     17.625129   19.456108   23.592053 H          1 MOL1         0.1009
@<TRIPOS>BOND
    1     1     2    1
    2     1     3    1
    3     1     4    1
    4     1     5    1
    5     5     6    1
    6     5     7    1
    7     7     8    1
    8     7     9    1
    9     7    10    1
   10     5    11    1
   11    11    12    1
   12    11    13    1
   13    11    14    1
   14    14    15    1
   15    14    16    1
   16    14    17    1
   17    17    18    1
   18    17    19    1
   19    17    20    1
@<TRIPOS>SUBSTRUCTURE
       1 MOL1            1 RESIDUE      1      MOL     
@<SCITEGIC>MOL_PROPERTY
VConf Rank
SciTegic.value.IntegerValue
647

@<SCITEGIC>MOL_PROPERTY
Conf_Id
SciTegic.value.IntegerValue
3

@<SCITEGIC>MOL_PROPERTY
Delta U+W
SciTegic.value.DoubleValue
3.093

@<SCITEGIC>MOL_PROPERTY
U+W
SciTegic.value.DoubleValue
-33.184

@<SCITEGIC>MOL_PROPERTY
Grad RMS
SciTegic.value.DoubleValue
0.000000

@<SCITEGIC>MOL_PROPERTY
U
SciTegic.value.DoubleValue
25.256

@<SCITEGIC>MOL_PROPERTY
W
SciTegic.value.DoubleValue
-58.439

@<SCITEGIC>MOL_PROPERTY
W(PB)
SciTegic.value.DoubleValue
-60.337

@<SCITEGIC>MOL_PROPERTY
W(SA)
SciTegic.value.DoubleValue
1.898

@<SCITEGIC>MOL_PROPERTY
Valence
SciTegic.value.DoubleValue
4.963

@<SCITEGIC>MOL_PROPERTY
Coulomb
SciTegic.value.DoubleValue
19.511

@<SCITEGIC>MOL_PROPERTY
VdW
SciTegic.value.DoubleValue
0.782

@<SCITEGIC>MOL_PROPERTY
VdW6
SciTegic.value.DoubleValue
-5.429

@<SCITEGIC>MOL_PROPERTY
VdW12
SciTegic.value.DoubleValue
6.211

@<SCITEGIC>MOL_PROPERTY
Bond
SciTegic.value.DoubleValue
0.174

@<SCITEGIC>MOL_PROPERTY
Angle
SciTegic.value.DoubleValue
1.377

@<SCITEGIC>MOL_PROPERTY
Pdih
SciTegic.value.DoubleValue
3.412

@<SCITEGIC>MOL_PROPERTY
Idih
SciTegic.value.DoubleValue
0.000

@<SCITEGIC>MOL_PROPERTY
Tether
SciTegic.value.DoubleValue
0.000

@<TRIPOS>MOLECULE
guest-s10_confgen4.mol2 : confsearch ligand conformer 648
          20          19           1
SMALL
USER_CHARGES
 
@<TRIPOS>ATOM
       1    N1      21.894453   18.962339   23.294444 N.4        1 MOL1        -0.5937
       2    H1      22.626140   19.213803   22.624341 H          1 MOL1         0.3684
       3    H2      22.076487   18.000624   23.594105 H          1 MOL1         0.3684
       4    H3      22.011355   19.565418   24.112560 H          1 MOL1         0.3684
       5    C1      20.523383   19.106574   22.692992 C.3        1 MOL1         0.1270
       6    H4      20.494472   18.433481   21.830897 H          1 MOL1         0.0960
       7    C2      20.306719   20.546441   22.193052 C.3        1 MOL1        -0.2382
       8    H5      19.371266   20.634889   21.628569 H          1 MOL1         0.1009
       9    H6      21.120092   20.849485   21.522439 H          1 MOL1         0.1009
      10    H7      20.272492   21.256130   23.028911 H          1 MOL1         0.1009
      11    C3      19.425230   18.666347   23.690332 C.3        1 MOL1        -0.1392
      12    H8      19.676536   17.667737   24.071317 H          1 MOL1         0.0998
      13    H9      19.435488   19.335599   24.560811 H          1 MOL1         0.0998
      14    C4      17.990306   18.618137   23.105719 C.3        1 MOL1        -0.1302
      15    H10     17.653996   19.628263   22.835877 H          1 MOL1         0.0998
      16    H11     17.302322   18.272622   23.890025 H          1 MOL1         0.0998
      17    C5      17.865638   17.681651   21.882362 C.3        1 MOL1        -0.2317
      18    H12     18.199356   16.664963   22.127589 H          1 MOL1         0.1009
      19    H13     18.461315   18.043738   21.034939 H          1 MOL1         0.1009
      20    H14     16.821260   17.620222   21.549919 H          1 MOL1         0.1009
@<TRIPOS>BOND
    1     1     2    1
    2     1     3    1
    3     1     4    1
    4     1     5    1
    5     5     6    1
    6     5     7    1
    7     7     8    1
    8     7     9    1
    9     7    10    1
   10     5    11    1
   11    11    12    1
   12    11    13    1
   13    11    14    1
   14    14    15    1
   15    14    16    1
   16    14    17    1
   17    17    18    1
   18    17    19    1
   19    17    20    1
@<TRIPOS>SUBSTRUCTURE
       1 MOL1            1 RESIDUE      1      MOL     
@<SCITEGIC>MOL_PROPERTY
VConf Rank
SciTegic.value.IntegerValue
648

@<SCITEGIC>MOL_PROPERTY
Conf_Id
SciTegic.value.IntegerValue
64

@<SCITEGIC>MOL_PROPERTY
Delta U+W
SciTegic.value.DoubleValue
0.544

@<SCITEGIC>MOL_PROPERTY
U+W
SciTegic.value.DoubleValue
-35.732

@<SCITEGIC>MOL_PROPERTY
Grad RMS
SciTegic.value.DoubleValue
0.000000

@<SCITEGIC>MOL_PROPERTY
U
SciTegic.value.DoubleValue
22.800

@<SCITEGIC>MOL_PROPERTY
W
SciTegic.value.DoubleValue
-58.532

@<SCITEGIC>MOL_PROPERTY
W(PB)
SciTegic.value.DoubleValue
-60.437

@<SCITEGIC>MOL_PROPERTY
W(SA)
SciTegic.value.DoubleValue
1.905

@<SCITEGIC>MOL_PROPERTY
Valence
SciTegic.value.DoubleValue
2.662

@<SCITEGIC>MOL_PROPERTY
Coulomb
SciTegic.value.DoubleValue
19.485

@<SCITEGIC>MOL_PROPERTY
VdW
SciTegic.value.DoubleValue
0.653

@<SCITEGIC>MOL_PROPERTY
VdW6
SciTegic.value.DoubleValue
-5.460

@<SCITEGIC>MOL_PROPERTY
VdW12
SciTegic.value.DoubleValue
6.113

@<SCITEGIC>MOL_PROPERTY
Bond
SciTegic.value.DoubleValue
0.174

@<SCITEGIC>MOL_PROPERTY
Angle
SciTegic.value.DoubleValue
1.378

@<SCITEGIC>MOL_PROPERTY
Pdih
SciTegic.value.DoubleValue
1.109

@<SCITEGIC>MOL_PROPERTY
Idih
SciTegic.value.DoubleValue
0.000

@<SCITEGIC>MOL_PROPERTY
Tether
SciTegic.value.DoubleValue
0.000

@<TRIPOS>MOLECULE
guest-s10_confgen4.mol2 : confsearch ligand conformer 649
          20          19           1
SMALL
USER_CHARGES
 
@<TRIPOS>ATOM
       1    N1      20.167170   17.941829   24.531322 N.4        1 MOL1        -0.5937
       2    H1      19.155339   18.081685   24.575034 H          1 MOL1         0.3684
       3    H2      20.556281   18.242175   25.429096 H          1 MOL1         0.3684
       4    H3      20.334979   16.935462   24.449312 H          1 MOL1         0.3684
       5    C1      20.779285   18.700519   23.384790 C.3        1 MOL1         0.1270
       6    H4      21.853690   18.496833   23.430926 H          1 MOL1         0.0960
       7    C2      20.590939   20.215434   23.567231 C.3        1 MOL1        -0.2382
       8    H5      19.531556   20.479298   23.666187 H          1 MOL1         0.1009
       9    H6      21.010801   20.766852   22.716942 H          1 MOL1         0.1009
      10    H7      21.105562   20.558775   24.472908 H          1 MOL1         0.1009
      11    C3      20.281938   18.191167   22.008510 C.3        1 MOL1        -0.1392
      12    H8      20.881707   18.650461   21.211752 H          1 MOL1         0.0998
      13    H9      20.506578   17.117758   21.955486 H          1 MOL1         0.0998
      14    C4      18.769614   18.387226   21.709075 C.3        1 MOL1        -0.1302
      15    H10     18.178378   18.344301   22.633183 H          1 MOL1         0.0998
      16    H11     18.426231   17.542824   21.095026 H          1 MOL1         0.0998
      17    C5      18.456294   19.690270   20.936642 C.3        1 MOL1        -0.2317
      18    H12     18.730568   20.584927   21.506150 H          1 MOL1         0.1009
      19    H13     17.383145   19.755840   20.715242 H          1 MOL1         0.1009
      20    H14     18.994560   19.719310   19.980363 H          1 MOL1         0.1009
@<TRIPOS>BOND
    1     1     2    1
    2     1     3    1
    3     1     4    1
    4     1     5    1
    5     5     6    1
    6     5     7    1
    7     7     8    1
    8     7     9    1
    9     7    10    1
   10     5    11    1
   11    11    12    1
   12    11    13    1
   13    11    14    1
   14    14    15    1
   15    14    16    1
   16    14    17    1
   17    17    18    1
   18    17    19    1
   19    17    20    1
@<TRIPOS>SUBSTRUCTURE
       1 MOL1            1 RESIDUE      1      MOL     
@<SCITEGIC>MOL_PROPERTY
VConf Rank
SciTegic.value.IntegerValue
649

@<SCITEGIC>MOL_PROPERTY
Conf_Id
SciTegic.value.IntegerValue
35

@<SCITEGIC>MOL_PROPERTY
Delta U+W
SciTegic.value.DoubleValue
3.004

@<SCITEGIC>MOL_PROPERTY
U+W
SciTegic.value.DoubleValue
-33.272

@<SCITEGIC>MOL_PROPERTY
Grad RMS
SciTegic.value.DoubleValue
0.000000

@<SCITEGIC>MOL_PROPERTY
U
SciTegic.value.DoubleValue
25.367

@<SCITEGIC>MOL_PROPERTY
W
SciTegic.value.DoubleValue
-58.639

@<SCITEGIC>MOL_PROPERTY
W(PB)
SciTegic.value.DoubleValue
-60.512

@<SCITEGIC>MOL_PROPERTY
W(SA)
SciTegic.value.DoubleValue
1.873

@<SCITEGIC>MOL_PROPERTY
Valence
SciTegic.value.DoubleValue
4.943

@<SCITEGIC>MOL_PROPERTY
Coulomb
SciTegic.value.DoubleValue
19.661

@<SCITEGIC>MOL_PROPERTY
VdW
SciTegic.value.DoubleValue
0.764

@<SCITEGIC>MOL_PROPERTY
VdW6
SciTegic.value.DoubleValue
-5.871

@<SCITEGIC>MOL_PROPERTY
VdW12
SciTegic.value.DoubleValue
6.636

@<SCITEGIC>MOL_PROPERTY
Bond
SciTegic.value.DoubleValue
0.230

@<SCITEGIC>MOL_PROPERTY
Angle
SciTegic.value.DoubleValue
1.857

@<SCITEGIC>MOL_PROPERTY
Pdih
SciTegic.value.DoubleValue
2.855

@<SCITEGIC>MOL_PROPERTY
Idih
SciTegic.value.DoubleValue
0.000

@<SCITEGIC>MOL_PROPERTY
Tether
SciTegic.value.DoubleValue
0.000

@<TRIPOS>MOLECULE
guest-s10_confgen4.mol2 : confsearch ligand conformer 650
          20          19           1
SMALL
USER_CHARGES
 
@<TRIPOS>ATOM
       1    N1      19.766914   17.949922   24.159537 N.4        1 MOL1        -0.5937
       2    H1      20.161852   17.063399   24.484656 H          1 MOL1         0.3684
       3    H2      18.978150   18.174751   24.771816 H          1 MOL1         0.3684
       4    H3      20.475554   18.673360   24.295417 H          1 MOL1         0.3684
       5    C1      19.340573   17.869106   22.719341 C.3        1 MOL1         0.1270
       6    H4      18.570660   17.091783   22.688841 H          1 MOL1         0.0960
       7    C2      20.497021   17.404002   21.816668 C.3        1 MOL1        -0.2382
       8    H5      21.351275   18.089541   21.867477 H          1 MOL1         0.1009
       9    H6      20.171353   17.336359   20.771305 H          1 MOL1         0.1009
      10    H7      20.846227   16.409865   22.121159 H          1 MOL1         0.1009
      11    C3      18.679737   19.174716   22.207491 C.3        1 MOL1        -0.1392
      12    H8      18.131016   18.931107   21.288196 H          1 MOL1         0.0998
      13    H9      17.914064   19.491526   22.927625 H          1 MOL1         0.0998
      14    C4      19.618162   20.374356   21.896335 C.3        1 MOL1        -0.1302
      15    H10     19.000956   21.195058   21.504763 H          1 MOL1         0.0998
      16    H11     20.311844   20.114972   21.085067 H          1 MOL1         0.0998
      17    C5      20.413767   20.903381   23.111271 C.3        1 MOL1        -0.2317
      18    H12     19.754091   21.090461   23.968575 H          1 MOL1         0.1009
      19    H13     20.907204   21.850936   22.858625 H          1 MOL1         0.1009
      20    H14     21.200188   20.202943   23.414905 H          1 MOL1         0.1009
@<TRIPOS>BOND
    1     1     2    1
    2     1     3    1
    3     1     4    1
    4     1     5    1
    5     5     6    1
    6     5     7    1
    7     7     8    1
    8     7     9    1
    9     7    10    1
   10     5    11    1
   11    11    12    1
   12    11    13    1
   13    11    14    1
   14    14    15    1
   15    14    16    1
   16    14    17    1
   17    17    18    1
   18    17    19    1
   19    17    20    1
@<TRIPOS>SUBSTRUCTURE
       1 MOL1            1 RESIDUE      1      MOL     
@<SCITEGIC>MOL_PROPERTY
VConf Rank
SciTegic.value.IntegerValue
650

@<SCITEGIC>MOL_PROPERTY
Conf_Id
SciTegic.value.IntegerValue
55

@<SCITEGIC>MOL_PROPERTY
Delta U+W
SciTegic.value.DoubleValue
2.767

@<SCITEGIC>MOL_PROPERTY
U+W
SciTegic.value.DoubleValue
-33.509

@<SCITEGIC>MOL_PROPERTY
Grad RMS
SciTegic.value.DoubleValue
0.000000

@<SCITEGIC>MOL_PROPERTY
U
SciTegic.value.DoubleValue
24.552

@<SCITEGIC>MOL_PROPERTY
W
SciTegic.value.DoubleValue
-58.061

@<SCITEGIC>MOL_PROPERTY
W(PB)
SciTegic.value.DoubleValue
-59.930

@<SCITEGIC>MOL_PROPERTY
W(SA)
SciTegic.value.DoubleValue
1.869

@<SCITEGIC>MOL_PROPERTY
Valence
SciTegic.value.DoubleValue
3.726

@<SCITEGIC>MOL_PROPERTY
Coulomb
SciTegic.value.DoubleValue
20.219

@<SCITEGIC>MOL_PROPERTY
VdW
SciTegic.value.DoubleValue
0.606

@<SCITEGIC>MOL_PROPERTY
VdW6
SciTegic.value.DoubleValue
-6.395

@<SCITEGIC>MOL_PROPERTY
VdW12
SciTegic.value.DoubleValue
7.001

@<SCITEGIC>MOL_PROPERTY
Bond
SciTegic.value.DoubleValue
0.241

@<SCITEGIC>MOL_PROPERTY
Angle
SciTegic.value.DoubleValue
2.098

@<SCITEGIC>MOL_PROPERTY
Pdih
SciTegic.value.DoubleValue
1.387

@<SCITEGIC>MOL_PROPERTY
Idih
SciTegic.value.DoubleValue
0.000

@<SCITEGIC>MOL_PROPERTY
Tether
SciTegic.value.DoubleValue
0.000

@<TRIPOS>MOLECULE
guest-s10_confgen4.mol2 : confsearch ligand conformer 651
          20          19           1
SMALL
USER_CHARGES
 
@<TRIPOS>ATOM
       1    N1      19.647401   20.911050   22.948286 N.4        1 MOL1        -0.5937
       2    H1      18.904791   20.925605   23.651752 H          1 MOL1         0.3684
       3    H2      19.633416   21.816412   22.471023 H          1 MOL1         0.3684
       4    H3      20.539604   20.842981   23.444191 H          1 MOL1         0.3684
       5    C1      19.466235   19.774396   21.978617 C.3        1 MOL1         0.1270
       6    H4      20.298109   19.829850   21.269535 H          1 MOL1         0.0960
       7    C2      18.153911   19.937596   21.194308 C.3        1 MOL1        -0.2382
       8    H5      18.131548   20.901184   20.670607 H          1 MOL1         0.1009
       9    H6      17.283901   19.890791   21.861155 H          1 MOL1         0.1009
      10    H7      18.049145   19.147494   20.440384 H          1 MOL1         0.1009
      11    C3      19.511223   18.392950   22.668350 C.3        1 MOL1        -0.1392
      12    H8      18.698954   18.320157   23.403766 H          1 MOL1         0.0998
      13    H9      19.322715   17.615274   21.916185 H          1 MOL1         0.0998
      14    C4      20.867136   18.103236   23.356161 C.3        1 MOL1        -0.1302
      15    H10     21.053118   18.836035   24.152930 H          1 MOL1         0.0998
      16    H11     21.682733   18.211575   22.627254 H          1 MOL1         0.0998
      17    C5      20.907577   16.683360   23.960828 C.3        1 MOL1        -0.2317
      18    H12     20.121912   16.553385   24.716535 H          1 MOL1         0.1009
      19    H13     21.874645   16.495615   24.445200 H          1 MOL1         0.1009
      20    H14     20.765931   15.918980   23.185656 H          1 MOL1         0.1009
@<TRIPOS>BOND
    1     1     2    1
    2     1     3    1
    3     1     4    1
    4     1     5    1
    5     5     6    1
    6     5     7    1
    7     7     8    1
    8     7     9    1
    9     7    10    1
   10     5    11    1
   11    11    12    1
   12    11    13    1
   13    11    14    1
   14    14    15    1
   15    14    16    1
   16    14    17    1
   17    17    18    1
   18    17    19    1
   19    17    20    1
@<TRIPOS>SUBSTRUCTURE
       1 MOL1            1 RESIDUE      1      MOL     
@<SCITEGIC>MOL_PROPERTY
VConf Rank
SciTegic.value.IntegerValue
651

@<SCITEGIC>MOL_PROPERTY
Conf_Id
SciTegic.value.IntegerValue
74

@<SCITEGIC>MOL_PROPERTY
Delta U+W
SciTegic.value.DoubleValue
0.000

@<SCITEGIC>MOL_PROPERTY
U+W
SciTegic.value.DoubleValue
-36.276

@<SCITEGIC>MOL_PROPERTY
Grad RMS
SciTegic.value.DoubleValue
0.000000

@<SCITEGIC>MOL_PROPERTY
U
SciTegic.value.DoubleValue
22.080

@<SCITEGIC>MOL_PROPERTY
W
SciTegic.value.DoubleValue
-58.356

@<SCITEGIC>MOL_PROPERTY
W(PB)
SciTegic.value.DoubleValue
-60.289

@<SCITEGIC>MOL_PROPERTY
W(SA)
SciTegic.value.DoubleValue
1.932

@<SCITEGIC>MOL_PROPERTY
Valence
SciTegic.value.DoubleValue
1.885

@<SCITEGIC>MOL_PROPERTY
Coulomb
SciTegic.value.DoubleValue
19.559

@<SCITEGIC>MOL_PROPERTY
VdW
SciTegic.value.DoubleValue
0.637

@<SCITEGIC>MOL_PROPERTY
VdW6
SciTegic.value.DoubleValue
-4.482

@<SCITEGIC>MOL_PROPERTY
VdW12
SciTegic.value.DoubleValue
5.119

@<SCITEGIC>MOL_PROPERTY
Bond
SciTegic.value.DoubleValue
0.136

@<SCITEGIC>MOL_PROPERTY
Angle
SciTegic.value.DoubleValue
0.867

@<SCITEGIC>MOL_PROPERTY
Pdih
SciTegic.value.DoubleValue
0.882

@<SCITEGIC>MOL_PROPERTY
Idih
SciTegic.value.DoubleValue
0.000

@<SCITEGIC>MOL_PROPERTY
Tether
SciTegic.value.DoubleValue
0.000

@<TRIPOS>MOLECULE
guest-s10_confgen4.mol2 : confsearch ligand conformer 652
          20          19           1
SMALL
USER_CHARGES
 
@<TRIPOS>ATOM
       1    N1      20.085679   20.907048   21.415091 N.4        1 MOL1        -0.5937
       2    H1      19.854859   20.577834   20.473711 H          1 MOL1         0.3684
       3    H2      21.105649   20.947768   21.483864 H          1 MOL1         0.3684
       4    H3      19.737047   21.866200   21.493590 H          1 MOL1         0.3684
       5    C1      19.495292   20.017957   22.475010 C.3        1 MOL1         0.1270
       6    H4      18.411257   20.038511   22.325644 H          1 MOL1         0.0960
       7    C2      19.803754   20.579198   23.875246 C.3        1 MOL1        -0.2382
       8    H5      19.498015   21.630255   23.946133 H          1 MOL1         0.1009
       9    H6      20.876240   20.521497   24.098909 H          1 MOL1         0.1009
      10    H7      19.260172   20.031561   24.653600 H          1 MOL1         0.1009
      11    C3      19.978048   18.557775   22.312828 C.3        1 MOL1        -0.1392
      12    H8      19.828130   18.256413   21.267664 H          1 MOL1         0.0998
      13    H9      21.058705   18.502652   22.499884 H          1 MOL1         0.0998
      14    C4      19.238465   17.549446   23.225764 C.3        1 MOL1        -0.1302
      15    H10     18.152970   17.648582   23.084549 H          1 MOL1         0.0998
      16    H11     19.443879   17.769562   24.281820 H          1 MOL1         0.0998
      17    C5      19.662166   16.094853   22.928578 C.3        1 MOL1        -0.2317
      18    H12     19.433114   15.819949   21.890695 H          1 MOL1         0.1009
      19    H13     19.131586   15.394376   23.586533 H          1 MOL1         0.1009
      20    H14     20.739429   15.956802   23.088908 H          1 MOL1         0.1009
@<TRIPOS>BOND
    1     1     2    1
    2     1     3    1
    3     1     4    1
    4     1     5    1
    5     5     6    1
    6     5     7    1
    7     7     8    1
    8     7     9    1
    9     7    10    1
   10     5    11    1
   11    11    12    1
   12    11    13    1
   13    11    14    1
   14    14    15    1
   15    14    16    1
   16    14    17    1
   17    17    18    1
   18    17    19    1
   19    17    20    1
@<TRIPOS>SUBSTRUCTURE
       1 MOL1            1 RESIDUE      1      MOL     
@<SCITEGIC>MOL_PROPERTY
VConf Rank
SciTegic.value.IntegerValue
652

@<SCITEGIC>MOL_PROPERTY
Conf_Id
SciTegic.value.IntegerValue
80

@<SCITEGIC>MOL_PROPERTY
Delta U+W
SciTegic.value.DoubleValue
0.460

@<SCITEGIC>MOL_PROPERTY
U+W
SciTegic.value.DoubleValue
-35.817

@<SCITEGIC>MOL_PROPERTY
Grad RMS
SciTegic.value.DoubleValue
0.000000

@<SCITEGIC>MOL_PROPERTY
U
SciTegic.value.DoubleValue
22.495

@<SCITEGIC>MOL_PROPERTY
W
SciTegic.value.DoubleValue
-58.311

@<SCITEGIC>MOL_PROPERTY
W(PB)
SciTegic.value.DoubleValue
-60.259

@<SCITEGIC>MOL_PROPERTY
W(SA)
SciTegic.value.DoubleValue
1.948

@<SCITEGIC>MOL_PROPERTY
Valence
SciTegic.value.DoubleValue
2.419

@<SCITEGIC>MOL_PROPERTY
Coulomb
SciTegic.value.DoubleValue
19.304

@<SCITEGIC>MOL_PROPERTY
VdW
SciTegic.value.DoubleValue
0.772

@<SCITEGIC>MOL_PROPERTY
VdW6
SciTegic.value.DoubleValue
-4.635

@<SCITEGIC>MOL_PROPERTY
VdW12
SciTegic.value.DoubleValue
5.407

@<SCITEGIC>MOL_PROPERTY
Bond
SciTegic.value.DoubleValue
0.149

@<SCITEGIC>MOL_PROPERTY
Angle
SciTegic.value.DoubleValue
1.142

@<SCITEGIC>MOL_PROPERTY
Pdih
SciTegic.value.DoubleValue
1.129

@<SCITEGIC>MOL_PROPERTY
Idih
SciTegic.value.DoubleValue
0.000

@<SCITEGIC>MOL_PROPERTY
Tether
SciTegic.value.DoubleValue
0.000

@<TRIPOS>MOLECULE
guest-s10_confgen4.mol2 : confsearch ligand conformer 653
          20          19           1
SMALL
USER_CHARGES
 
@<TRIPOS>ATOM
       1    N1      18.701025   16.829533   23.386853 N.4        1 MOL1        -0.5937
       2    H1      17.919520   17.002107   24.025037 H          1 MOL1         0.3684
       3    H2      19.490262   16.503003   23.950034 H          1 MOL1         0.3684
       4    H3      18.425447   16.058039   22.773283 H          1 MOL1         0.3684
       5    C1      19.057099   18.060068   22.598344 C.3        1 MOL1         0.1270
       6    H4      18.161953   18.328339   22.028657 H          1 MOL1         0.0960
       7    C2      20.182989   17.744524   21.598814 C.3        1 MOL1        -0.2382
       8    H5      19.940875   16.849888   21.012171 H          1 MOL1         0.1009
       9    H6      21.134929   17.566875   22.114279 H          1 MOL1         0.1009
      10    H7      20.318864   18.567452   20.887945 H          1 MOL1         0.1009
      11    C3      19.400415   19.241984   23.537783 C.3        1 MOL1        -0.1392
      12    H8      18.559112   19.365488   24.232512 H          1 MOL1         0.0998
      13    H9      20.268210   18.990846   24.161954 H          1 MOL1         0.0998
      14    C4      19.627333   20.601424   22.824990 C.3        1 MOL1        -0.1302
      15    H10     19.214756   21.401065   23.456237 H          1 MOL1         0.0998
      16    H11     19.060846   20.638790   21.883894 H          1 MOL1         0.0998
      17    C5      21.119298   20.920060   22.568970 C.3        1 MOL1        -0.2317
      18    H12     21.679105   20.959562   23.512459 H          1 MOL1         0.1009
      19    H13     21.224795   21.896827   22.079296 H          1 MOL1         0.1009
      20    H14     21.597003   20.173186   21.925137 H          1 MOL1         0.1009
@<TRIPOS>BOND
    1     1     2    1
    2     1     3    1
    3     1     4    1
    4     1     5    1
    5     5     6    1
    6     5     7    1
    7     7     8    1
    8     7     9    1
    9     7    10    1
   10     5    11    1
   11    11    12    1
   12    11    13    1
   13    11    14    1
   14    14    15    1
   15    14    16    1
   16    14    17    1
   17    17    18    1
   18    17    19    1
   19    17    20    1
@<TRIPOS>SUBSTRUCTURE
       1 MOL1            1 RESIDUE      1      MOL     
@<SCITEGIC>MOL_PROPERTY
VConf Rank
SciTegic.value.IntegerValue
653

@<SCITEGIC>MOL_PROPERTY
Conf_Id
SciTegic.value.IntegerValue
52

@<SCITEGIC>MOL_PROPERTY
Delta U+W
SciTegic.value.DoubleValue
2.995

@<SCITEGIC>MOL_PROPERTY
U+W
SciTegic.value.DoubleValue
-33.282

@<SCITEGIC>MOL_PROPERTY
Grad RMS
SciTegic.value.DoubleValue
0.000000

@<SCITEGIC>MOL_PROPERTY
U
SciTegic.value.DoubleValue
25.224

@<SCITEGIC>MOL_PROPERTY
W
SciTegic.value.DoubleValue
-58.506

@<SCITEGIC>MOL_PROPERTY
W(PB)
SciTegic.value.DoubleValue
-60.411

@<SCITEGIC>MOL_PROPERTY
W(SA)
SciTegic.value.DoubleValue
1.905

@<SCITEGIC>MOL_PROPERTY
Valence
SciTegic.value.DoubleValue
4.945

@<SCITEGIC>MOL_PROPERTY
Coulomb
SciTegic.value.DoubleValue
19.467

@<SCITEGIC>MOL_PROPERTY
VdW
SciTegic.value.DoubleValue
0.813

@<SCITEGIC>MOL_PROPERTY
VdW6
SciTegic.value.DoubleValue
-5.458

@<SCITEGIC>MOL_PROPERTY
VdW12
SciTegic.value.DoubleValue
6.270

@<SCITEGIC>MOL_PROPERTY
Bond
SciTegic.value.DoubleValue
0.200

@<SCITEGIC>MOL_PROPERTY
Angle
SciTegic.value.DoubleValue
1.675

@<SCITEGIC>MOL_PROPERTY
Pdih
SciTegic.value.DoubleValue
3.070

@<SCITEGIC>MOL_PROPERTY
Idih
SciTegic.value.DoubleValue
0.000

@<SCITEGIC>MOL_PROPERTY
Tether
SciTegic.value.DoubleValue
0.000

@<TRIPOS>MOLECULE
guest-s10_confgen4.mol2 : confsearch ligand conformer 654
          20          19           1
SMALL
USER_CHARGES
 
@<TRIPOS>ATOM
       1    N1      18.458974   18.194521   22.203664 N.4        1 MOL1        -0.5937
       2    H1      17.767033   18.915323   21.984488 H          1 MOL1         0.3684
       3    H2      17.953112   17.314410   22.334644 H          1 MOL1         0.3684
       4    H3      19.058980   18.086901   21.383057 H          1 MOL1         0.3684
       5    C1      19.261556   18.557427   23.423259 C.3        1 MOL1         0.1270
       6    H4      19.941288   17.722977   23.621736 H          1 MOL1         0.0960
       7    C2      18.326993   18.714867   24.634690 C.3        1 MOL1        -0.2382
       8    H5      17.631911   19.552056   24.493860 H          1 MOL1         0.1009
       9    H6      18.901821   18.898220   25.550987 H          1 MOL1         0.1009
      10    H7      17.737125   17.803419   24.791708 H          1 MOL1         0.1009
      11    C3      20.108154   19.837370   23.225140 C.3        1 MOL1        -0.1392
      12    H8      19.491726   20.628637   22.778498 H          1 MOL1         0.0998
      13    H9      20.409832   20.213608   24.211811 H          1 MOL1         0.0998
      14    C4      21.404301   19.637923   22.396388 C.3        1 MOL1        -0.1302
      15    H10     22.037239   18.878129   22.876115 H          1 MOL1         0.0998
      16    H11     21.978828   20.574335   22.429195 H          1 MOL1         0.0998
      17    C5      21.176259   19.258921   20.915320 C.3        1 MOL1        -0.2317
      18    H12     22.117759   19.334515   20.355721 H          1 MOL1         0.1009
      19    H13     20.451502   19.931239   20.437791 H          1 MOL1         0.1009
      20    H14     20.825999   18.225471   20.811701 H          1 MOL1         0.1009
@<TRIPOS>BOND
    1     1     2    1
    2     1     3    1
    3     1     4    1
    4     1     5    1
    5     5     6    1
    6     5     7    1
    7     7     8    1
    8     7     9    1
    9     7    10    1
   10     5    11    1
   11    11    12    1
   12    11    13    1
   13    11    14    1
   14    14    15    1
   15    14    16    1
   16    14    17    1
   17    17    18    1
   18    17    19    1
   19    17    20    1
@<TRIPOS>SUBSTRUCTURE
       1 MOL1            1 RESIDUE      1      MOL     
@<SCITEGIC>MOL_PROPERTY
VConf Rank
SciTegic.value.IntegerValue
654

@<SCITEGIC>MOL_PROPERTY
Conf_Id
SciTegic.value.IntegerValue
54

@<SCITEGIC>MOL_PROPERTY
Delta U+W
SciTegic.value.DoubleValue
2.752

@<SCITEGIC>MOL_PROPERTY
U+W
SciTegic.value.DoubleValue
-33.525

@<SCITEGIC>MOL_PROPERTY
Grad RMS
SciTegic.value.DoubleValue
0.000000

@<SCITEGIC>MOL_PROPERTY
U
SciTegic.value.DoubleValue
24.337

@<SCITEGIC>MOL_PROPERTY
W
SciTegic.value.DoubleValue
-57.862

@<SCITEGIC>MOL_PROPERTY
W(PB)
SciTegic.value.DoubleValue
-59.764

@<SCITEGIC>MOL_PROPERTY
W(SA)
SciTegic.value.DoubleValue
1.901

@<SCITEGIC>MOL_PROPERTY
Valence
SciTegic.value.DoubleValue
3.593

@<SCITEGIC>MOL_PROPERTY
Coulomb
SciTegic.value.DoubleValue
20.067

@<SCITEGIC>MOL_PROPERTY
VdW
SciTegic.value.DoubleValue
0.677

@<SCITEGIC>MOL_PROPERTY
VdW6
SciTegic.value.DoubleValue
-5.466

@<SCITEGIC>MOL_PROPERTY
VdW12
SciTegic.value.DoubleValue
6.144

@<SCITEGIC>MOL_PROPERTY
Bond
SciTegic.value.DoubleValue
0.191

@<SCITEGIC>MOL_PROPERTY
Angle
SciTegic.value.DoubleValue
1.557

@<SCITEGIC>MOL_PROPERTY
Pdih
SciTegic.value.DoubleValue
1.845

@<SCITEGIC>MOL_PROPERTY
Idih
SciTegic.value.DoubleValue
0.000

@<SCITEGIC>MOL_PROPERTY
Tether
SciTegic.value.DoubleValue
0.000

@<TRIPOS>MOLECULE
guest-s10_confgen4.mol2 : confsearch ligand conformer 655
          20          19           1
SMALL
USER_CHARGES
 
@<TRIPOS>ATOM
       1    N1      21.195836   18.581287   24.131127 N.4        1 MOL1        -0.5937
       2    H1      21.352106   18.431387   25.131509 H          1 MOL1         0.3684
       3    H2      22.041851   19.016430   23.753476 H          1 MOL1         0.3684
       4    H3      21.102808   17.660992   23.695407 H          1 MOL1         0.3684
       5    C1      19.979287   19.431826   23.885201 C.3        1 MOL1         0.1270
       6    H4      20.164087   20.380204   24.399448 H          1 MOL1         0.0960
       7    C2      18.725717   18.799310   24.515540 C.3        1 MOL1        -0.2382
       8    H5      17.840834   19.421380   24.332556 H          1 MOL1         0.1009
       9    H6      18.847629   18.707066   25.601687 H          1 MOL1         0.1009
      10    H7      18.530832   17.797612   24.114711 H          1 MOL1         0.1009
      11    C3      19.775973   19.756246   22.385712 C.3        1 MOL1        -0.1392
      12    H8      18.930217   20.449445   22.286169 H          1 MOL1         0.0998
      13    H9      20.657410   20.303447   22.026481 H          1 MOL1         0.0998
      14    C4      19.537048   18.523614   21.475834 C.3        1 MOL1        -0.1302
      15    H10     18.628562   17.991288   21.787757 H          1 MOL1         0.0998
      16    H11     20.370558   17.814805   21.570769 H          1 MOL1         0.0998
      17    C5      19.391454   18.932943   19.994422 C.3        1 MOL1        -0.2317
      18    H12     19.220813   18.051024   19.363417 H          1 MOL1         0.1009
      19    H13     20.297841   19.435284   19.632019 H          1 MOL1         0.1009
      20    H14     18.543215   19.615711   19.854632 H          1 MOL1         0.1009
@<TRIPOS>BOND
    1     1     2    1
    2     1     3    1
    3     1     4    1
    4     1     5    1
    5     5     6    1
    6     5     7    1
    7     7     8    1
    8     7     9    1
    9     7    10    1
   10     5    11    1
   11    11    12    1
   12    11    13    1
   13    11    14    1
   14    14    15    1
   15    14    16    1
   16    14    17    1
   17    17    18    1
   18    17    19    1
   19    17    20    1
@<TRIPOS>SUBSTRUCTURE
       1 MOL1            1 RESIDUE      1      MOL     
@<SCITEGIC>MOL_PROPERTY
VConf Rank
SciTegic.value.IntegerValue
655

@<SCITEGIC>MOL_PROPERTY
Conf_Id
SciTegic.value.IntegerValue
63

@<SCITEGIC>MOL_PROPERTY
Delta U+W
SciTegic.value.DoubleValue
0.420

@<SCITEGIC>MOL_PROPERTY
U+W
SciTegic.value.DoubleValue
-35.856

@<SCITEGIC>MOL_PROPERTY
Grad RMS
SciTegic.value.DoubleValue
0.000000

@<SCITEGIC>MOL_PROPERTY
U
SciTegic.value.DoubleValue
22.625

@<SCITEGIC>MOL_PROPERTY
W
SciTegic.value.DoubleValue
-58.481

@<SCITEGIC>MOL_PROPERTY
W(PB)
SciTegic.value.DoubleValue
-60.400

@<SCITEGIC>MOL_PROPERTY
W(SA)
SciTegic.value.DoubleValue
1.919

@<SCITEGIC>MOL_PROPERTY
Valence
SciTegic.value.DoubleValue
2.404

@<SCITEGIC>MOL_PROPERTY
Coulomb
SciTegic.value.DoubleValue
19.464

@<SCITEGIC>MOL_PROPERTY
VdW
SciTegic.value.DoubleValue
0.757

@<SCITEGIC>MOL_PROPERTY
VdW6
SciTegic.value.DoubleValue
-5.074

@<SCITEGIC>MOL_PROPERTY
VdW12
SciTegic.value.DoubleValue
5.830

@<SCITEGIC>MOL_PROPERTY
Bond
SciTegic.value.DoubleValue
0.172

@<SCITEGIC>MOL_PROPERTY
Angle
SciTegic.value.DoubleValue
1.207

@<SCITEGIC>MOL_PROPERTY
Pdih
SciTegic.value.DoubleValue
1.025

@<SCITEGIC>MOL_PROPERTY
Idih
SciTegic.value.DoubleValue
0.000

@<SCITEGIC>MOL_PROPERTY
Tether
SciTegic.value.DoubleValue
0.000

@<TRIPOS>MOLECULE
guest-s10_confgen4.mol2 : confsearch ligand conformer 656
          20          19           1
SMALL
USER_CHARGES
 
@<TRIPOS>ATOM
       1    N1      19.320110   18.613329   21.065580 N.4        1 MOL1        -0.5937
       2    H1      19.443648   17.636995   21.345552 H          1 MOL1         0.3684
       3    H2      20.111665   18.865097   20.468525 H          1 MOL1         0.3684
       4    H3      18.475176   18.661767   20.490008 H          1 MOL1         0.3684
       5    C1      19.224164   19.517913   22.264204 C.3        1 MOL1         0.1270
       6    H4      18.357204   19.183800   22.842026 H          1 MOL1         0.0960
       7    C2      18.977354   20.971631   21.829115 C.3        1 MOL1        -0.2382
       8    H5      18.069083   21.045413   21.218510 H          1 MOL1         0.1009
       9    H6      19.817855   21.358368   21.239414 H          1 MOL1         0.1009
      10    H7      18.844587   21.622547   22.702214 H          1 MOL1         0.1009
      11    C3      20.473020   19.432240   23.170846 C.3        1 MOL1        -0.1392
      12    H8      21.352729   19.779646   22.612945 H          1 MOL1         0.0998
      13    H9      20.350980   20.125834   24.013437 H          1 MOL1         0.0998
      14    C4      20.755259   18.015004   23.730920 C.3        1 MOL1        -0.1302
      15    H10     21.658878   18.056170   24.355164 H          1 MOL1         0.0998
      16    H11     20.986568   17.321467   22.911122 H          1 MOL1         0.0998
      17    C5      19.588529   17.453793   24.575402 C.3        1 MOL1        -0.2317
      18    H12     19.338866   18.131025   25.402570 H          1 MOL1         0.1009
      19    H13     19.860099   16.482501   25.008887 H          1 MOL1         0.1009
      20    H14     18.685581   17.304594   23.970157 H          1 MOL1         0.1009
@<TRIPOS>BOND
    1     1     2    1
    2     1     3    1
    3     1     4    1
    4     1     5    1
    5     5     6    1
    6     5     7    1
    7     7     8    1
    8     7     9    1
    9     7    10    1
   10     5    11    1
   11    11    12    1
   12    11    13    1
   13    11    14    1
   14    14    15    1
   15    14    16    1
   16    14    17    1
   17    17    18    1
   18    17    19    1
   19    17    20    1
@<TRIPOS>SUBSTRUCTURE
       1 MOL1            1 RESIDUE      1      MOL     
@<SCITEGIC>MOL_PROPERTY
VConf Rank
SciTegic.value.IntegerValue
656

@<SCITEGIC>MOL_PROPERTY
Conf_Id
SciTegic.value.IntegerValue
50

@<SCITEGIC>MOL_PROPERTY
Delta U+W
SciTegic.value.DoubleValue
0.466

@<SCITEGIC>MOL_PROPERTY
U+W
SciTegic.value.DoubleValue
-35.811

@<SCITEGIC>MOL_PROPERTY
Grad RMS
SciTegic.value.DoubleValue
0.000000

@<SCITEGIC>MOL_PROPERTY
U
SciTegic.value.DoubleValue
22.369

@<SCITEGIC>MOL_PROPERTY
W
SciTegic.value.DoubleValue
-58.180

@<SCITEGIC>MOL_PROPERTY
W(PB)
SciTegic.value.DoubleValue
-60.103

@<SCITEGIC>MOL_PROPERTY
W(SA)
SciTegic.value.DoubleValue
1.923

@<SCITEGIC>MOL_PROPERTY
Valence
SciTegic.value.DoubleValue
2.168

@<SCITEGIC>MOL_PROPERTY
Coulomb
SciTegic.value.DoubleValue
19.636

@<SCITEGIC>MOL_PROPERTY
VdW
SciTegic.value.DoubleValue
0.566

@<SCITEGIC>MOL_PROPERTY
VdW6
SciTegic.value.DoubleValue
-5.263

@<SCITEGIC>MOL_PROPERTY
VdW12
SciTegic.value.DoubleValue
5.829

@<SCITEGIC>MOL_PROPERTY
Bond
SciTegic.value.DoubleValue
0.162

@<SCITEGIC>MOL_PROPERTY
Angle
SciTegic.value.DoubleValue
1.066

@<SCITEGIC>MOL_PROPERTY
Pdih
SciTegic.value.DoubleValue
0.939

@<SCITEGIC>MOL_PROPERTY
Idih
SciTegic.value.DoubleValue
0.000

@<SCITEGIC>MOL_PROPERTY
Tether
SciTegic.value.DoubleValue
0.000

@<TRIPOS>MOLECULE
guest-s10_confgen4.mol2 : confsearch ligand conformer 657
          20          19           1
SMALL
USER_CHARGES
 
@<TRIPOS>ATOM
       1    N1      21.936830   18.863534   23.314387 N.4        1 MOL1        -0.5937
       2    H1      21.992339   19.376182   24.198756 H          1 MOL1         0.3684
       3    H2      22.422286   19.419675   22.605929 H          1 MOL1         0.3684
       4    H3      22.465675   17.995434   23.434638 H          1 MOL1         0.3684
       5    C1      20.510590   18.589410   22.920336 C.3        1 MOL1         0.1270
       6    H4      20.078145   17.998085   23.733408 H          1 MOL1         0.0960
       7    C2      20.472635   17.753328   21.627475 C.3        1 MOL1        -0.2382
       8    H5      20.940933   18.292221   20.794434 H          1 MOL1         0.1009
       9    H6      19.445498   17.509757   21.335152 H          1 MOL1         0.1009
      10    H7      21.010406   16.807063   21.763543 H          1 MOL1         0.1009
      11    C3      19.687718   19.894121   22.783064 C.3        1 MOL1        -0.1392
      12    H8      20.220111   20.709809   23.289900 H          1 MOL1         0.0998
      13    H9      19.619713   20.195716   21.729295 H          1 MOL1         0.0998
      14    C4      18.271121   19.811033   23.406067 C.3        1 MOL1        -0.1302
      15    H10     17.796248   20.799338   23.330687 H          1 MOL1         0.0998
      16    H11     18.354438   19.593918   24.480311 H          1 MOL1         0.0998
      17    C5      17.348790   18.764838   22.741976 C.3        1 MOL1        -0.2317
      18    H12     17.278620   18.928953   21.658846 H          1 MOL1         0.1009
      19    H13     16.334419   18.830021   23.156518 H          1 MOL1         0.1009
      20    H14     17.709166   17.743608   22.917608 H          1 MOL1         0.1009
@<TRIPOS>BOND
    1     1     2    1
    2     1     3    1
    3     1     4    1
    4     1     5    1
    5     5     6    1
    6     5     7    1
    7     7     8    1
    8     7     9    1
    9     7    10    1
   10     5    11    1
   11    11    12    1
   12    11    13    1
   13    11    14    1
   14    14    15    1
   15    14    16    1
   16    14    17    1
   17    17    18    1
   18    17    19    1
   19    17    20    1
@<TRIPOS>SUBSTRUCTURE
       1 MOL1            1 RESIDUE      1      MOL     
@<SCITEGIC>MOL_PROPERTY
VConf Rank
SciTegic.value.IntegerValue
657

@<SCITEGIC>MOL_PROPERTY
Conf_Id
SciTegic.value.IntegerValue
3

@<SCITEGIC>MOL_PROPERTY
Delta U+W
SciTegic.value.DoubleValue
3.093

@<SCITEGIC>MOL_PROPERTY
U+W
SciTegic.value.DoubleValue
-33.184

@<SCITEGIC>MOL_PROPERTY
Grad RMS
SciTegic.value.DoubleValue
0.000000

@<SCITEGIC>MOL_PROPERTY
U
SciTegic.value.DoubleValue
25.256

@<SCITEGIC>MOL_PROPERTY
W
SciTegic.value.DoubleValue
-58.439

@<SCITEGIC>MOL_PROPERTY
W(PB)
SciTegic.value.DoubleValue
-60.337

@<SCITEGIC>MOL_PROPERTY
W(SA)
SciTegic.value.DoubleValue
1.898

@<SCITEGIC>MOL_PROPERTY
Valence
SciTegic.value.DoubleValue
4.963

@<SCITEGIC>MOL_PROPERTY
Coulomb
SciTegic.value.DoubleValue
19.511

@<SCITEGIC>MOL_PROPERTY
VdW
SciTegic.value.DoubleValue
0.782

@<SCITEGIC>MOL_PROPERTY
VdW6
SciTegic.value.DoubleValue
-5.429

@<SCITEGIC>MOL_PROPERTY
VdW12
SciTegic.value.DoubleValue
6.211

@<SCITEGIC>MOL_PROPERTY
Bond
SciTegic.value.DoubleValue
0.174

@<SCITEGIC>MOL_PROPERTY
Angle
SciTegic.value.DoubleValue
1.377

@<SCITEGIC>MOL_PROPERTY
Pdih
SciTegic.value.DoubleValue
3.412

@<SCITEGIC>MOL_PROPERTY
Idih
SciTegic.value.DoubleValue
0.000

@<SCITEGIC>MOL_PROPERTY
Tether
SciTegic.value.DoubleValue
0.000

@<TRIPOS>MOLECULE
guest-s10_confgen4.mol2 : confsearch ligand conformer 658
          20          19           1
SMALL
USER_CHARGES
 
@<TRIPOS>ATOM
       1    N1      17.798603   19.212978   21.498434 N.4        1 MOL1        -0.5937
       2    H1      17.266212   20.086758   21.471919 H          1 MOL1         0.3684
       3    H2      17.168936   18.485799   21.848520 H          1 MOL1         0.3684
       4    H3      18.036955   18.972941   20.532900 H          1 MOL1         0.3684
       5    C1      19.028028   19.342716   22.355210 C.3        1 MOL1         0.1270
       6    H4      18.676602   19.602257   23.358323 H          1 MOL1         0.0960
       7    C2      19.920404   20.487197   21.841468 C.3        1 MOL1        -0.2382
       8    H5      20.747643   20.687220   22.532266 H          1 MOL1         0.1009
       9    H6      19.343594   21.415544   21.748748 H          1 MOL1         0.1009
      10    H7      20.343626   20.249768   20.857599 H          1 MOL1         0.1009
      11    C3      19.795005   18.001507   22.440837 C.3        1 MOL1        -0.1392
      12    H8      19.090440   17.211979   22.733685 H          1 MOL1         0.0998
      13    H9      20.160930   17.727788   21.442382 H          1 MOL1         0.0998
      14    C4      20.983061   17.988489   23.436556 C.3        1 MOL1        -0.1302
      15    H10     21.771448   18.674633   23.099028 H          1 MOL1         0.0998
      16    H11     21.435147   16.986774   23.431739 H          1 MOL1         0.0998
      17    C5      20.565910   18.342477   24.882180 C.3        1 MOL1        -0.2317
      18    H12     19.775400   17.670503   25.240930 H          1 MOL1         0.1009
      19    H13     20.199098   19.374089   24.954920 H          1 MOL1         0.1009
      20    H14     21.421266   18.247050   25.563559 H          1 MOL1         0.1009
@<TRIPOS>BOND
    1     1     2    1
    2     1     3    1
    3     1     4    1
    4     1     5    1
    5     5     6    1
    6     5     7    1
    7     7     8    1
    8     7     9    1
    9     7    10    1
   10     5    11    1
   11    11    12    1
   12    11    13    1
   13    11    14    1
   14    14    15    1
   15    14    16    1
   16    14    17    1
   17    17    18    1
   18    17    19    1
   19    17    20    1
@<TRIPOS>SUBSTRUCTURE
       1 MOL1            1 RESIDUE      1      MOL     
@<SCITEGIC>MOL_PROPERTY
VConf Rank
SciTegic.value.IntegerValue
658

@<SCITEGIC>MOL_PROPERTY
Conf_Id
SciTegic.value.IntegerValue
64

@<SCITEGIC>MOL_PROPERTY
Delta U+W
SciTegic.value.DoubleValue
0.544

@<SCITEGIC>MOL_PROPERTY
U+W
SciTegic.value.DoubleValue
-35.732

@<SCITEGIC>MOL_PROPERTY
Grad RMS
SciTegic.value.DoubleValue
0.000000

@<SCITEGIC>MOL_PROPERTY
U
SciTegic.value.DoubleValue
22.800

@<SCITEGIC>MOL_PROPERTY
W
SciTegic.value.DoubleValue
-58.532

@<SCITEGIC>MOL_PROPERTY
W(PB)
SciTegic.value.DoubleValue
-60.437

@<SCITEGIC>MOL_PROPERTY
W(SA)
SciTegic.value.DoubleValue
1.905

@<SCITEGIC>MOL_PROPERTY
Valence
SciTegic.value.DoubleValue
2.662

@<SCITEGIC>MOL_PROPERTY
Coulomb
SciTegic.value.DoubleValue
19.485

@<SCITEGIC>MOL_PROPERTY
VdW
SciTegic.value.DoubleValue
0.653

@<SCITEGIC>MOL_PROPERTY
VdW6
SciTegic.value.DoubleValue
-5.460

@<SCITEGIC>MOL_PROPERTY
VdW12
SciTegic.value.DoubleValue
6.113

@<SCITEGIC>MOL_PROPERTY
Bond
SciTegic.value.DoubleValue
0.174

@<SCITEGIC>MOL_PROPERTY
Angle
SciTegic.value.DoubleValue
1.378

@<SCITEGIC>MOL_PROPERTY
Pdih
SciTegic.value.DoubleValue
1.109

@<SCITEGIC>MOL_PROPERTY
Idih
SciTegic.value.DoubleValue
0.000

@<SCITEGIC>MOL_PROPERTY
Tether
SciTegic.value.DoubleValue
0.000

@<TRIPOS>MOLECULE
guest-s10_confgen4.mol2 : confsearch ligand conformer 659
          20          19           1
SMALL
USER_CHARGES
 
@<TRIPOS>ATOM
       1    N1      18.406499   17.379409   23.132646 N.4        1 MOL1        -0.5937
       2    H1      19.284994   16.974891   23.464136 H          1 MOL1         0.3684
       3    H2      17.936152   16.667322   22.567563 H          1 MOL1         0.3684
       4    H3      17.819193   17.552626   23.952846 H          1 MOL1         0.3684
       5    C1      18.642820   18.639618   22.344701 C.3        1 MOL1         0.1270
       6    H4      17.653433   18.984709   22.028492 H          1 MOL1         0.0960
       7    C2      19.455039   18.346519   21.072648 C.3        1 MOL1        -0.2382
       8    H5      20.413029   17.868958   21.309080 H          1 MOL1         0.1009
       9    H6      19.652820   19.269448   20.513699 H          1 MOL1         0.1009
      10    H7      18.899954   17.669934   20.411526 H          1 MOL1         0.1009
      11    C3      19.259663   19.768179   23.208874 C.3        1 MOL1        -0.1392
      12    H8      19.249218   20.708232   22.641698 H          1 MOL1         0.0998
      13    H9      18.584624   19.936921   24.058185 H          1 MOL1         0.0998
      14    C4      20.686363   19.504888   23.766035 C.3        1 MOL1        -0.1302
      15    H10     20.845426   18.433501   23.945502 H          1 MOL1         0.0998
      16    H11     20.768197   19.988137   24.749781 H          1 MOL1         0.0998
      17    C5      21.813870   20.067555   22.868883 C.3        1 MOL1        -0.2317
      18    H12     21.826948   19.599582   21.878526 H          1 MOL1         0.1009
      19    H13     22.794314   19.891771   23.330180 H          1 MOL1         0.1009
      20    H14     21.702061   21.150746   22.730176 H          1 MOL1         0.1009
@<TRIPOS>BOND
    1     1     2    1
    2     1     3    1
    3     1     4    1
    4     1     5    1
    5     5     6    1
    6     5     7    1
    7     7     8    1
    8     7     9    1
    9     7    10    1
   10     5    11    1
   11    11    12    1
   12    11    13    1
   13    11    14    1
   14    14    15    1
   15    14    16    1
   16    14    17    1
   17    17    18    1
   18    17    19    1
   19    17    20    1
@<TRIPOS>SUBSTRUCTURE
       1 MOL1            1 RESIDUE      1      MOL     
@<SCITEGIC>MOL_PROPERTY
VConf Rank
SciTegic.value.IntegerValue
659

@<SCITEGIC>MOL_PROPERTY
Conf_Id
SciTegic.value.IntegerValue
35

@<SCITEGIC>MOL_PROPERTY
Delta U+W
SciTegic.value.DoubleValue
3.004

@<SCITEGIC>MOL_PROPERTY
U+W
SciTegic.value.DoubleValue
-33.272

@<SCITEGIC>MOL_PROPERTY
Grad RMS
SciTegic.value.DoubleValue
0.000000

@<SCITEGIC>MOL_PROPERTY
U
SciTegic.value.DoubleValue
25.367

@<SCITEGIC>MOL_PROPERTY
W
SciTegic.value.DoubleValue
-58.639

@<SCITEGIC>MOL_PROPERTY
W(PB)
SciTegic.value.DoubleValue
-60.512

@<SCITEGIC>MOL_PROPERTY
W(SA)
SciTegic.value.DoubleValue
1.873

@<SCITEGIC>MOL_PROPERTY
Valence
SciTegic.value.DoubleValue
4.943

@<SCITEGIC>MOL_PROPERTY
Coulomb
SciTegic.value.DoubleValue
19.661

@<SCITEGIC>MOL_PROPERTY
VdW
SciTegic.value.DoubleValue
0.764

@<SCITEGIC>MOL_PROPERTY
VdW6
SciTegic.value.DoubleValue
-5.871

@<SCITEGIC>MOL_PROPERTY
VdW12
SciTegic.value.DoubleValue
6.636

@<SCITEGIC>MOL_PROPERTY
Bond
SciTegic.value.DoubleValue
0.230

@<SCITEGIC>MOL_PROPERTY
Angle
SciTegic.value.DoubleValue
1.857

@<SCITEGIC>MOL_PROPERTY
Pdih
SciTegic.value.DoubleValue
2.855

@<SCITEGIC>MOL_PROPERTY
Idih
SciTegic.value.DoubleValue
0.000

@<SCITEGIC>MOL_PROPERTY
Tether
SciTegic.value.DoubleValue
0.000

@<TRIPOS>MOLECULE
guest-s10_confgen4.mol2 : confsearch ligand conformer 660
          20          19           1
SMALL
USER_CHARGES
 
@<TRIPOS>ATOM
       1    N1      20.117972   19.551074   24.353536 N.4        1 MOL1        -0.5937
       2    H1      20.430295   20.408358   24.817347 H          1 MOL1         0.3684
       3    H2      20.234522   18.783876   25.020922 H          1 MOL1         0.3684
       4    H3      19.117680   19.645784   24.167949 H          1 MOL1         0.3684
       5    C1      20.885588   19.298791   23.084843 C.3        1 MOL1         0.1270
       6    H4      21.929238   19.188110   23.395442 H          1 MOL1         0.0960
       7    C2      20.815856   20.508749   22.136345 C.3        1 MOL1        -0.2382
       8    H5      19.782620   20.742268   21.853170 H          1 MOL1         0.1009
       9    H6      21.389372   20.318653   21.220724 H          1 MOL1         0.1009
      10    H7      21.241242   21.398399   22.616488 H          1 MOL1         0.1009
      11    C3      20.483581   17.975267   22.384851 C.3        1 MOL1        -0.1392
      12    H8      21.280924   17.719508   21.674658 H          1 MOL1         0.0998
      13    H9      20.484789   17.166151   23.126839 H          1 MOL1         0.0998
      14    C4      19.135448   17.958852   21.610989 C.3        1 MOL1        -0.1302
      15    H10     19.025934   16.971231   21.141483 H          1 MOL1         0.0998
      16    H11     19.163890   18.677721   20.780898 H          1 MOL1         0.0998
      17    C5      17.887148   18.221695   22.483676 C.3        1 MOL1        -0.2317
      18    H12     17.876974   17.573753   23.369796 H          1 MOL1         0.1009
      19    H13     16.973366   18.016025   21.911074 H          1 MOL1         0.1009
      20    H14     17.834169   19.267280   22.808040 H          1 MOL1         0.1009
@<TRIPOS>BOND
    1     1     2    1
    2     1     3    1
    3     1     4    1
    4     1     5    1
    5     5     6    1
    6     5     7    1
    7     7     8    1
    8     7     9    1
    9     7    10    1
   10     5    11    1
   11    11    12    1
   12    11    13    1
   13    11    14    1
   14    14    15    1
   15    14    16    1
   16    14    17    1
   17    17    18    1
   18    17    19    1
   19    17    20    1
@<TRIPOS>SUBSTRUCTURE
       1 MOL1            1 RESIDUE      1      MOL     
@<SCITEGIC>MOL_PROPERTY
VConf Rank
SciTegic.value.IntegerValue
660

@<SCITEGIC>MOL_PROPERTY
Conf_Id
SciTegic.value.IntegerValue
55

@<SCITEGIC>MOL_PROPERTY
Delta U+W
SciTegic.value.DoubleValue
2.767

@<SCITEGIC>MOL_PROPERTY
U+W
SciTegic.value.DoubleValue
-33.509

@<SCITEGIC>MOL_PROPERTY
Grad RMS
SciTegic.value.DoubleValue
0.000000

@<SCITEGIC>MOL_PROPERTY
U
SciTegic.value.DoubleValue
24.552

@<SCITEGIC>MOL_PROPERTY
W
SciTegic.value.DoubleValue
-58.061

@<SCITEGIC>MOL_PROPERTY
W(PB)
SciTegic.value.DoubleValue
-59.930

@<SCITEGIC>MOL_PROPERTY
W(SA)
SciTegic.value.DoubleValue
1.869

@<SCITEGIC>MOL_PROPERTY
Valence
SciTegic.value.DoubleValue
3.726

@<SCITEGIC>MOL_PROPERTY
Coulomb
SciTegic.value.DoubleValue
20.219

@<SCITEGIC>MOL_PROPERTY
VdW
SciTegic.value.DoubleValue
0.606

@<SCITEGIC>MOL_PROPERTY
VdW6
SciTegic.value.DoubleValue
-6.395

@<SCITEGIC>MOL_PROPERTY
VdW12
SciTegic.value.DoubleValue
7.001

@<SCITEGIC>MOL_PROPERTY
Bond
SciTegic.value.DoubleValue
0.241

@<SCITEGIC>MOL_PROPERTY
Angle
SciTegic.value.DoubleValue
2.098

@<SCITEGIC>MOL_PROPERTY
Pdih
SciTegic.value.DoubleValue
1.387

@<SCITEGIC>MOL_PROPERTY
Idih
SciTegic.value.DoubleValue
0.000

@<SCITEGIC>MOL_PROPERTY
Tether
SciTegic.value.DoubleValue
0.000

@<TRIPOS>MOLECULE
guest-s10_confgen4.mol2 : confsearch ligand conformer 661
          20          19           1
SMALL
USER_CHARGES
 
@<TRIPOS>ATOM
       1    N1      20.518971   20.656413   22.089004 N.4        1 MOL1        -0.5937
       2    H1      20.050405   20.688109   21.180166 H          1 MOL1         0.3684
       3    H2      21.371460   21.217727   22.012554 H          1 MOL1         0.3684
       4    H3      19.908973   21.121376   22.765978 H          1 MOL1         0.3684
       5    C1      20.825921   19.242146   22.502152 C.3        1 MOL1         0.1270
       6    H4      21.318206   19.299028   23.478015 H          1 MOL1         0.0960
       7    C2      21.800913   18.588896   21.508863 C.3        1 MOL1        -0.2382
       8    H5      22.722984   19.177219   21.425647 H          1 MOL1         0.1009
       9    H6      21.355514   18.508402   20.509396 H          1 MOL1         0.1009
      10    H7      22.079076   17.580922   21.840905 H          1 MOL1         0.1009
      11    C3      19.554081   18.378497   22.652762 C.3        1 MOL1        -0.1392
      12    H8      19.027449   18.324804   21.690633 H          1 MOL1         0.0998
      13    H9      19.851081   17.351603   22.904447 H          1 MOL1         0.0998
      14    C4      18.592591   18.901878   23.746896 C.3        1 MOL1        -0.1302
      15    H10     18.235947   19.908315   23.489378 H          1 MOL1         0.0998
      16    H11     19.130414   18.989273   24.701543 H          1 MOL1         0.0998
      17    C5      17.375626   17.969714   23.929568 C.3        1 MOL1        -0.2317
      18    H12     16.799200   17.885796   22.999005 H          1 MOL1         0.1009
      19    H13     16.704379   18.356346   24.707403 H          1 MOL1         0.1009
      20    H14     17.690816   16.961458   24.228411 H          1 MOL1         0.1009
@<TRIPOS>BOND
    1     1     2    1
    2     1     3    1
    3     1     4    1
    4     1     5    1
    5     5     6    1
    6     5     7    1
    7     7     8    1
    8     7     9    1
    9     7    10    1
   10     5    11    1
   11    11    12    1
   12    11    13    1
   13    11    14    1
   14    14    15    1
   15    14    16    1
   16    14    17    1
   17    17    18    1
   18    17    19    1
   19    17    20    1
@<TRIPOS>SUBSTRUCTURE
       1 MOL1            1 RESIDUE      1      MOL     
@<SCITEGIC>MOL_PROPERTY
VConf Rank
SciTegic.value.IntegerValue
661

@<SCITEGIC>MOL_PROPERTY
Conf_Id
SciTegic.value.IntegerValue
74

@<SCITEGIC>MOL_PROPERTY
Delta U+W
SciTegic.value.DoubleValue
0.000

@<SCITEGIC>MOL_PROPERTY
U+W
SciTegic.value.DoubleValue
-36.276

@<SCITEGIC>MOL_PROPERTY
Grad RMS
SciTegic.value.DoubleValue
0.000000

@<SCITEGIC>MOL_PROPERTY
U
SciTegic.value.DoubleValue
22.080

@<SCITEGIC>MOL_PROPERTY
W
SciTegic.value.DoubleValue
-58.356

@<SCITEGIC>MOL_PROPERTY
W(PB)
SciTegic.value.DoubleValue
-60.289

@<SCITEGIC>MOL_PROPERTY
W(SA)
SciTegic.value.DoubleValue
1.932

@<SCITEGIC>MOL_PROPERTY
Valence
SciTegic.value.DoubleValue
1.885

@<SCITEGIC>MOL_PROPERTY
Coulomb
SciTegic.value.DoubleValue
19.559

@<SCITEGIC>MOL_PROPERTY
VdW
SciTegic.value.DoubleValue
0.637

@<SCITEGIC>MOL_PROPERTY
VdW6
SciTegic.value.DoubleValue
-4.482

@<SCITEGIC>MOL_PROPERTY
VdW12
SciTegic.value.DoubleValue
5.119

@<SCITEGIC>MOL_PROPERTY
Bond
SciTegic.value.DoubleValue
0.136

@<SCITEGIC>MOL_PROPERTY
Angle
SciTegic.value.DoubleValue
0.867

@<SCITEGIC>MOL_PROPERTY
Pdih
SciTegic.value.DoubleValue
0.882

@<SCITEGIC>MOL_PROPERTY
Idih
SciTegic.value.DoubleValue
0.000

@<SCITEGIC>MOL_PROPERTY
Tether
SciTegic.value.DoubleValue
0.000

@<TRIPOS>MOLECULE
guest-s10_confgen4.mol2 : confsearch ligand conformer 662
          20          19           1
SMALL
USER_CHARGES
 
@<TRIPOS>ATOM
       1    N1      18.594867   17.273356   24.005809 N.4        1 MOL1        -0.5937
       2    H1      19.029152   17.385620   24.925946 H          1 MOL1         0.3684
       3    H2      19.008294   16.444656   23.570996 H          1 MOL1         0.3684
       4    H3      17.603532   17.072182   24.162215 H          1 MOL1         0.3684
       5    C1      18.780347   18.496885   23.150801 C.3        1 MOL1         0.1270
       6    H4      18.308281   19.324047   23.690081 H          1 MOL1         0.0960
       7    C2      18.057996   18.320517   21.802505 C.3        1 MOL1        -0.2382
       8    H5      17.010813   18.034346   21.959785 H          1 MOL1         0.1009
       9    H6      18.535464   17.541751   21.194947 H          1 MOL1         0.1009
      10    H7      18.054945   19.252751   21.226177 H          1 MOL1         0.1009
      11    C3      20.279431   18.830760   22.969791 C.3        1 MOL1        -0.1392
      12    H8      20.756117   18.835639   23.958937 H          1 MOL1         0.0998
      13    H9      20.768651   18.034403   22.393313 H          1 MOL1         0.0998
      14    C4      20.538194   20.199029   22.293001 C.3        1 MOL1        -0.1302
      15    H10     19.996839   20.988229   22.833527 H          1 MOL1         0.0998
      16    H11     20.152485   20.194791   21.264842 H          1 MOL1         0.0998
      17    C5      22.043092   20.542264   22.259040 C.3        1 MOL1        -0.2317
      18    H12     22.459184   20.599193   23.273370 H          1 MOL1         0.1009
      19    H13     22.208554   21.512624   21.773128 H          1 MOL1         0.1009
      20    H14     22.608218   19.785197   21.699807 H          1 MOL1         0.1009
@<TRIPOS>BOND
    1     1     2    1
    2     1     3    1
    3     1     4    1
    4     1     5    1
    5     5     6    1
    6     5     7    1
    7     7     8    1
    8     7     9    1
    9     7    10    1
   10     5    11    1
   11    11    12    1
   12    11    13    1
   13    11    14    1
   14    14    15    1
   15    14    16    1
   16    14    17    1
   17    17    18    1
   18    17    19    1
   19    17    20    1
@<TRIPOS>SUBSTRUCTURE
       1 MOL1            1 RESIDUE      1      MOL     
@<SCITEGIC>MOL_PROPERTY
VConf Rank
SciTegic.value.IntegerValue
662

@<SCITEGIC>MOL_PROPERTY
Conf_Id
SciTegic.value.IntegerValue
80

@<SCITEGIC>MOL_PROPERTY
Delta U+W
SciTegic.value.DoubleValue
0.460

@<SCITEGIC>MOL_PROPERTY
U+W
SciTegic.value.DoubleValue
-35.817

@<SCITEGIC>MOL_PROPERTY
Grad RMS
SciTegic.value.DoubleValue
0.000000

@<SCITEGIC>MOL_PROPERTY
U
SciTegic.value.DoubleValue
22.495

@<SCITEGIC>MOL_PROPERTY
W
SciTegic.value.DoubleValue
-58.311

@<SCITEGIC>MOL_PROPERTY
W(PB)
SciTegic.value.DoubleValue
-60.259

@<SCITEGIC>MOL_PROPERTY
W(SA)
SciTegic.value.DoubleValue
1.948

@<SCITEGIC>MOL_PROPERTY
Valence
SciTegic.value.DoubleValue
2.419

@<SCITEGIC>MOL_PROPERTY
Coulomb
SciTegic.value.DoubleValue
19.304

@<SCITEGIC>MOL_PROPERTY
VdW
SciTegic.value.DoubleValue
0.772

@<SCITEGIC>MOL_PROPERTY
VdW6
SciTegic.value.DoubleValue
-4.635

@<SCITEGIC>MOL_PROPERTY
VdW12
SciTegic.value.DoubleValue
5.407

@<SCITEGIC>MOL_PROPERTY
Bond
SciTegic.value.DoubleValue
0.149

@<SCITEGIC>MOL_PROPERTY
Angle
SciTegic.value.DoubleValue
1.142

@<SCITEGIC>MOL_PROPERTY
Pdih
SciTegic.value.DoubleValue
1.129

@<SCITEGIC>MOL_PROPERTY
Idih
SciTegic.value.DoubleValue
0.000

@<SCITEGIC>MOL_PROPERTY
Tether
SciTegic.value.DoubleValue
0.000

@<TRIPOS>MOLECULE
guest-s10_confgen4.mol2 : confsearch ligand conformer 663
          20          19           1
SMALL
USER_CHARGES
 
@<TRIPOS>ATOM
       1    N1      19.599505   18.201260   25.025044 N.4        1 MOL1        -0.5937
       2    H1      19.921077   17.237098   25.146679 H          1 MOL1         0.3684
       3    H2      18.576691   18.187919   25.044074 H          1 MOL1         0.3684
       4    H3      19.912041   18.729660   25.844025 H          1 MOL1         0.3684
       5    C1      20.120154   18.804222   23.749069 C.3        1 MOL1         0.1270
       6    H4      21.211874   18.781117   23.822652 H          1 MOL1         0.0960
       7    C2      19.679737   20.273765   23.636233 C.3        1 MOL1        -0.2382
       8    H5      19.913986   20.820354   24.557923 H          1 MOL1         0.1009
       9    H6      18.600289   20.353418   23.457629 H          1 MOL1         0.1009
      10    H7      20.207235   20.780081   22.819901 H          1 MOL1         0.1009
      11    C3      19.703549   17.955495   22.522922 C.3        1 MOL1        -0.1392
      12    H8      20.026603   16.923213   22.711924 H          1 MOL1         0.0998
      13    H9      18.609112   17.915626   22.443251 H          1 MOL1         0.0998
      14    C4      20.323961   18.404581   21.173457 C.3        1 MOL1        -0.1302
      15    H10     20.550603   17.509564   20.577055 H          1 MOL1         0.0998
      16    H11     21.287837   18.904572   21.343511 H          1 MOL1         0.0998
      17    C5      19.388050   19.308647   20.336935 C.3        1 MOL1        -0.2317
      18    H12     18.451527   18.788287   20.097629 H          1 MOL1         0.1009
      19    H13     19.866861   19.583445   19.388142 H          1 MOL1         0.1009
      20    H14     19.133143   20.236736   20.860592 H          1 MOL1         0.1009
@<TRIPOS>BOND
    1     1     2    1
    2     1     3    1
    3     1     4    1
    4     1     5    1
    5     5     6    1
    6     5     7    1
    7     7     8    1
    8     7     9    1
    9     7    10    1
   10     5    11    1
   11    11    12    1
   12    11    13    1
   13    11    14    1
   14    14    15    1
   15    14    16    1
   16    14    17    1
   17    17    18    1
   18    17    19    1
   19    17    20    1
@<TRIPOS>SUBSTRUCTURE
       1 MOL1            1 RESIDUE      1      MOL     
@<SCITEGIC>MOL_PROPERTY
VConf Rank
SciTegic.value.IntegerValue
663

@<SCITEGIC>MOL_PROPERTY
Conf_Id
SciTegic.value.IntegerValue
52

@<SCITEGIC>MOL_PROPERTY
Delta U+W
SciTegic.value.DoubleValue
2.995

@<SCITEGIC>MOL_PROPERTY
U+W
SciTegic.value.DoubleValue
-33.282

@<SCITEGIC>MOL_PROPERTY
Grad RMS
SciTegic.value.DoubleValue
0.000000

@<SCITEGIC>MOL_PROPERTY
U
SciTegic.value.DoubleValue
25.224

@<SCITEGIC>MOL_PROPERTY
W
SciTegic.value.DoubleValue
-58.506

@<SCITEGIC>MOL_PROPERTY
W(PB)
SciTegic.value.DoubleValue
-60.411

@<SCITEGIC>MOL_PROPERTY
W(SA)
SciTegic.value.DoubleValue
1.905

@<SCITEGIC>MOL_PROPERTY
Valence
SciTegic.value.DoubleValue
4.945

@<SCITEGIC>MOL_PROPERTY
Coulomb
SciTegic.value.DoubleValue
19.467

@<SCITEGIC>MOL_PROPERTY
VdW
SciTegic.value.DoubleValue
0.813

@<SCITEGIC>MOL_PROPERTY
VdW6
SciTegic.value.DoubleValue
-5.458

@<SCITEGIC>MOL_PROPERTY
VdW12
SciTegic.value.DoubleValue
6.270

@<SCITEGIC>MOL_PROPERTY
Bond
SciTegic.value.DoubleValue
0.200

@<SCITEGIC>MOL_PROPERTY
Angle
SciTegic.value.DoubleValue
1.675

@<SCITEGIC>MOL_PROPERTY
Pdih
SciTegic.value.DoubleValue
3.070

@<SCITEGIC>MOL_PROPERTY
Idih
SciTegic.value.DoubleValue
0.000

@<SCITEGIC>MOL_PROPERTY
Tether
SciTegic.value.DoubleValue
0.000

@<TRIPOS>MOLECULE
guest-s10_confgen4.mol2 : confsearch ligand conformer 664
          20          19           1
SMALL
USER_CHARGES
 
@<TRIPOS>ATOM
       1    N1      19.964978   19.746541   21.310349 N.4        1 MOL1        -0.5937
       2    H1      20.862306   19.393802   20.968655 H          1 MOL1         0.3684
       3    H2      19.774864   20.624934   20.820522 H          1 MOL1         0.3684
       4    H3      19.246208   19.075330   21.031366 H          1 MOL1         0.3684
       5    C1      19.983333   19.938549   22.802343 C.3        1 MOL1         0.1270
       6    H4      19.013871   20.360504   23.084886 H          1 MOL1         0.0960
       7    C2      21.077569   20.949635   23.184587 C.3        1 MOL1        -0.2382
       8    H5      22.075626   20.567547   22.936093 H          1 MOL1         0.1009
       9    H6      21.052182   21.165666   24.259916 H          1 MOL1         0.1009
      10    H7      20.932746   21.898538   22.653602 H          1 MOL1         0.1009
      11    C3      20.180197   18.612668   23.575337 C.3        1 MOL1        -0.1392
      12    H8      21.007819   18.041511   23.134434 H          1 MOL1         0.0998
      13    H9      20.492357   18.848837   24.601429 H          1 MOL1         0.0998
      14    C4      18.912320   17.724490   23.676511 C.3        1 MOL1        -0.1302
      15    H10     18.103126   18.288235   24.161724 H          1 MOL1         0.0998
      16    H11     19.137212   16.882158   24.345784 H          1 MOL1         0.0998
      17    C5      18.409120   17.155186   22.330447 C.3        1 MOL1        -0.2317
      18    H12     17.645262   16.386470   22.506184 H          1 MOL1         0.1009
      19    H13     19.225423   16.688419   21.763795 H          1 MOL1         0.1009
      20    H14     17.943872   17.931249   21.711811 H          1 MOL1         0.1009
@<TRIPOS>BOND
    1     1     2    1
    2     1     3    1
    3     1     4    1
    4     1     5    1
    5     5     6    1
    6     5     7    1
    7     7     8    1
    8     7     9    1
    9     7    10    1
   10     5    11    1
   11    11    12    1
   12    11    13    1
   13    11    14    1
   14    14    15    1
   15    14    16    1
   16    14    17    1
   17    17    18    1
   18    17    19    1
   19    17    20    1
@<TRIPOS>SUBSTRUCTURE
       1 MOL1            1 RESIDUE      1      MOL     
@<SCITEGIC>MOL_PROPERTY
VConf Rank
SciTegic.value.IntegerValue
664

@<SCITEGIC>MOL_PROPERTY
Conf_Id
SciTegic.value.IntegerValue
54

@<SCITEGIC>MOL_PROPERTY
Delta U+W
SciTegic.value.DoubleValue
2.752

@<SCITEGIC>MOL_PROPERTY
U+W
SciTegic.value.DoubleValue
-33.525

@<SCITEGIC>MOL_PROPERTY
Grad RMS
SciTegic.value.DoubleValue
0.000000

@<SCITEGIC>MOL_PROPERTY
U
SciTegic.value.DoubleValue
24.337

@<SCITEGIC>MOL_PROPERTY
W
SciTegic.value.DoubleValue
-57.862

@<SCITEGIC>MOL_PROPERTY
W(PB)
SciTegic.value.DoubleValue
-59.764

@<SCITEGIC>MOL_PROPERTY
W(SA)
SciTegic.value.DoubleValue
1.901

@<SCITEGIC>MOL_PROPERTY
Valence
SciTegic.value.DoubleValue
3.593

@<SCITEGIC>MOL_PROPERTY
Coulomb
SciTegic.value.DoubleValue
20.067

@<SCITEGIC>MOL_PROPERTY
VdW
SciTegic.value.DoubleValue
0.677

@<SCITEGIC>MOL_PROPERTY
VdW6
SciTegic.value.DoubleValue
-5.466

@<SCITEGIC>MOL_PROPERTY
VdW12
SciTegic.value.DoubleValue
6.144

@<SCITEGIC>MOL_PROPERTY
Bond
SciTegic.value.DoubleValue
0.191

@<SCITEGIC>MOL_PROPERTY
Angle
SciTegic.value.DoubleValue
1.557

@<SCITEGIC>MOL_PROPERTY
Pdih
SciTegic.value.DoubleValue
1.845

@<SCITEGIC>MOL_PROPERTY
Idih
SciTegic.value.DoubleValue
0.000

@<SCITEGIC>MOL_PROPERTY
Tether
SciTegic.value.DoubleValue
0.000

@<TRIPOS>MOLECULE
guest-s10_confgen4.mol2 : confsearch ligand conformer 665
          20          19           1
SMALL
USER_CHARGES
 
@<TRIPOS>ATOM
       1    N1      18.543136   18.063271   24.111033 N.4        1 MOL1        -0.5937
       2    H1      18.231832   17.165198   24.490783 H          1 MOL1         0.3684
       3    H2      17.773856   18.727447   24.232646 H          1 MOL1         0.3684
       4    H3      19.322054   18.385833   24.689557 H          1 MOL1         0.3684
       5    C1      18.944940   17.940660   22.666247 C.3        1 MOL1         0.1270
       6    H4      18.059495   17.576568   22.135732 H          1 MOL1         0.0960
       7    C2      20.056182   16.890711   22.488508 C.3        1 MOL1        -0.2382
       8    H5      20.347487   16.805597   21.434293 H          1 MOL1         0.1009
       9    H6      19.707559   15.904021   22.817125 H          1 MOL1         0.1009
      10    H7      20.949249   17.141485   23.072962 H          1 MOL1         0.1009
      11    C3      19.326174   19.303213   22.039221 C.3        1 MOL1        -0.1392
      12    H8      19.519796   19.157011   20.968300 H          1 MOL1         0.0998
      13    H9      18.455043   19.968734   22.099387 H          1 MOL1         0.0998
      14    C4      20.547272   20.004028   22.688928 C.3        1 MOL1        -0.1302
      15    H10     21.442228   19.374893   22.592715 H          1 MOL1         0.0998
      16    H11     20.373664   20.149523   23.763569 H          1 MOL1         0.0998
      17    C5      20.828056   21.374029   22.035027 C.3        1 MOL1        -0.2317
      18    H12     21.695615   21.856742   22.503425 H          1 MOL1         0.1009
      19    H13     19.968506   22.048117   22.144564 H          1 MOL1         0.1009
      20    H14     21.041932   21.264222   20.963849 H          1 MOL1         0.1009
@<TRIPOS>BOND
    1     1     2    1
    2     1     3    1
    3     1     4    1
    4     1     5    1
    5     5     6    1
    6     5     7    1
    7     7     8    1
    8     7     9    1
    9     7    10    1
   10     5    11    1
   11    11    12    1
   12    11    13    1
   13    11    14    1
   14    14    15    1
   15    14    16    1
   16    14    17    1
   17    17    18    1
   18    17    19    1
   19    17    20    1
@<TRIPOS>SUBSTRUCTURE
       1 MOL1            1 RESIDUE      1      MOL     
@<SCITEGIC>MOL_PROPERTY
VConf Rank
SciTegic.value.IntegerValue
665

@<SCITEGIC>MOL_PROPERTY
Conf_Id
SciTegic.value.IntegerValue
63

@<SCITEGIC>MOL_PROPERTY
Delta U+W
SciTegic.value.DoubleValue
0.420

@<SCITEGIC>MOL_PROPERTY
U+W
SciTegic.value.DoubleValue
-35.856

@<SCITEGIC>MOL_PROPERTY
Grad RMS
SciTegic.value.DoubleValue
0.000000

@<SCITEGIC>MOL_PROPERTY
U
SciTegic.value.DoubleValue
22.625

@<SCITEGIC>MOL_PROPERTY
W
SciTegic.value.DoubleValue
-58.481

@<SCITEGIC>MOL_PROPERTY
W(PB)
SciTegic.value.DoubleValue
-60.400

@<SCITEGIC>MOL_PROPERTY
W(SA)
SciTegic.value.DoubleValue
1.919

@<SCITEGIC>MOL_PROPERTY
Valence
SciTegic.value.DoubleValue
2.404

@<SCITEGIC>MOL_PROPERTY
Coulomb
SciTegic.value.DoubleValue
19.464

@<SCITEGIC>MOL_PROPERTY
VdW
SciTegic.value.DoubleValue
0.757

@<SCITEGIC>MOL_PROPERTY
VdW6
SciTegic.value.DoubleValue
-5.074

@<SCITEGIC>MOL_PROPERTY
VdW12
SciTegic.value.DoubleValue
5.830

@<SCITEGIC>MOL_PROPERTY
Bond
SciTegic.value.DoubleValue
0.172

@<SCITEGIC>MOL_PROPERTY
Angle
SciTegic.value.DoubleValue
1.207

@<SCITEGIC>MOL_PROPERTY
Pdih
SciTegic.value.DoubleValue
1.025

@<SCITEGIC>MOL_PROPERTY
Idih
SciTegic.value.DoubleValue
0.000

@<SCITEGIC>MOL_PROPERTY
Tether
SciTegic.value.DoubleValue
0.000

@<TRIPOS>MOLECULE
guest-s10_confgen4.mol2 : confsearch ligand conformer 666
          20          19           1
SMALL
USER_CHARGES
 
@<TRIPOS>ATOM
       1    N1      18.718584   19.600899   21.411590 N.4        1 MOL1        -0.5937
       2    H1      18.476847   18.619456   21.252822 H          1 MOL1         0.3684
       3    H2      19.326939   19.896355   20.644106 H          1 MOL1         0.3684
       4    H3      17.853673   20.143796   21.342789 H          1 MOL1         0.3684
       5    C1      19.384751   19.790753   22.747388 C.3        1 MOL1         0.1270
       6    H4      18.670563   19.455920   23.505643 H          1 MOL1         0.0960
       7    C2      19.685945   21.277415   22.997642 C.3        1 MOL1        -0.2382
       8    H5      18.768103   21.875089   22.937729 H          1 MOL1         0.1009
       9    H6      20.397281   21.668741   22.259659 H          1 MOL1         0.1009
      10    H7      20.114263   21.425464   23.996766 H          1 MOL1         0.1009
      11    C3      20.673311   18.949207   22.890206 C.3        1 MOL1        -0.1392
      12    H8      21.409992   19.282005   22.146983 H          1 MOL1         0.0998
      13    H9      21.120553   19.144904   23.873875 H          1 MOL1         0.0998
      14    C4      20.454787   17.422379   22.738741 C.3        1 MOL1        -0.1302
      15    H10     21.423126   16.914832   22.851077 H          1 MOL1         0.0998
      16    H11     20.107069   17.187043   21.723717 H          1 MOL1         0.0998
      17    C5      19.464235   16.846208   23.776142 C.3        1 MOL1        -0.2317
      18    H12     19.791359   17.069162   24.800086 H          1 MOL1         0.1009
      19    H13     19.395376   15.755084   23.677278 H          1 MOL1         0.1009
      20    H14     18.454601   17.254422   23.642360 H          1 MOL1         0.1009
@<TRIPOS>BOND
    1     1     2    1
    2     1     3    1
    3     1     4    1
    4     1     5    1
    5     5     6    1
    6     5     7    1
    7     7     8    1
    8     7     9    1
    9     7    10    1
   10     5    11    1
   11    11    12    1
   12    11    13    1
   13    11    14    1
   14    14    15    1
   15    14    16    1
   16    14    17    1
   17    17    18    1
   18    17    19    1
   19    17    20    1
@<TRIPOS>SUBSTRUCTURE
       1 MOL1            1 RESIDUE      1      MOL     
@<SCITEGIC>MOL_PROPERTY
VConf Rank
SciTegic.value.IntegerValue
666

@<SCITEGIC>MOL_PROPERTY
Conf_Id
SciTegic.value.IntegerValue
50

@<SCITEGIC>MOL_PROPERTY
Delta U+W
SciTegic.value.DoubleValue
0.466

@<SCITEGIC>MOL_PROPERTY
U+W
SciTegic.value.DoubleValue
-35.811

@<SCITEGIC>MOL_PROPERTY
Grad RMS
SciTegic.value.DoubleValue
0.000000

@<SCITEGIC>MOL_PROPERTY
U
SciTegic.value.DoubleValue
22.369

@<SCITEGIC>MOL_PROPERTY
W
SciTegic.value.DoubleValue
-58.180

@<SCITEGIC>MOL_PROPERTY
W(PB)
SciTegic.value.DoubleValue
-60.103

@<SCITEGIC>MOL_PROPERTY
W(SA)
SciTegic.value.DoubleValue
1.923

@<SCITEGIC>MOL_PROPERTY
Valence
SciTegic.value.DoubleValue
2.168

@<SCITEGIC>MOL_PROPERTY
Coulomb
SciTegic.value.DoubleValue
19.636

@<SCITEGIC>MOL_PROPERTY
VdW
SciTegic.value.DoubleValue
0.566

@<SCITEGIC>MOL_PROPERTY
VdW6
SciTegic.value.DoubleValue
-5.263

@<SCITEGIC>MOL_PROPERTY
VdW12
SciTegic.value.DoubleValue
5.829

@<SCITEGIC>MOL_PROPERTY
Bond
SciTegic.value.DoubleValue
0.162

@<SCITEGIC>MOL_PROPERTY
Angle
SciTegic.value.DoubleValue
1.066

@<SCITEGIC>MOL_PROPERTY
Pdih
SciTegic.value.DoubleValue
0.939

@<SCITEGIC>MOL_PROPERTY
Idih
SciTegic.value.DoubleValue
0.000

@<SCITEGIC>MOL_PROPERTY
Tether
SciTegic.value.DoubleValue
0.000

@<TRIPOS>MOLECULE
guest-s10_confgen4.mol2 : confsearch ligand conformer 667
          20          19           1
SMALL
USER_CHARGES
 
@<TRIPOS>ATOM
       1    N1      19.578402   20.611332   21.221526 N.4        1 MOL1        -0.5937
       2    H1      20.491840   21.070316   21.275942 H          1 MOL1         0.3684
       3    H2      18.880756   21.273114   21.571106 H          1 MOL1         0.3684
       4    H3      19.378111   20.453527   20.230205 H          1 MOL1         0.3684
       5    C1      19.557227   19.323325   21.999452 C.3        1 MOL1         0.1270
       6    H4      20.331689   18.688206   21.558325 H          1 MOL1         0.0960
       7    C2      18.193288   18.628255   21.830593 C.3        1 MOL1        -0.2382
       8    H5      17.380012   19.254239   22.218397 H          1 MOL1         0.1009
       9    H6      18.161259   17.669746   22.359765 H          1 MOL1         0.1009
      10    H7      17.990547   18.427618   20.771457 H          1 MOL1         0.1009
      11    C3      19.907028   19.543475   23.491901 C.3        1 MOL1        -0.1392
      12    H8      20.388546   20.523512   23.607403 H          1 MOL1         0.0998
      13    H9      18.992099   19.590746   24.097445 H          1 MOL1         0.0998
      14    C4      20.876053   18.482443   24.072405 C.3        1 MOL1        -0.1302
      15    H10     21.126144   18.763479   25.105074 H          1 MOL1         0.0998
      16    H11     21.821945   18.503739   23.513018 H          1 MOL1         0.0998
      17    C5      20.312678   17.044096   24.071643 C.3        1 MOL1        -0.2317
      18    H12     19.344680   16.997259   24.587214 H          1 MOL1         0.1009
      19    H13     21.000498   16.362762   24.589069 H          1 MOL1         0.1009
      20    H14     20.182876   16.664856   23.050389 H          1 MOL1         0.1009
@<TRIPOS>BOND
    1     1     2    1
    2     1     3    1
    3     1     4    1
    4     1     5    1
    5     5     6    1
    6     5     7    1
    7     7     8    1
    8     7     9    1
    9     7    10    1
   10     5    11    1
   11    11    12    1
   12    11    13    1
   13    11    14    1
   14    14    15    1
   15    14    16    1
   16    14    17    1
   17    17    18    1
   18    17    19    1
   19    17    20    1
@<TRIPOS>SUBSTRUCTURE
       1 MOL1            1 RESIDUE      1      MOL     
@<SCITEGIC>MOL_PROPERTY
VConf Rank
SciTegic.value.IntegerValue
667

@<SCITEGIC>MOL_PROPERTY
Conf_Id
SciTegic.value.IntegerValue
3

@<SCITEGIC>MOL_PROPERTY
Delta U+W
SciTegic.value.DoubleValue
3.093

@<SCITEGIC>MOL_PROPERTY
U+W
SciTegic.value.DoubleValue
-33.184

@<SCITEGIC>MOL_PROPERTY
Grad RMS
SciTegic.value.DoubleValue
0.000000

@<SCITEGIC>MOL_PROPERTY
U
SciTegic.value.DoubleValue
25.256

@<SCITEGIC>MOL_PROPERTY
W
SciTegic.value.DoubleValue
-58.439

@<SCITEGIC>MOL_PROPERTY
W(PB)
SciTegic.value.DoubleValue
-60.337

@<SCITEGIC>MOL_PROPERTY
W(SA)
SciTegic.value.DoubleValue
1.898

@<SCITEGIC>MOL_PROPERTY
Valence
SciTegic.value.DoubleValue
4.963

@<SCITEGIC>MOL_PROPERTY
Coulomb
SciTegic.value.DoubleValue
19.511

@<SCITEGIC>MOL_PROPERTY
VdW
SciTegic.value.DoubleValue
0.782

@<SCITEGIC>MOL_PROPERTY
VdW6
SciTegic.value.DoubleValue
-5.429

@<SCITEGIC>MOL_PROPERTY
VdW12
SciTegic.value.DoubleValue
6.211

@<SCITEGIC>MOL_PROPERTY
Bond
SciTegic.value.DoubleValue
0.174

@<SCITEGIC>MOL_PROPERTY
Angle
SciTegic.value.DoubleValue
1.377

@<SCITEGIC>MOL_PROPERTY
Pdih
SciTegic.value.DoubleValue
3.412

@<SCITEGIC>MOL_PROPERTY
Idih
SciTegic.value.DoubleValue
0.000

@<SCITEGIC>MOL_PROPERTY
Tether
SciTegic.value.DoubleValue
0.000

@<TRIPOS>MOLECULE
guest-s10_confgen4.mol2 : confsearch ligand conformer 668
          20          19           1
SMALL
USER_CHARGES
 
@<TRIPOS>ATOM
       1    N1      18.791098   20.918043   22.056864 N.4        1 MOL1        -0.5937
       2    H1      19.036728   21.351927   21.162970 H          1 MOL1         0.3684
       3    H2      19.059294   21.574286   22.795272 H          1 MOL1         0.3684
       4    H3      17.772215   20.828861   22.081555 H          1 MOL1         0.3684
       5    C1      19.466764   19.584944   22.226283 C.3        1 MOL1         0.1270
       6    H4      20.542681   19.778876   22.182813 H          1 MOL1         0.0960
       7    C2      19.094948   18.644767   21.065283 C.3        1 MOL1        -0.2382
       8    H5      19.684767   17.721374   21.096815 H          1 MOL1         0.1009
       9    H6      19.295308   19.124784   20.099584 H          1 MOL1         0.1009
      10    H7      18.032021   18.375236   21.097346 H          1 MOL1         0.1009
      11    C3      19.140371   18.962903   23.605037 C.3        1 MOL1        -0.1392
      12    H8      19.350478   19.706876   24.384707 H          1 MOL1         0.0998
      13    H9      18.063690   18.755624   23.664452 H          1 MOL1         0.0998
      14    C4      19.924403   17.668790   23.942184 C.3        1 MOL1        -0.1302
      15    H10     19.636091   16.858874   23.258674 H          1 MOL1         0.0998
      16    H11     19.631919   17.331847   24.946555 H          1 MOL1         0.0998
      17    C5      21.457491   17.862361   23.905822 C.3        1 MOL1        -0.2317
      18    H12     21.769714   18.670201   24.580410 H          1 MOL1         0.1009
      19    H13     21.809662   18.103523   22.894941 H          1 MOL1         0.1009
      20    H14     21.968666   16.944368   24.223635 H          1 MOL1         0.1009
@<TRIPOS>BOND
    1     1     2    1
    2     1     3    1
    3     1     4    1
    4     1     5    1
    5     5     6    1
    6     5     7    1
    7     7     8    1
    8     7     9    1
    9     7    10    1
   10     5    11    1
   11    11    12    1
   12    11    13    1
   13    11    14    1
   14    14    15    1
   15    14    16    1
   16    14    17    1
   17    17    18    1
   18    17    19    1
   19    17    20    1
@<TRIPOS>SUBSTRUCTURE
       1 MOL1            1 RESIDUE      1      MOL     
@<SCITEGIC>MOL_PROPERTY
VConf Rank
SciTegic.value.IntegerValue
668

@<SCITEGIC>MOL_PROPERTY
Conf_Id
SciTegic.value.IntegerValue
64

@<SCITEGIC>MOL_PROPERTY
Delta U+W
SciTegic.value.DoubleValue
0.544

@<SCITEGIC>MOL_PROPERTY
U+W
SciTegic.value.DoubleValue
-35.732

@<SCITEGIC>MOL_PROPERTY
Grad RMS
SciTegic.value.DoubleValue
0.000000

@<SCITEGIC>MOL_PROPERTY
U
SciTegic.value.DoubleValue
22.800

@<SCITEGIC>MOL_PROPERTY
W
SciTegic.value.DoubleValue
-58.532

@<SCITEGIC>MOL_PROPERTY
W(PB)
SciTegic.value.DoubleValue
-60.437

@<SCITEGIC>MOL_PROPERTY
W(SA)
SciTegic.value.DoubleValue
1.905

@<SCITEGIC>MOL_PROPERTY
Valence
SciTegic.value.DoubleValue
2.662

@<SCITEGIC>MOL_PROPERTY
Coulomb
SciTegic.value.DoubleValue
19.485

@<SCITEGIC>MOL_PROPERTY
VdW
SciTegic.value.DoubleValue
0.653

@<SCITEGIC>MOL_PROPERTY
VdW6
SciTegic.value.DoubleValue
-5.460

@<SCITEGIC>MOL_PROPERTY
VdW12
SciTegic.value.DoubleValue
6.113

@<SCITEGIC>MOL_PROPERTY
Bond
SciTegic.value.DoubleValue
0.174

@<SCITEGIC>MOL_PROPERTY
Angle
SciTegic.value.DoubleValue
1.378

@<SCITEGIC>MOL_PROPERTY
Pdih
SciTegic.value.DoubleValue
1.109

@<SCITEGIC>MOL_PROPERTY
Idih
SciTegic.value.DoubleValue
0.000

@<SCITEGIC>MOL_PROPERTY
Tether
SciTegic.value.DoubleValue
0.000

@<TRIPOS>MOLECULE
guest-s10_confgen4.mol2 : confsearch ligand conformer 669
          20          19           1
SMALL
USER_CHARGES
 
@<TRIPOS>ATOM
       1    N1      18.437691   17.798174   23.877027 N.4        1 MOL1        -0.5937
       2    H1      17.858668   18.591975   23.594385 H          1 MOL1         0.3684
       3    H2      18.311261   17.671129   24.884741 H          1 MOL1         0.3684
       4    H3      18.062253   16.964663   23.416630 H          1 MOL1         0.3684
       5    C1      19.884650   18.019471   23.527500 C.3        1 MOL1         0.1270
       6    H4      20.416462   17.129059   23.877222 H          1 MOL1         0.0960
       7    C2      20.455129   19.224974   24.292380 C.3        1 MOL1        -0.2382
       8    H5      19.879334   20.136194   24.092763 H          1 MOL1         0.1009
       9    H6      21.501212   19.404472   24.015201 H          1 MOL1         0.1009
      10    H7      20.424354   19.041805   25.373340 H          1 MOL1         0.1009
      11    C3      20.114250   18.110713   21.997828 C.3        1 MOL1        -0.1392
      12    H8      21.192205   18.095477   21.789797 H          1 MOL1         0.0998
      13    H9      19.721939   17.187346   21.551771 H          1 MOL1         0.0998
      14    C4      19.455261   19.318463   21.275124 C.3        1 MOL1        -0.1302
      15    H10     18.526315   19.617018   21.778417 H          1 MOL1         0.0998
      16    H11     19.159071   18.998317   20.266283 H          1 MOL1         0.0998
      17    C5      20.395523   20.537652   21.126021 C.3        1 MOL1        -0.2317
      18    H12     20.701274   20.945325   22.095710 H          1 MOL1         0.1009
      19    H13     19.894575   21.342444   20.572554 H          1 MOL1         0.1009
      20    H14     21.303188   20.268273   20.570484 H          1 MOL1         0.1009
@<TRIPOS>BOND
    1     1     2    1
    2     1     3    1
    3     1     4    1
    4     1     5    1
    5     5     6    1
    6     5     7    1
    7     7     8    1
    8     7     9    1
    9     7    10    1
   10     5    11    1
   11    11    12    1
   12    11    13    1
   13    11    14    1
   14    14    15    1
   15    14    16    1
   16    14    17    1
   17    17    18    1
   18    17    19    1
   19    17    20    1
@<TRIPOS>SUBSTRUCTURE
       1 MOL1            1 RESIDUE      1      MOL     
@<SCITEGIC>MOL_PROPERTY
VConf Rank
SciTegic.value.IntegerValue
669

@<SCITEGIC>MOL_PROPERTY
Conf_Id
SciTegic.value.IntegerValue
35

@<SCITEGIC>MOL_PROPERTY
Delta U+W
SciTegic.value.DoubleValue
3.004

@<SCITEGIC>MOL_PROPERTY
U+W
SciTegic.value.DoubleValue
-33.272

@<SCITEGIC>MOL_PROPERTY
Grad RMS
SciTegic.value.DoubleValue
0.000000

@<SCITEGIC>MOL_PROPERTY
U
SciTegic.value.DoubleValue
25.367

@<SCITEGIC>MOL_PROPERTY
W
SciTegic.value.DoubleValue
-58.639

@<SCITEGIC>MOL_PROPERTY
W(PB)
SciTegic.value.DoubleValue
-60.512

@<SCITEGIC>MOL_PROPERTY
W(SA)
SciTegic.value.DoubleValue
1.873

@<SCITEGIC>MOL_PROPERTY
Valence
SciTegic.value.DoubleValue
4.943

@<SCITEGIC>MOL_PROPERTY
Coulomb
SciTegic.value.DoubleValue
19.661

@<SCITEGIC>MOL_PROPERTY
VdW
SciTegic.value.DoubleValue
0.764

@<SCITEGIC>MOL_PROPERTY
VdW6
SciTegic.value.DoubleValue
-5.871

@<SCITEGIC>MOL_PROPERTY
VdW12
SciTegic.value.DoubleValue
6.636

@<SCITEGIC>MOL_PROPERTY
Bond
SciTegic.value.DoubleValue
0.230

@<SCITEGIC>MOL_PROPERTY
Angle
SciTegic.value.DoubleValue
1.857

@<SCITEGIC>MOL_PROPERTY
Pdih
SciTegic.value.DoubleValue
2.855

@<SCITEGIC>MOL_PROPERTY
Idih
SciTegic.value.DoubleValue
0.000

@<SCITEGIC>MOL_PROPERTY
Tether
SciTegic.value.DoubleValue
0.000

@<TRIPOS>MOLECULE
guest-s10_confgen4.mol2 : confsearch ligand conformer 670
          20          19           1
SMALL
USER_CHARGES
 
@<TRIPOS>ATOM
       1    N1      19.529474   20.154549   24.000844 N.4        1 MOL1        -0.5937
       2    H1      19.443123   21.168861   24.107221 H          1 MOL1         0.3684
       3    H2      19.721462   19.766273   24.928186 H          1 MOL1         0.3684
       4    H3      18.620924   19.795816   23.701104 H          1 MOL1         0.3684
       5    C1      20.608959   19.792537   23.017928 C.3        1 MOL1         0.1270
       6    H4      21.533535   20.196615   23.441965 H          1 MOL1         0.0960
       7    C2      20.387259   20.483453   21.660727 C.3        1 MOL1        -0.2382
       8    H5      19.427688   20.198428   21.213202 H          1 MOL1         0.1009
       9    H6      21.186822   20.222636   20.956388 H          1 MOL1         0.1009
      10    H7      20.391264   21.573803   21.779421 H          1 MOL1         0.1009
      11    C3      20.812456   18.262280   22.875752 C.3        1 MOL1        -0.1392
      12    H8      21.791259   18.099512   22.405654 H          1 MOL1         0.0998
      13    H9      20.893932   17.819988   23.877230 H          1 MOL1         0.0998
      14    C4      19.753950   17.475632   22.052741 C.3        1 MOL1        -0.1302
      15    H10     20.069136   16.423561   22.012399 H          1 MOL1         0.0998
      16    H11     19.748280   17.821263   21.010082 H          1 MOL1         0.0998
      17    C5      18.319709   17.530216   22.626237 C.3        1 MOL1        -0.2317
      18    H12     18.307172   17.271691   23.693077 H          1 MOL1         0.1009
      19    H13     17.673938   16.813096   22.102893 H          1 MOL1         0.1009
      20    H14     17.870268   18.521333   22.496020 H          1 MOL1         0.1009
@<TRIPOS>BOND
    1     1     2    1
    2     1     3    1
    3     1     4    1
    4     1     5    1
    5     5     6    1
    6     5     7    1
    7     7     8    1
    8     7     9    1
    9     7    10    1
   10     5    11    1
   11    11    12    1
   12    11    13    1
   13    11    14    1
   14    14    15    1
   15    14    16    1
   16    14    17    1
   17    17    18    1
   18    17    19    1
   19    17    20    1
@<TRIPOS>SUBSTRUCTURE
       1 MOL1            1 RESIDUE      1      MOL     
@<SCITEGIC>MOL_PROPERTY
VConf Rank
SciTegic.value.IntegerValue
670

@<SCITEGIC>MOL_PROPERTY
Conf_Id
SciTegic.value.IntegerValue
55

@<SCITEGIC>MOL_PROPERTY
Delta U+W
SciTegic.value.DoubleValue
2.767

@<SCITEGIC>MOL_PROPERTY
U+W
SciTegic.value.DoubleValue
-33.509

@<SCITEGIC>MOL_PROPERTY
Grad RMS
SciTegic.value.DoubleValue
0.000000

@<SCITEGIC>MOL_PROPERTY
U
SciTegic.value.DoubleValue
24.552

@<SCITEGIC>MOL_PROPERTY
W
SciTegic.value.DoubleValue
-58.061

@<SCITEGIC>MOL_PROPERTY
W(PB)
SciTegic.value.DoubleValue
-59.930

@<SCITEGIC>MOL_PROPERTY
W(SA)
SciTegic.value.DoubleValue
1.869

@<SCITEGIC>MOL_PROPERTY
Valence
SciTegic.value.DoubleValue
3.726

@<SCITEGIC>MOL_PROPERTY
Coulomb
SciTegic.value.DoubleValue
20.219

@<SCITEGIC>MOL_PROPERTY
VdW
SciTegic.value.DoubleValue
0.606

@<SCITEGIC>MOL_PROPERTY
VdW6
SciTegic.value.DoubleValue
-6.395

@<SCITEGIC>MOL_PROPERTY
VdW12
SciTegic.value.DoubleValue
7.001

@<SCITEGIC>MOL_PROPERTY
Bond
SciTegic.value.DoubleValue
0.241

@<SCITEGIC>MOL_PROPERTY
Angle
SciTegic.value.DoubleValue
2.098

@<SCITEGIC>MOL_PROPERTY
Pdih
SciTegic.value.DoubleValue
1.387

@<SCITEGIC>MOL_PROPERTY
Idih
SciTegic.value.DoubleValue
0.000

@<SCITEGIC>MOL_PROPERTY
Tether
SciTegic.value.DoubleValue
0.000

@<TRIPOS>MOLECULE
guest-s10_confgen4.mol2 : confsearch ligand conformer 671
          20          19           1
SMALL
USER_CHARGES
 
@<TRIPOS>ATOM
       1    N1      18.263366   19.655429   21.622759 N.4        1 MOL1        -0.5937
       2    H1      18.256870   18.914381   20.917528 H          1 MOL1         0.3684
       3    H2      17.853147   20.489036   21.193251 H          1 MOL1         0.3684
       4    H3      17.639111   19.365350   22.379556 H          1 MOL1         0.3684
       5    C1      19.655535   19.924239   22.127405 C.3        1 MOL1         0.1270
       6    H4      19.571549   20.719932   22.874203 H          1 MOL1         0.0960
       7    C2      20.555482   20.427841   20.987032 C.3        1 MOL1        -0.2382
       8    H5      20.130303   21.327217   20.524851 H          1 MOL1         0.1009
       9    H6      20.672489   19.665386   20.206799 H          1 MOL1         0.1009
      10    H7      21.552920   20.687626   21.362889 H          1 MOL1         0.1009
      11    C3      20.289365   18.689982   22.806387 C.3        1 MOL1        -0.1392
      12    H8      20.363396   17.867170   22.082912 H          1 MOL1         0.0998
      13    H9      21.316944   18.938162   23.103970 H          1 MOL1         0.0998
      14    C4      19.508216   18.218557   24.056621 C.3        1 MOL1        -0.1302
      15    H10     18.492064   17.910378   23.775753 H          1 MOL1         0.0998
      16    H11     19.403638   19.053059   24.764372 H          1 MOL1         0.0998
      17    C5      20.214427   17.038781   24.758546 C.3        1 MOL1        -0.2317
      18    H12     20.306993   16.176706   24.085112 H          1 MOL1         0.1009
      19    H13     19.646720   16.716747   25.641206 H          1 MOL1         0.1009
      20    H14     21.221472   17.321947   25.091575 H          1 MOL1         0.1009
@<TRIPOS>BOND
    1     1     2    1
    2     1     3    1
    3     1     4    1
    4     1     5    1
    5     5     6    1
    6     5     7    1
    7     7     8    1
    8     7     9    1
    9     7    10    1
   10     5    11    1
   11    11    12    1
   12    11    13    1
   13    11    14    1
   14    14    15    1
   15    14    16    1
   16    14    17    1
   17    17    18    1
   18    17    19    1
   19    17    20    1
@<TRIPOS>SUBSTRUCTURE
       1 MOL1            1 RESIDUE      1      MOL     
@<SCITEGIC>MOL_PROPERTY
VConf Rank
SciTegic.value.IntegerValue
671

@<SCITEGIC>MOL_PROPERTY
Conf_Id
SciTegic.value.IntegerValue
74

@<SCITEGIC>MOL_PROPERTY
Delta U+W
SciTegic.value.DoubleValue
0.000

@<SCITEGIC>MOL_PROPERTY
U+W
SciTegic.value.DoubleValue
-36.276

@<SCITEGIC>MOL_PROPERTY
Grad RMS
SciTegic.value.DoubleValue
0.000000

@<SCITEGIC>MOL_PROPERTY
U
SciTegic.value.DoubleValue
22.080

@<SCITEGIC>MOL_PROPERTY
W
SciTegic.value.DoubleValue
-58.356

@<SCITEGIC>MOL_PROPERTY
W(PB)
SciTegic.value.DoubleValue
-60.289

@<SCITEGIC>MOL_PROPERTY
W(SA)
SciTegic.value.DoubleValue
1.932

@<SCITEGIC>MOL_PROPERTY
Valence
SciTegic.value.DoubleValue
1.885

@<SCITEGIC>MOL_PROPERTY
Coulomb
SciTegic.value.DoubleValue
19.559

@<SCITEGIC>MOL_PROPERTY
VdW
SciTegic.value.DoubleValue
0.637

@<SCITEGIC>MOL_PROPERTY
VdW6
SciTegic.value.DoubleValue
-4.482

@<SCITEGIC>MOL_PROPERTY
VdW12
SciTegic.value.DoubleValue
5.119

@<SCITEGIC>MOL_PROPERTY
Bond
SciTegic.value.DoubleValue
0.136

@<SCITEGIC>MOL_PROPERTY
Angle
SciTegic.value.DoubleValue
0.867

@<SCITEGIC>MOL_PROPERTY
Pdih
SciTegic.value.DoubleValue
0.882

@<SCITEGIC>MOL_PROPERTY
Idih
SciTegic.value.DoubleValue
0.000

@<SCITEGIC>MOL_PROPERTY
Tether
SciTegic.value.DoubleValue
0.000

@<TRIPOS>MOLECULE
guest-s10_confgen4.mol2 : confsearch ligand conformer 672
          20          19           1
SMALL
USER_CHARGES
 
@<TRIPOS>ATOM
       1    N1      21.967479   18.333487   22.091155 N.4        1 MOL1        -0.5937
       2    H1      22.101671   18.889876   21.242461 H          1 MOL1         0.3684
       3    H2      21.780131   17.370789   21.799885 H          1 MOL1         0.3684
       4    H3      22.858618   18.330914   22.594686 H          1 MOL1         0.3684
       5    C1      20.854870   18.879543   22.943441 C.3        1 MOL1         0.1270
       6    H4      21.142068   19.902292   23.206816 H          1 MOL1         0.0960
       7    C2      20.725841   18.061362   24.241414 C.3        1 MOL1        -0.2382
       8    H5      21.693902   17.992699   24.752653 H          1 MOL1         0.1009
       9    H6      20.377405   17.041721   24.035253 H          1 MOL1         0.1009
      10    H7      20.023877   18.529887   24.940667 H          1 MOL1         0.1009
      11    C3      19.524834   18.938299   22.156648 C.3        1 MOL1        -0.1392
      12    H8      19.710685   19.438694   21.197103 H          1 MOL1         0.0998
      13    H9      19.192057   17.919793   21.916326 H          1 MOL1         0.0998
      14    C4      18.394324   19.695939   22.894950 C.3        1 MOL1        -0.1302
      15    H10     18.748632   20.693264   23.191395 H          1 MOL1         0.0998
      16    H11     18.120857   19.167520   23.817928 H          1 MOL1         0.0998
      17    C5      17.135650   19.841636   22.012797 C.3        1 MOL1        -0.2317
      18    H12     17.357332   20.404182   21.096479 H          1 MOL1         0.1009
      19    H13     16.343836   20.377209   22.552500 H          1 MOL1         0.1009
      20    H14     16.740388   18.859133   21.723461 H          1 MOL1         0.1009
@<TRIPOS>BOND
    1     1     2    1
    2     1     3    1
    3     1     4    1
    4     1     5    1
    5     5     6    1
    6     5     7    1
    7     7     8    1
    8     7     9    1
    9     7    10    1
   10     5    11    1
   11    11    12    1
   12    11    13    1
   13    11    14    1
   14    14    15    1
   15    14    16    1
   16    14    17    1
   17    17    18    1
   18    17    19    1
   19    17    20    1
@<TRIPOS>SUBSTRUCTURE
       1 MOL1            1 RESIDUE      1      MOL     
@<SCITEGIC>MOL_PROPERTY
VConf Rank
SciTegic.value.IntegerValue
672

@<SCITEGIC>MOL_PROPERTY
Conf_Id
SciTegic.value.IntegerValue
80

@<SCITEGIC>MOL_PROPERTY
Delta U+W
SciTegic.value.DoubleValue
0.460

@<SCITEGIC>MOL_PROPERTY
U+W
SciTegic.value.DoubleValue
-35.817

@<SCITEGIC>MOL_PROPERTY
Grad RMS
SciTegic.value.DoubleValue
0.000000

@<SCITEGIC>MOL_PROPERTY
U
SciTegic.value.DoubleValue
22.495

@<SCITEGIC>MOL_PROPERTY
W
SciTegic.value.DoubleValue
-58.311

@<SCITEGIC>MOL_PROPERTY
W(PB)
SciTegic.value.DoubleValue
-60.259

@<SCITEGIC>MOL_PROPERTY
W(SA)
SciTegic.value.DoubleValue
1.948

@<SCITEGIC>MOL_PROPERTY
Valence
SciTegic.value.DoubleValue
2.419

@<SCITEGIC>MOL_PROPERTY
Coulomb
SciTegic.value.DoubleValue
19.304

@<SCITEGIC>MOL_PROPERTY
VdW
SciTegic.value.DoubleValue
0.772

@<SCITEGIC>MOL_PROPERTY
VdW6
SciTegic.value.DoubleValue
-4.635

@<SCITEGIC>MOL_PROPERTY
VdW12
SciTegic.value.DoubleValue
5.407

@<SCITEGIC>MOL_PROPERTY
Bond
SciTegic.value.DoubleValue
0.149

@<SCITEGIC>MOL_PROPERTY
Angle
SciTegic.value.DoubleValue
1.142

@<SCITEGIC>MOL_PROPERTY
Pdih
SciTegic.value.DoubleValue
1.129

@<SCITEGIC>MOL_PROPERTY
Idih
SciTegic.value.DoubleValue
0.000

@<SCITEGIC>MOL_PROPERTY
Tether
SciTegic.value.DoubleValue
0.000

@<TRIPOS>MOLECULE
guest-s10_confgen4.mol2 : confsearch ligand conformer 673
          20          19           1
SMALL
USER_CHARGES
 
@<TRIPOS>ATOM
       1    N1      20.214483   20.591410   24.354039 N.4        1 MOL1        -0.5937
       2    H1      20.778735   21.344308   23.950835 H          1 MOL1         0.3684
       3    H2      20.838510   20.009170   24.918199 H          1 MOL1         0.3684
       4    H3      19.543360   21.025796   24.993193 H          1 MOL1         0.3684
       5    C1      19.519933   19.786223   23.290073 C.3        1 MOL1         0.1270
       6    H4      18.876356   20.485902   22.747802 H          1 MOL1         0.0960
       7    C2      18.624457   18.713752   23.933645 C.3        1 MOL1        -0.2382
       8    H5      17.978037   19.157869   24.700486 H          1 MOL1         0.1009
       9    H6      19.223749   17.926335   24.407224 H          1 MOL1         0.1009
      10    H7      17.967343   18.251946   23.188030 H          1 MOL1         0.1009
      11    C3      20.539703   19.195138   22.286069 C.3        1 MOL1        -0.1392
      12    H8      21.152072   20.025902   21.911198 H          1 MOL1         0.0998
      13    H9      21.235473   18.521826   22.804031 H          1 MOL1         0.0998
      14    C4      19.913224   18.479853   21.059883 C.3        1 MOL1        -0.1302
      15    H10     20.534724   18.688180   20.177582 H          1 MOL1         0.0998
      16    H11     18.923005   18.901141   20.836388 H          1 MOL1         0.0998
      17    C5      19.821027   16.944454   21.224456 C.3        1 MOL1        -0.2317
      18    H12     20.816326   16.505756   21.372918 H          1 MOL1         0.1009
      19    H13     19.387515   16.487267   20.325551 H          1 MOL1         0.1009
      20    H14     19.195803   16.656831   22.077046 H          1 MOL1         0.1009
@<TRIPOS>BOND
    1     1     2    1
    2     1     3    1
    3     1     4    1
    4     1     5    1
    5     5     6    1
    6     5     7    1
    7     7     8    1
    8     7     9    1
    9     7    10    1
   10     5    11    1
   11    11    12    1
   12    11    13    1
   13    11    14    1
   14    14    15    1
   15    14    16    1
   16    14    17    1
   17    17    18    1
   18    17    19    1
   19    17    20    1
@<TRIPOS>SUBSTRUCTURE
       1 MOL1            1 RESIDUE      1      MOL     
@<SCITEGIC>MOL_PROPERTY
VConf Rank
SciTegic.value.IntegerValue
673

@<SCITEGIC>MOL_PROPERTY
Conf_Id
SciTegic.value.IntegerValue
52

@<SCITEGIC>MOL_PROPERTY
Delta U+W
SciTegic.value.DoubleValue
2.995

@<SCITEGIC>MOL_PROPERTY
U+W
SciTegic.value.DoubleValue
-33.282

@<SCITEGIC>MOL_PROPERTY
Grad RMS
SciTegic.value.DoubleValue
0.000000

@<SCITEGIC>MOL_PROPERTY
U
SciTegic.value.DoubleValue
25.224

@<SCITEGIC>MOL_PROPERTY
W
SciTegic.value.DoubleValue
-58.506

@<SCITEGIC>MOL_PROPERTY
W(PB)
SciTegic.value.DoubleValue
-60.411

@<SCITEGIC>MOL_PROPERTY
W(SA)
SciTegic.value.DoubleValue
1.905

@<SCITEGIC>MOL_PROPERTY
Valence
SciTegic.value.DoubleValue
4.945

@<SCITEGIC>MOL_PROPERTY
Coulomb
SciTegic.value.DoubleValue
19.467

@<SCITEGIC>MOL_PROPERTY
VdW
SciTegic.value.DoubleValue
0.813

@<SCITEGIC>MOL_PROPERTY
VdW6
SciTegic.value.DoubleValue
-5.458

@<SCITEGIC>MOL_PROPERTY
VdW12
SciTegic.value.DoubleValue
6.270

@<SCITEGIC>MOL_PROPERTY
Bond
SciTegic.value.DoubleValue
0.200

@<SCITEGIC>MOL_PROPERTY
Angle
SciTegic.value.DoubleValue
1.675

@<SCITEGIC>MOL_PROPERTY
Pdih
SciTegic.value.DoubleValue
3.070

@<SCITEGIC>MOL_PROPERTY
Idih
SciTegic.value.DoubleValue
0.000

@<SCITEGIC>MOL_PROPERTY
Tether
SciTegic.value.DoubleValue
0.000

@<TRIPOS>MOLECULE
guest-s10_confgen4.mol2 : confsearch ligand conformer 674
          20          19           1
SMALL
USER_CHARGES
 
@<TRIPOS>ATOM
       1    N1      19.801124   20.623113   22.536129 N.4        1 MOL1        -0.5937
       2    H1      19.072365   20.818972   21.845530 H          1 MOL1         0.3684
       3    H2      20.452215   21.412817   22.526352 H          1 MOL1         0.3684
       4    H3      19.354020   20.602607   23.455185 H          1 MOL1         0.3684
       5    C1      20.502137   19.325207   22.240716 C.3        1 MOL1         0.1270
       6    H4      21.293735   19.209280   22.987488 H          1 MOL1         0.0960
       7    C2      21.158067   19.391321   20.851060 C.3        1 MOL1        -0.2382
       8    H5      20.404028   19.492078   20.060408 H          1 MOL1         0.1009
       9    H6      21.743768   18.485367   20.651441 H          1 MOL1         0.1009
      10    H7      21.840659   20.247394   20.783666 H          1 MOL1         0.1009
      11    C3      19.561428   18.100329   22.335467 C.3        1 MOL1        -0.1392
      12    H8      18.629632   18.300757   21.790344 H          1 MOL1         0.0998
      13    H9      20.034820   17.254724   21.818810 H          1 MOL1         0.0998
      14    C4      19.245116   17.633563   23.780695 C.3        1 MOL1        -0.1302
      15    H10     20.180370   17.389850   24.304086 H          1 MOL1         0.0998
      16    H11     18.678823   16.693510   23.720364 H          1 MOL1         0.0998
      17    C5      18.429145   18.639572   24.624107 C.3        1 MOL1        -0.2317
      18    H12     18.076591   18.161514   25.547391 H          1 MOL1         0.1009
      19    H13     17.546547   18.996251   24.077189 H          1 MOL1         0.1009
      20    H14     19.035805   19.502043   24.923348 H          1 MOL1         0.1009
@<TRIPOS>BOND
    1     1     2    1
    2     1     3    1
    3     1     4    1
    4     1     5    1
    5     5     6    1
    6     5     7    1
    7     7     8    1
    8     7     9    1
    9     7    10    1
   10     5    11    1
   11    11    12    1
   12    11    13    1
   13    11    14    1
   14    14    15    1
   15    14    16    1
   16    14    17    1
   17    17    18    1
   18    17    19    1
   19    17    20    1
@<TRIPOS>SUBSTRUCTURE
       1 MOL1            1 RESIDUE      1      MOL     
@<SCITEGIC>MOL_PROPERTY
VConf Rank
SciTegic.value.IntegerValue
674

@<SCITEGIC>MOL_PROPERTY
Conf_Id
SciTegic.value.IntegerValue
54

@<SCITEGIC>MOL_PROPERTY
Delta U+W
SciTegic.value.DoubleValue
2.752

@<SCITEGIC>MOL_PROPERTY
U+W
SciTegic.value.DoubleValue
-33.525

@<SCITEGIC>MOL_PROPERTY
Grad RMS
SciTegic.value.DoubleValue
0.000000

@<SCITEGIC>MOL_PROPERTY
U
SciTegic.value.DoubleValue
24.337

@<SCITEGIC>MOL_PROPERTY
W
SciTegic.value.DoubleValue
-57.862

@<SCITEGIC>MOL_PROPERTY
W(PB)
SciTegic.value.DoubleValue
-59.764

@<SCITEGIC>MOL_PROPERTY
W(SA)
SciTegic.value.DoubleValue
1.901

@<SCITEGIC>MOL_PROPERTY
Valence
SciTegic.value.DoubleValue
3.593

@<SCITEGIC>MOL_PROPERTY
Coulomb
SciTegic.value.DoubleValue
20.067

@<SCITEGIC>MOL_PROPERTY
VdW
SciTegic.value.DoubleValue
0.677

@<SCITEGIC>MOL_PROPERTY
VdW6
SciTegic.value.DoubleValue
-5.466

@<SCITEGIC>MOL_PROPERTY
VdW12
SciTegic.value.DoubleValue
6.144

@<SCITEGIC>MOL_PROPERTY
Bond
SciTegic.value.DoubleValue
0.191

@<SCITEGIC>MOL_PROPERTY
Angle
SciTegic.value.DoubleValue
1.557

@<SCITEGIC>MOL_PROPERTY
Pdih
SciTegic.value.DoubleValue
1.845

@<SCITEGIC>MOL_PROPERTY
Idih
SciTegic.value.DoubleValue
0.000

@<SCITEGIC>MOL_PROPERTY
Tether
SciTegic.value.DoubleValue
0.000

@<TRIPOS>MOLECULE
guest-s10_confgen4.mol2 : confsearch ligand conformer 675
          20          19           1
SMALL
USER_CHARGES
 
@<TRIPOS>ATOM
       1    N1      19.320956   20.752229   21.775936 N.4        1 MOL1        -0.5937
       2    H1      19.622672   21.408356   21.050596 H          1 MOL1         0.3684
       3    H2      18.856022   21.299046   22.505689 H          1 MOL1         0.3684
       4    H3      18.618921   20.137216   21.358379 H          1 MOL1         0.3684
       5    C1      20.481246   19.968390   22.326582 C.3        1 MOL1         0.1270
       6    H4      21.180051   20.706783   22.732130 H          1 MOL1         0.0960
       7    C2      21.212135   19.203518   21.208720 C.3        1 MOL1        -0.2382
       8    H5      22.056115   18.632043   21.614413 H          1 MOL1         0.1009
       9    H6      21.612087   19.902488   20.464028 H          1 MOL1         0.1009
      10    H7      20.543624   18.507323   20.688674 H          1 MOL1         0.1009
      11    C3      20.068658   19.039411   23.493553 C.3        1 MOL1        -0.1392
      12    H8      20.970957   18.568487   23.905649 H          1 MOL1         0.0998
      13    H9      19.656883   19.658774   24.301165 H          1 MOL1         0.0998
      14    C4      19.041205   17.938993   23.122386 C.3        1 MOL1        -0.1302
      15    H10     19.455864   17.276388   22.351007 H          1 MOL1         0.0998
      16    H11     18.135155   18.393158   22.699338 H          1 MOL1         0.0998
      17    C5      18.651252   17.090440   24.351705 C.3        1 MOL1        -0.2317
      18    H12     17.925740   16.315070   24.073315 H          1 MOL1         0.1009
      19    H13     18.195338   17.712420   25.133052 H          1 MOL1         0.1009
      20    H14     19.529194   16.590770   24.781553 H          1 MOL1         0.1009
@<TRIPOS>BOND
    1     1     2    1
    2     1     3    1
    3     1     4    1
    4     1     5    1
    5     5     6    1
    6     5     7    1
    7     7     8    1
    8     7     9    1
    9     7    10    1
   10     5    11    1
   11    11    12    1
   12    11    13    1
   13    11    14    1
   14    14    15    1
   15    14    16    1
   16    14    17    1
   17    17    18    1
   18    17    19    1
   19    17    20    1
@<TRIPOS>SUBSTRUCTURE
       1 MOL1            1 RESIDUE      1      MOL     
@<SCITEGIC>MOL_PROPERTY
VConf Rank
SciTegic.value.IntegerValue
675

@<SCITEGIC>MOL_PROPERTY
Conf_Id
SciTegic.value.IntegerValue
63

@<SCITEGIC>MOL_PROPERTY
Delta U+W
SciTegic.value.DoubleValue
0.420

@<SCITEGIC>MOL_PROPERTY
U+W
SciTegic.value.DoubleValue
-35.856

@<SCITEGIC>MOL_PROPERTY
Grad RMS
SciTegic.value.DoubleValue
0.000000

@<SCITEGIC>MOL_PROPERTY
U
SciTegic.value.DoubleValue
22.625

@<SCITEGIC>MOL_PROPERTY
W
SciTegic.value.DoubleValue
-58.481

@<SCITEGIC>MOL_PROPERTY
W(PB)
SciTegic.value.DoubleValue
-60.400

@<SCITEGIC>MOL_PROPERTY
W(SA)
SciTegic.value.DoubleValue
1.919

@<SCITEGIC>MOL_PROPERTY
Valence
SciTegic.value.DoubleValue
2.404

@<SCITEGIC>MOL_PROPERTY
Coulomb
SciTegic.value.DoubleValue
19.464

@<SCITEGIC>MOL_PROPERTY
VdW
SciTegic.value.DoubleValue
0.757

@<SCITEGIC>MOL_PROPERTY
VdW6
SciTegic.value.DoubleValue
-5.074

@<SCITEGIC>MOL_PROPERTY
VdW12
SciTegic.value.DoubleValue
5.830

@<SCITEGIC>MOL_PROPERTY
Bond
SciTegic.value.DoubleValue
0.172

@<SCITEGIC>MOL_PROPERTY
Angle
SciTegic.value.DoubleValue
1.207

@<SCITEGIC>MOL_PROPERTY
Pdih
SciTegic.value.DoubleValue
1.025

@<SCITEGIC>MOL_PROPERTY
Idih
SciTegic.value.DoubleValue
0.000

@<SCITEGIC>MOL_PROPERTY
Tether
SciTegic.value.DoubleValue
0.000

@<TRIPOS>MOLECULE
guest-s10_confgen4.mol2 : confsearch ligand conformer 676
          20          19           1
SMALL
USER_CHARGES
 
@<TRIPOS>ATOM
       1    N1      19.300628   17.273589   23.051855 N.4        1 MOL1        -0.5937
       2    H1      18.665411   17.376232   22.256344 H          1 MOL1         0.3684
       3    H2      18.727212   17.175915   23.893327 H          1 MOL1         0.3684
       4    H3      19.809954   16.394931   22.925014 H          1 MOL1         0.3684
       5    C1      20.238840   18.445277   23.157127 C.3        1 MOL1         0.1270
       6    H4      20.811214   18.474846   22.225117 H          1 MOL1         0.0960
       7    C2      21.226411   18.247575   24.318648 C.3        1 MOL1        -0.2382
       8    H5      21.789593   17.314417   24.195040 H          1 MOL1         0.1009
       9    H6      20.703659   18.206067   25.282370 H          1 MOL1         0.1009
      10    H7      21.951100   19.070297   24.358347 H          1 MOL1         0.1009
      11    C3      19.491108   19.789403   23.309451 C.3        1 MOL1        -0.1392
      12    H8      18.922669   19.785607   24.248970 H          1 MOL1         0.0998
      13    H9      20.227135   20.599349   23.399900 H          1 MOL1         0.0998
      14    C4      18.531531   20.118717   22.137845 C.3        1 MOL1        -0.1302
      15    H10     18.047462   21.084592   22.339500 H          1 MOL1         0.0998
      16    H11     17.720745   19.379109   22.091248 H          1 MOL1         0.0998
      17    C5      19.248313   20.193788   20.770381 C.3        1 MOL1        -0.2317
      18    H12     20.064199   20.927970   20.792451 H          1 MOL1         0.1009
      19    H13     18.545494   20.498545   19.984101 H          1 MOL1         0.1009
      20    H14     19.668682   19.222906   20.479564 H          1 MOL1         0.1009
@<TRIPOS>BOND
    1     1     2    1
    2     1     3    1
    3     1     4    1
    4     1     5    1
    5     5     6    1
    6     5     7    1
    7     7     8    1
    8     7     9    1
    9     7    10    1
   10     5    11    1
   11    11    12    1
   12    11    13    1
   13    11    14    1
   14    14    15    1
   15    14    16    1
   16    14    17    1
   17    17    18    1
   18    17    19    1
   19    17    20    1
@<TRIPOS>SUBSTRUCTURE
       1 MOL1            1 RESIDUE      1      MOL     
@<SCITEGIC>MOL_PROPERTY
VConf Rank
SciTegic.value.IntegerValue
676

@<SCITEGIC>MOL_PROPERTY
Conf_Id
SciTegic.value.IntegerValue
50

@<SCITEGIC>MOL_PROPERTY
Delta U+W
SciTegic.value.DoubleValue
0.466

@<SCITEGIC>MOL_PROPERTY
U+W
SciTegic.value.DoubleValue
-35.811

@<SCITEGIC>MOL_PROPERTY
Grad RMS
SciTegic.value.DoubleValue
0.000000

@<SCITEGIC>MOL_PROPERTY
U
SciTegic.value.DoubleValue
22.369

@<SCITEGIC>MOL_PROPERTY
W
SciTegic.value.DoubleValue
-58.180

@<SCITEGIC>MOL_PROPERTY
W(PB)
SciTegic.value.DoubleValue
-60.103

@<SCITEGIC>MOL_PROPERTY
W(SA)
SciTegic.value.DoubleValue
1.923

@<SCITEGIC>MOL_PROPERTY
Valence
SciTegic.value.DoubleValue
2.168

@<SCITEGIC>MOL_PROPERTY
Coulomb
SciTegic.value.DoubleValue
19.636

@<SCITEGIC>MOL_PROPERTY
VdW
SciTegic.value.DoubleValue
0.566

@<SCITEGIC>MOL_PROPERTY
VdW6
SciTegic.value.DoubleValue
-5.263

@<SCITEGIC>MOL_PROPERTY
VdW12
SciTegic.value.DoubleValue
5.829

@<SCITEGIC>MOL_PROPERTY
Bond
SciTegic.value.DoubleValue
0.162

@<SCITEGIC>MOL_PROPERTY
Angle
SciTegic.value.DoubleValue
1.066

@<SCITEGIC>MOL_PROPERTY
Pdih
SciTegic.value.DoubleValue
0.939

@<SCITEGIC>MOL_PROPERTY
Idih
SciTegic.value.DoubleValue
0.000

@<SCITEGIC>MOL_PROPERTY
Tether
SciTegic.value.DoubleValue
0.000

@<TRIPOS>MOLECULE
guest-s10_confgen4.mol2 : confsearch ligand conformer 677
          20          19           1
SMALL
USER_CHARGES
 
@<TRIPOS>ATOM
       1    N1      20.779261   16.992650   22.024013 N.4        1 MOL1        -0.5937
       2    H1      20.810828   17.090877   21.005508 H          1 MOL1         0.3684
       3    H2      20.165552   16.202309   22.237542 H          1 MOL1         0.3684
       4    H3      21.721520   16.738099   22.332375 H          1 MOL1         0.3684
       5    C1      20.304816   18.256454   22.689055 C.3        1 MOL1         0.1270
       6    H4      21.015683   19.037354   22.401610 H          1 MOL1         0.0960
       7    C2      20.343563   18.092702   24.219952 C.3        1 MOL1        -0.2382
       8    H5      19.677952   17.284589   24.547951 H          1 MOL1         0.1009
       9    H6      20.034854   19.010840   24.731333 H          1 MOL1         0.1009
      10    H7      21.359330   17.852547   24.557104 H          1 MOL1         0.1009
      11    C3      18.899515   18.678101   22.193500 C.3        1 MOL1        -0.1392
      12    H8      18.676064   18.151697   21.256141 H          1 MOL1         0.0998
      13    H9      18.128535   18.354024   22.905242 H          1 MOL1         0.0998
      14    C4      18.762175   20.196207   21.913725 C.3        1 MOL1        -0.1302
      15    H10     17.764022   20.386845   21.495061 H          1 MOL1         0.0998
      16    H11     19.480553   20.492964   21.136583 H          1 MOL1         0.0998
      17    C5      18.957113   21.088786   23.159333 C.3        1 MOL1        -0.2317
      18    H12     18.281702   20.789305   23.971219 H          1 MOL1         0.1009
      19    H13     18.743532   22.137791   22.916410 H          1 MOL1         0.1009
      20    H14     19.989110   21.041904   23.528674 H          1 MOL1         0.1009
@<TRIPOS>BOND
    1     1     2    1
    2     1     3    1
    3     1     4    1
    4     1     5    1
    5     5     6    1
    6     5     7    1
    7     7     8    1
    8     7     9    1
    9     7    10    1
   10     5    11    1
   11    11    12    1
   12    11    13    1
   13    11    14    1
   14    14    15    1
   15    14    16    1
   16    14    17    1
   17    17    18    1
   18    17    19    1
   19    17    20    1
@<TRIPOS>SUBSTRUCTURE
       1 MOL1            1 RESIDUE      1      MOL     
@<SCITEGIC>MOL_PROPERTY
VConf Rank
SciTegic.value.IntegerValue
677

@<SCITEGIC>MOL_PROPERTY
Conf_Id
SciTegic.value.IntegerValue
3

@<SCITEGIC>MOL_PROPERTY
Delta U+W
SciTegic.value.DoubleValue
3.093

@<SCITEGIC>MOL_PROPERTY
U+W
SciTegic.value.DoubleValue
-33.184

@<SCITEGIC>MOL_PROPERTY
Grad RMS
SciTegic.value.DoubleValue
0.000000

@<SCITEGIC>MOL_PROPERTY
U
SciTegic.value.DoubleValue
25.256

@<SCITEGIC>MOL_PROPERTY
W
SciTegic.value.DoubleValue
-58.439

@<SCITEGIC>MOL_PROPERTY
W(PB)
SciTegic.value.DoubleValue
-60.337

@<SCITEGIC>MOL_PROPERTY
W(SA)
SciTegic.value.DoubleValue
1.898

@<SCITEGIC>MOL_PROPERTY
Valence
SciTegic.value.DoubleValue
4.963

@<SCITEGIC>MOL_PROPERTY
Coulomb
SciTegic.value.DoubleValue
19.511

@<SCITEGIC>MOL_PROPERTY
VdW
SciTegic.value.DoubleValue
0.782

@<SCITEGIC>MOL_PROPERTY
VdW6
SciTegic.value.DoubleValue
-5.429

@<SCITEGIC>MOL_PROPERTY
VdW12
SciTegic.value.DoubleValue
6.211

@<SCITEGIC>MOL_PROPERTY
Bond
SciTegic.value.DoubleValue
0.174

@<SCITEGIC>MOL_PROPERTY
Angle
SciTegic.value.DoubleValue
1.377

@<SCITEGIC>MOL_PROPERTY
Pdih
SciTegic.value.DoubleValue
3.412

@<SCITEGIC>MOL_PROPERTY
Idih
SciTegic.value.DoubleValue
0.000

@<SCITEGIC>MOL_PROPERTY
Tether
SciTegic.value.DoubleValue
0.000

@<TRIPOS>MOLECULE
guest-s10_confgen4.mol2 : confsearch ligand conformer 678
          20          19           1
SMALL
USER_CHARGES
 
@<TRIPOS>ATOM
       1    N1      18.060537   17.881800   23.977886 N.4        1 MOL1        -0.5937
       2    H1      18.266871   17.297772   24.792731 H          1 MOL1         0.3684
       3    H2      17.597942   17.284518   23.287168 H          1 MOL1         0.3684
       4    H3      17.382960   18.588666   24.274387 H          1 MOL1         0.3684
       5    C1      19.308006   18.511298   23.421168 C.3        1 MOL1         0.1270
       6    H4      19.967693   17.685736   23.137694 H          1 MOL1         0.0960
       7    C2      20.014167   19.348329   24.503211 C.3        1 MOL1        -0.2382
       8    H5      20.993638   19.699328   24.158288 H          1 MOL1         0.1009
       9    H6      20.183888   18.749170   25.406171 H          1 MOL1         0.1009
      10    H7      19.414265   20.223148   24.783026 H          1 MOL1         0.1009
      11    C3      18.997896   19.342845   22.153576 C.3        1 MOL1        -0.1392
      12    H8      18.425940   18.718187   21.454867 H          1 MOL1         0.0998
      13    H9      18.340566   20.180913   22.420586 H          1 MOL1         0.0998
      14    C4      20.242054   19.892371   21.409803 C.3        1 MOL1        -0.1302
      15    H10     20.766908   20.627062   22.035128 H          1 MOL1         0.0998
      16    H11     19.905436   20.442221   20.519752 H          1 MOL1         0.0998
      17    C5      21.224623   18.782847   20.970867 C.3        1 MOL1        -0.2317
      18    H12     20.721046   18.033913   20.345836 H          1 MOL1         0.1009
      19    H13     21.665059   18.269299   21.834782 H          1 MOL1         0.1009
      20    H14     22.048811   19.209043   20.384276 H          1 MOL1         0.1009
@<TRIPOS>BOND
    1     1     2    1
    2     1     3    1
    3     1     4    1
    4     1     5    1
    5     5     6    1
    6     5     7    1
    7     7     8    1
    8     7     9    1
    9     7    10    1
   10     5    11    1
   11    11    12    1
   12    11    13    1
   13    11    14    1
   14    14    15    1
   15    14    16    1
   16    14    17    1
   17    17    18    1
   18    17    19    1
   19    17    20    1
@<TRIPOS>SUBSTRUCTURE
       1 MOL1            1 RESIDUE      1      MOL     
@<SCITEGIC>MOL_PROPERTY
VConf Rank
SciTegic.value.IntegerValue
678

@<SCITEGIC>MOL_PROPERTY
Conf_Id
SciTegic.value.IntegerValue
64

@<SCITEGIC>MOL_PROPERTY
Delta U+W
SciTegic.value.DoubleValue
0.544

@<SCITEGIC>MOL_PROPERTY
U+W
SciTegic.value.DoubleValue
-35.732

@<SCITEGIC>MOL_PROPERTY
Grad RMS
SciTegic.value.DoubleValue
0.000000

@<SCITEGIC>MOL_PROPERTY
U
SciTegic.value.DoubleValue
22.800

@<SCITEGIC>MOL_PROPERTY
W
SciTegic.value.DoubleValue
-58.532

@<SCITEGIC>MOL_PROPERTY
W(PB)
SciTegic.value.DoubleValue
-60.437

@<SCITEGIC>MOL_PROPERTY
W(SA)
SciTegic.value.DoubleValue
1.905

@<SCITEGIC>MOL_PROPERTY
Valence
SciTegic.value.DoubleValue
2.662

@<SCITEGIC>MOL_PROPERTY
Coulomb
SciTegic.value.DoubleValue
19.485

@<SCITEGIC>MOL_PROPERTY
VdW
SciTegic.value.DoubleValue
0.653

@<SCITEGIC>MOL_PROPERTY
VdW6
SciTegic.value.DoubleValue
-5.460

@<SCITEGIC>MOL_PROPERTY
VdW12
SciTegic.value.DoubleValue
6.113

@<SCITEGIC>MOL_PROPERTY
Bond
SciTegic.value.DoubleValue
0.174

@<SCITEGIC>MOL_PROPERTY
Angle
SciTegic.value.DoubleValue
1.378

@<SCITEGIC>MOL_PROPERTY
Pdih
SciTegic.value.DoubleValue
1.109

@<SCITEGIC>MOL_PROPERTY
Idih
SciTegic.value.DoubleValue
0.000

@<SCITEGIC>MOL_PROPERTY
Tether
SciTegic.value.DoubleValue
0.000

@<TRIPOS>MOLECULE
guest-s10_confgen4.mol2 : confsearch ligand conformer 679
          20          19           1
SMALL
USER_CHARGES
 
@<TRIPOS>ATOM
       1    N1      19.407351   19.592780   24.665178 N.4        1 MOL1        -0.5937
       2    H1      20.428878   19.613226   24.628598 H          1 MOL1         0.3684
       3    H2      19.142018   19.126300   25.536733 H          1 MOL1         0.3684
       4    H3      19.082721   20.561425   24.728433 H          1 MOL1         0.3684
       5    C1      18.826982   18.891410   23.466811 C.3        1 MOL1         0.1270
       6    H4      17.741374   18.912429   23.604568 H          1 MOL1         0.0960
       7    C2      19.257109   17.415731   23.433831 C.3        1 MOL1        -0.2382
       8    H5      20.348753   17.315624   23.432483 H          1 MOL1         0.1009
       9    H6      18.858577   16.912075   22.544538 H          1 MOL1         0.1009
      10    H7      18.875292   16.885987   24.315055 H          1 MOL1         0.1009
      11    C3      19.128631   19.638484   22.143245 C.3        1 MOL1        -0.1392
      12    H8      18.543208   19.189571   21.330070 H          1 MOL1         0.0998
      13    H9      18.740181   20.660105   22.247551 H          1 MOL1         0.0998
      14    C4      20.624054   19.726339   21.729464 C.3        1 MOL1        -0.1302
      15    H10     21.274522   19.750531   22.613594 H          1 MOL1         0.0998
      16    H11     20.784674   20.683620   21.213910 H          1 MOL1         0.0998
      17    C5      21.068127   18.594979   20.772610 C.3        1 MOL1        -0.2317
      18    H12     20.979622   17.605040   21.233223 H          1 MOL1         0.1009
      19    H13     22.117403   18.730449   20.479977 H          1 MOL1         0.1009
      20    H14     20.465140   18.596838   19.855306 H          1 MOL1         0.1009
@<TRIPOS>BOND
    1     1     2    1
    2     1     3    1
    3     1     4    1
    4     1     5    1
    5     5     6    1
    6     5     7    1
    7     7     8    1
    8     7     9    1
    9     7    10    1
   10     5    11    1
   11    11    12    1
   12    11    13    1
   13    11    14    1
   14    14    15    1
   15    14    16    1
   16    14    17    1
   17    17    18    1
   18    17    19    1
   19    17    20    1
@<TRIPOS>SUBSTRUCTURE
       1 MOL1            1 RESIDUE      1      MOL     
@<SCITEGIC>MOL_PROPERTY
VConf Rank
SciTegic.value.IntegerValue
679

@<SCITEGIC>MOL_PROPERTY
Conf_Id
SciTegic.value.IntegerValue
35

@<SCITEGIC>MOL_PROPERTY
Delta U+W
SciTegic.value.DoubleValue
3.004

@<SCITEGIC>MOL_PROPERTY
U+W
SciTegic.value.DoubleValue
-33.272

@<SCITEGIC>MOL_PROPERTY
Grad RMS
SciTegic.value.DoubleValue
0.000000

@<SCITEGIC>MOL_PROPERTY
U
SciTegic.value.DoubleValue
25.367

@<SCITEGIC>MOL_PROPERTY
W
SciTegic.value.DoubleValue
-58.639

@<SCITEGIC>MOL_PROPERTY
W(PB)
SciTegic.value.DoubleValue
-60.512

@<SCITEGIC>MOL_PROPERTY
W(SA)
SciTegic.value.DoubleValue
1.873

@<SCITEGIC>MOL_PROPERTY
Valence
SciTegic.value.DoubleValue
4.943

@<SCITEGIC>MOL_PROPERTY
Coulomb
SciTegic.value.DoubleValue
19.661

@<SCITEGIC>MOL_PROPERTY
VdW
SciTegic.value.DoubleValue
0.764

@<SCITEGIC>MOL_PROPERTY
VdW6
SciTegic.value.DoubleValue
-5.871

@<SCITEGIC>MOL_PROPERTY
VdW12
SciTegic.value.DoubleValue
6.636

@<SCITEGIC>MOL_PROPERTY
Bond
SciTegic.value.DoubleValue
0.230

@<SCITEGIC>MOL_PROPERTY
Angle
SciTegic.value.DoubleValue
1.857

@<SCITEGIC>MOL_PROPERTY
Pdih
SciTegic.value.DoubleValue
2.855

@<SCITEGIC>MOL_PROPERTY
Idih
SciTegic.value.DoubleValue
0.000

@<SCITEGIC>MOL_PROPERTY
Tether
SciTegic.value.DoubleValue
0.000

@<TRIPOS>MOLECULE
guest-s10_confgen4.mol2 : confsearch ligand conformer 680
          20          19           1
SMALL
USER_CHARGES
 
@<TRIPOS>ATOM
       1    N1      20.369394   18.844418   24.383955 N.4        1 MOL1        -0.5937
       2    H1      21.214706   19.045585   24.924864 H          1 MOL1         0.3684
       3    H2      19.796501   18.204660   24.940808 H          1 MOL1         0.3684
       4    H3      19.847582   19.717639   24.288066 H          1 MOL1         0.3684
       5    C1      20.701129   18.257935   23.039168 C.3        1 MOL1         0.1270
       6    H4      21.230029   17.323986   23.253483 H          1 MOL1         0.0960
       7    C2      21.668392   19.162556   22.255220 C.3        1 MOL1        -0.2382
       8    H5      21.241832   20.157782   22.082399 H          1 MOL1         0.1009
       9    H6      21.913283   18.719054   21.282208 H          1 MOL1         0.1009
      10    H7      22.607099   19.291325   22.807683 H          1 MOL1         0.1009
      11    C3      19.443873   17.881736   22.213883 C.3        1 MOL1        -0.1392
      12    H8      19.761672   17.194185   21.419012 H          1 MOL1         0.0998
      13    H9      18.763869   17.298198   22.848151 H          1 MOL1         0.0998
      14    C4      18.653702   19.043508   21.548668 C.3        1 MOL1        -0.1302
      15    H10     17.828281   18.604902   20.970628 H          1 MOL1         0.0998
      16    H11     19.284695   19.561688   20.813842 H          1 MOL1         0.0998
      17    C5      18.059528   20.070237   22.539480 C.3        1 MOL1        -0.2317
      18    H12     17.492956   19.572308   23.337103 H          1 MOL1         0.1009
      19    H13     17.372108   20.748228   22.017032 H          1 MOL1         0.1009
      20    H14     18.839978   20.691614   22.993414 H          1 MOL1         0.1009
@<TRIPOS>BOND
    1     1     2    1
    2     1     3    1
    3     1     4    1
    4     1     5    1
    5     5     6    1
    6     5     7    1
    7     7     8    1
    8     7     9    1
    9     7    10    1
   10     5    11    1
   11    11    12    1
   12    11    13    1
   13    11    14    1
   14    14    15    1
   15    14    16    1
   16    14    17    1
   17    17    18    1
   18    17    19    1
   19    17    20    1
@<TRIPOS>SUBSTRUCTURE
       1 MOL1            1 RESIDUE      1      MOL     
@<SCITEGIC>MOL_PROPERTY
VConf Rank
SciTegic.value.IntegerValue
680

@<SCITEGIC>MOL_PROPERTY
Conf_Id
SciTegic.value.IntegerValue
55

@<SCITEGIC>MOL_PROPERTY
Delta U+W
SciTegic.value.DoubleValue
2.767

@<SCITEGIC>MOL_PROPERTY
U+W
SciTegic.value.DoubleValue
-33.509

@<SCITEGIC>MOL_PROPERTY
Grad RMS
SciTegic.value.DoubleValue
0.000000

@<SCITEGIC>MOL_PROPERTY
U
SciTegic.value.DoubleValue
24.552

@<SCITEGIC>MOL_PROPERTY
W
SciTegic.value.DoubleValue
-58.061

@<SCITEGIC>MOL_PROPERTY
W(PB)
SciTegic.value.DoubleValue
-59.930

@<SCITEGIC>MOL_PROPERTY
W(SA)
SciTegic.value.DoubleValue
1.869

@<SCITEGIC>MOL_PROPERTY
Valence
SciTegic.value.DoubleValue
3.726

@<SCITEGIC>MOL_PROPERTY
Coulomb
SciTegic.value.DoubleValue
20.219

@<SCITEGIC>MOL_PROPERTY
VdW
SciTegic.value.DoubleValue
0.606

@<SCITEGIC>MOL_PROPERTY
VdW6
SciTegic.value.DoubleValue
-6.395

@<SCITEGIC>MOL_PROPERTY
VdW12
SciTegic.value.DoubleValue
7.001

@<SCITEGIC>MOL_PROPERTY
Bond
SciTegic.value.DoubleValue
0.241

@<SCITEGIC>MOL_PROPERTY
Angle
SciTegic.value.DoubleValue
2.098

@<SCITEGIC>MOL_PROPERTY
Pdih
SciTegic.value.DoubleValue
1.387

@<SCITEGIC>MOL_PROPERTY
Idih
SciTegic.value.DoubleValue
0.000

@<SCITEGIC>MOL_PROPERTY
Tether
SciTegic.value.DoubleValue
0.000

@<TRIPOS>MOLECULE
guest-s10_confgen4.mol2 : confsearch ligand conformer 681
          20          19           1
SMALL
USER_CHARGES
 
@<TRIPOS>ATOM
       1    N1      20.705599   17.513322   21.776739 N.4        1 MOL1        -0.5937
       2    H1      20.579627   16.785079   22.484085 H          1 MOL1         0.3684
       3    H2      21.537741   17.269727   21.232811 H          1 MOL1         0.3684
       4    H3      19.904239   17.467971   21.142431 H          1 MOL1         0.3684
       5    C1      20.836951   18.874891   22.404384 C.3        1 MOL1         0.1270
       6    H4      20.962958   19.588746   21.584371 H          1 MOL1         0.0960
       7    C2      22.088099   18.940285   23.295631 C.3        1 MOL1        -0.2382
       8    H5      22.988155   18.690000   22.720720 H          1 MOL1         0.1009
       9    H6      22.014003   18.239646   24.136706 H          1 MOL1         0.1009
      10    H7      22.224499   19.949729   23.703132 H          1 MOL1         0.1009
      11    C3      19.582596   19.280910   23.209300 C.3        1 MOL1        -0.1392
      12    H8      19.419647   18.565217   24.026090 H          1 MOL1         0.0998
      13    H9      19.764203   20.256441   23.679859 H          1 MOL1         0.0998
      14    C4      18.308029   19.377767   22.336593 C.3        1 MOL1        -0.1302
      15    H10     18.072249   18.398481   21.898608 H          1 MOL1         0.0998
      16    H11     18.484401   20.067108   21.498772 H          1 MOL1         0.0998
      17    C5      17.093428   19.867424   23.154081 C.3        1 MOL1        -0.2317
      18    H12     16.872552   19.181709   23.982491 H          1 MOL1         0.1009
      19    H13     16.199001   19.928835   22.520587 H          1 MOL1         0.1009
      20    H14     17.276028   20.864638   23.575334 H          1 MOL1         0.1009
@<TRIPOS>BOND
    1     1     2    1
    2     1     3    1
    3     1     4    1
    4     1     5    1
    5     5     6    1
    6     5     7    1
    7     7     8    1
    8     7     9    1
    9     7    10    1
   10     5    11    1
   11    11    12    1
   12    11    13    1
   13    11    14    1
   14    14    15    1
   15    14    16    1
   16    14    17    1
   17    17    18    1
   18    17    19    1
   19    17    20    1
@<TRIPOS>SUBSTRUCTURE
       1 MOL1            1 RESIDUE      1      MOL     
@<SCITEGIC>MOL_PROPERTY
VConf Rank
SciTegic.value.IntegerValue
681

@<SCITEGIC>MOL_PROPERTY
Conf_Id
SciTegic.value.IntegerValue
74

@<SCITEGIC>MOL_PROPERTY
Delta U+W
SciTegic.value.DoubleValue
0.000

@<SCITEGIC>MOL_PROPERTY
U+W
SciTegic.value.DoubleValue
-36.276

@<SCITEGIC>MOL_PROPERTY
Grad RMS
SciTegic.value.DoubleValue
0.000000

@<SCITEGIC>MOL_PROPERTY
U
SciTegic.value.DoubleValue
22.080

@<SCITEGIC>MOL_PROPERTY
W
SciTegic.value.DoubleValue
-58.356

@<SCITEGIC>MOL_PROPERTY
W(PB)
SciTegic.value.DoubleValue
-60.289

@<SCITEGIC>MOL_PROPERTY
W(SA)
SciTegic.value.DoubleValue
1.932

@<SCITEGIC>MOL_PROPERTY
Valence
SciTegic.value.DoubleValue
1.885

@<SCITEGIC>MOL_PROPERTY
Coulomb
SciTegic.value.DoubleValue
19.559

@<SCITEGIC>MOL_PROPERTY
VdW
SciTegic.value.DoubleValue
0.637

@<SCITEGIC>MOL_PROPERTY
VdW6
SciTegic.value.DoubleValue
-4.482

@<SCITEGIC>MOL_PROPERTY
VdW12
SciTegic.value.DoubleValue
5.119

@<SCITEGIC>MOL_PROPERTY
Bond
SciTegic.value.DoubleValue
0.136

@<SCITEGIC>MOL_PROPERTY
Angle
SciTegic.value.DoubleValue
0.867

@<SCITEGIC>MOL_PROPERTY
Pdih
SciTegic.value.DoubleValue
0.882

@<SCITEGIC>MOL_PROPERTY
Idih
SciTegic.value.DoubleValue
0.000

@<SCITEGIC>MOL_PROPERTY
Tether
SciTegic.value.DoubleValue
0.000

@<TRIPOS>MOLECULE
guest-s10_confgen4.mol2 : confsearch ligand conformer 682
          20          19           1
SMALL
USER_CHARGES
 
@<TRIPOS>ATOM
       1    N1      18.264039   17.978189   21.099086 N.4        1 MOL1        -0.5937
       2    H1      17.980649   18.803015   20.563167 H          1 MOL1         0.3684
       3    H2      17.492777   17.741934   21.728423 H          1 MOL1         0.3684
       4    H3      18.362209   17.205551   20.434954 H          1 MOL1         0.3684
       5    C1      19.541181   18.219297   21.856212 C.3        1 MOL1         0.1270
       6    H4      20.302395   18.460038   21.107572 H          1 MOL1         0.0960
       7    C2      19.973621   16.939437   22.594965 C.3        1 MOL1        -0.2382
       8    H5      20.012562   16.088741   21.903574 H          1 MOL1         0.1009
       9    H6      19.272694   16.690140   23.401272 H          1 MOL1         0.1009
      10    H7      20.973708   17.048050   23.029996 H          1 MOL1         0.1009
      11    C3      19.404929   19.426775   22.812727 C.3        1 MOL1        -0.1392
      12    H8      18.991973   20.272765   22.247546 H          1 MOL1         0.0998
      13    H9      18.675968   19.194176   23.600359 H          1 MOL1         0.0998
      14    C4      20.742348   19.870563   23.454229 C.3        1 MOL1        -0.1302
      15    H10     21.491299   20.042671   22.668404 H          1 MOL1         0.0998
      16    H11     21.136660   19.076170   24.101808 H          1 MOL1         0.0998
      17    C5      20.573690   21.157266   24.290669 C.3        1 MOL1        -0.2317
      18    H12     20.220998   21.990380   23.668763 H          1 MOL1         0.1009
      19    H13     21.529616   21.455220   24.740687 H          1 MOL1         0.1009
      20    H14     19.851142   21.007863   25.103604 H          1 MOL1         0.1009
@<TRIPOS>BOND
    1     1     2    1
    2     1     3    1
    3     1     4    1
    4     1     5    1
    5     5     6    1
    6     5     7    1
    7     7     8    1
    8     7     9    1
    9     7    10    1
   10     5    11    1
   11    11    12    1
   12    11    13    1
   13    11    14    1
   14    14    15    1
   15    14    16    1
   16    14    17    1
   17    17    18    1
   18    17    19    1
   19    17    20    1
@<TRIPOS>SUBSTRUCTURE
       1 MOL1            1 RESIDUE      1      MOL     
@<SCITEGIC>MOL_PROPERTY
VConf Rank
SciTegic.value.IntegerValue
682

@<SCITEGIC>MOL_PROPERTY
Conf_Id
SciTegic.value.IntegerValue
80

@<SCITEGIC>MOL_PROPERTY
Delta U+W
SciTegic.value.DoubleValue
0.460

@<SCITEGIC>MOL_PROPERTY
U+W
SciTegic.value.DoubleValue
-35.817

@<SCITEGIC>MOL_PROPERTY
Grad RMS
SciTegic.value.DoubleValue
0.000000

@<SCITEGIC>MOL_PROPERTY
U
SciTegic.value.DoubleValue
22.495

@<SCITEGIC>MOL_PROPERTY
W
SciTegic.value.DoubleValue
-58.311

@<SCITEGIC>MOL_PROPERTY
W(PB)
SciTegic.value.DoubleValue
-60.259

@<SCITEGIC>MOL_PROPERTY
W(SA)
SciTegic.value.DoubleValue
1.948

@<SCITEGIC>MOL_PROPERTY
Valence
SciTegic.value.DoubleValue
2.419

@<SCITEGIC>MOL_PROPERTY
Coulomb
SciTegic.value.DoubleValue
19.304

@<SCITEGIC>MOL_PROPERTY
VdW
SciTegic.value.DoubleValue
0.772

@<SCITEGIC>MOL_PROPERTY
VdW6
SciTegic.value.DoubleValue
-4.635

@<SCITEGIC>MOL_PROPERTY
VdW12
SciTegic.value.DoubleValue
5.407

@<SCITEGIC>MOL_PROPERTY
Bond
SciTegic.value.DoubleValue
0.149

@<SCITEGIC>MOL_PROPERTY
Angle
SciTegic.value.DoubleValue
1.142

@<SCITEGIC>MOL_PROPERTY
Pdih
SciTegic.value.DoubleValue
1.129

@<SCITEGIC>MOL_PROPERTY
Idih
SciTegic.value.DoubleValue
0.000

@<SCITEGIC>MOL_PROPERTY
Tether
SciTegic.value.DoubleValue
0.000

@<TRIPOS>MOLECULE
guest-s10_confgen4.mol2 : confsearch ligand conformer 683
          20          19           1
SMALL
USER_CHARGES
 
@<TRIPOS>ATOM
       1    N1      20.668221   21.104630   22.803250 N.4        1 MOL1        -0.5937
       2    H1      20.305099   21.680538   22.038866 H          1 MOL1         0.3684
       3    H2      21.616372   20.817962   22.547282 H          1 MOL1         0.3684
       4    H3      20.744764   21.708198   23.626331 H          1 MOL1         0.3684
       5    C1      19.785733   19.916420   23.071805 C.3        1 MOL1         0.1270
       6    H4      18.804150   20.318670   23.341043 H          1 MOL1         0.0960
       7    C2      20.320246   19.116858   24.272328 C.3        1 MOL1        -0.2382
       8    H5      20.509089   19.779292   25.125945 H          1 MOL1         0.1009
       9    H6      21.258181   18.604911   24.024053 H          1 MOL1         0.1009
      10    H7      19.590470   18.368661   24.601927 H          1 MOL1         0.1009
      11    C3      19.617162   19.050542   21.799337 C.3        1 MOL1        -0.1392
      12    H8      19.269725   19.711956   20.994656 H          1 MOL1         0.0998
      13    H9      20.591692   18.666525   21.469867 H          1 MOL1         0.0998
      14    C4      18.597670   17.887889   21.927864 C.3        1 MOL1        -0.1302
      15    H10     18.064128   17.782681   20.972677 H          1 MOL1         0.0998
      16    H11     17.830296   18.133327   22.675436 H          1 MOL1         0.0998
      17    C5      19.255252   16.526980   22.257328 C.3        1 MOL1        -0.2317
      18    H12     19.969407   16.237319   21.475538 H          1 MOL1         0.1009
      19    H13     18.494443   15.738219   22.320641 H          1 MOL1         0.1009
      20    H14     19.791736   16.547479   23.212475 H          1 MOL1         0.1009
@<TRIPOS>BOND
    1     1     2    1
    2     1     3    1
    3     1     4    1
    4     1     5    1
    5     5     6    1
    6     5     7    1
    7     7     8    1
    8     7     9    1
    9     7    10    1
   10     5    11    1
   11    11    12    1
   12    11    13    1
   13    11    14    1
   14    14    15    1
   15    14    16    1
   16    14    17    1
   17    17    18    1
   18    17    19    1
   19    17    20    1
@<TRIPOS>SUBSTRUCTURE
       1 MOL1            1 RESIDUE      1      MOL     
@<SCITEGIC>MOL_PROPERTY
VConf Rank
SciTegic.value.IntegerValue
683

@<SCITEGIC>MOL_PROPERTY
Conf_Id
SciTegic.value.IntegerValue
52

@<SCITEGIC>MOL_PROPERTY
Delta U+W
SciTegic.value.DoubleValue
2.995

@<SCITEGIC>MOL_PROPERTY
U+W
SciTegic.value.DoubleValue
-33.282

@<SCITEGIC>MOL_PROPERTY
Grad RMS
SciTegic.value.DoubleValue
0.000000

@<SCITEGIC>MOL_PROPERTY
U
SciTegic.value.DoubleValue
25.224

@<SCITEGIC>MOL_PROPERTY
W
SciTegic.value.DoubleValue
-58.506

@<SCITEGIC>MOL_PROPERTY
W(PB)
SciTegic.value.DoubleValue
-60.411

@<SCITEGIC>MOL_PROPERTY
W(SA)
SciTegic.value.DoubleValue
1.905

@<SCITEGIC>MOL_PROPERTY
Valence
SciTegic.value.DoubleValue
4.945

@<SCITEGIC>MOL_PROPERTY
Coulomb
SciTegic.value.DoubleValue
19.467

@<SCITEGIC>MOL_PROPERTY
VdW
SciTegic.value.DoubleValue
0.813

@<SCITEGIC>MOL_PROPERTY
VdW6
SciTegic.value.DoubleValue
-5.458

@<SCITEGIC>MOL_PROPERTY
VdW12
SciTegic.value.DoubleValue
6.270

@<SCITEGIC>MOL_PROPERTY
Bond
SciTegic.value.DoubleValue
0.200

@<SCITEGIC>MOL_PROPERTY
Angle
SciTegic.value.DoubleValue
1.675

@<SCITEGIC>MOL_PROPERTY
Pdih
SciTegic.value.DoubleValue
3.070

@<SCITEGIC>MOL_PROPERTY
Idih
SciTegic.value.DoubleValue
0.000

@<SCITEGIC>MOL_PROPERTY
Tether
SciTegic.value.DoubleValue
0.000

@<TRIPOS>MOLECULE
guest-s10_confgen4.mol2 : confsearch ligand conformer 684
          20          19           1
SMALL
USER_CHARGES
 
@<TRIPOS>ATOM
       1    N1      20.984828   18.714429   23.755331 N.4        1 MOL1        -0.5937
       2    H1      21.028260   19.536338   24.362749 H          1 MOL1         0.3684
       3    H2      21.899006   18.255799   23.795141 H          1 MOL1         0.3684
       4    H3      20.299114   18.072216   24.158249 H          1 MOL1         0.3684
       5    C1      20.617093   19.092478   22.346395 C.3        1 MOL1         0.1270
       6    H4      20.638283   18.174738   21.750542 H          1 MOL1         0.0960
       7    C2      21.666890   20.060798   21.775394 C.3        1 MOL1        -0.2382
       8    H5      21.676375   21.007900   22.329257 H          1 MOL1         0.1009
       9    H6      21.461176   20.283427   20.720992 H          1 MOL1         0.1009
      10    H7      22.670917   19.622368   21.830559 H          1 MOL1         0.1009
      11    C3      19.201425   19.708053   22.240621 C.3        1 MOL1        -0.1392
      12    H8      19.067627   20.474675   23.015194 H          1 MOL1         0.0998
      13    H9      19.119730   20.234832   21.280458 H          1 MOL1         0.0998
      14    C4      18.039880   18.681387   22.298730 C.3        1 MOL1        -0.1302
      15    H10     18.155700   17.945199   21.490865 H          1 MOL1         0.0998
      16    H11     17.101561   19.214217   22.089738 H          1 MOL1         0.0998
      17    C5      17.890667   17.945384   23.649745 C.3        1 MOL1        -0.2317
      18    H12     16.940196   17.396727   23.679217 H          1 MOL1         0.1009
      19    H13     17.893084   18.650409   24.491321 H          1 MOL1         0.1009
      20    H14     18.688579   17.208895   23.799278 H          1 MOL1         0.1009
@<TRIPOS>BOND
    1     1     2    1
    2     1     3    1
    3     1     4    1
    4     1     5    1
    5     5     6    1
    6     5     7    1
    7     7     8    1
    8     7     9    1
    9     7    10    1
   10     5    11    1
   11    11    12    1
   12    11    13    1
   13    11    14    1
   14    14    15    1
   15    14    16    1
   16    14    17    1
   17    17    18    1
   18    17    19    1
   19    17    20    1
@<TRIPOS>SUBSTRUCTURE
       1 MOL1            1 RESIDUE      1      MOL     
@<SCITEGIC>MOL_PROPERTY
VConf Rank
SciTegic.value.IntegerValue
684

@<SCITEGIC>MOL_PROPERTY
Conf_Id
SciTegic.value.IntegerValue
54

@<SCITEGIC>MOL_PROPERTY
Delta U+W
SciTegic.value.DoubleValue
2.752

@<SCITEGIC>MOL_PROPERTY
U+W
SciTegic.value.DoubleValue
-33.525

@<SCITEGIC>MOL_PROPERTY
Grad RMS
SciTegic.value.DoubleValue
0.000000

@<SCITEGIC>MOL_PROPERTY
U
SciTegic.value.DoubleValue
24.337

@<SCITEGIC>MOL_PROPERTY
W
SciTegic.value.DoubleValue
-57.862

@<SCITEGIC>MOL_PROPERTY
W(PB)
SciTegic.value.DoubleValue
-59.764

@<SCITEGIC>MOL_PROPERTY
W(SA)
SciTegic.value.DoubleValue
1.901

@<SCITEGIC>MOL_PROPERTY
Valence
SciTegic.value.DoubleValue
3.593

@<SCITEGIC>MOL_PROPERTY
Coulomb
SciTegic.value.DoubleValue
20.067

@<SCITEGIC>MOL_PROPERTY
VdW
SciTegic.value.DoubleValue
0.677

@<SCITEGIC>MOL_PROPERTY
VdW6
SciTegic.value.DoubleValue
-5.466

@<SCITEGIC>MOL_PROPERTY
VdW12
SciTegic.value.DoubleValue
6.144

@<SCITEGIC>MOL_PROPERTY
Bond
SciTegic.value.DoubleValue
0.191

@<SCITEGIC>MOL_PROPERTY
Angle
SciTegic.value.DoubleValue
1.557

@<SCITEGIC>MOL_PROPERTY
Pdih
SciTegic.value.DoubleValue
1.845

@<SCITEGIC>MOL_PROPERTY
Idih
SciTegic.value.DoubleValue
0.000

@<SCITEGIC>MOL_PROPERTY
Tether
SciTegic.value.DoubleValue
0.000

@<TRIPOS>MOLECULE
guest-s10_confgen4.mol2 : confsearch ligand conformer 685
          20          19           1
SMALL
USER_CHARGES
 
@<TRIPOS>ATOM
       1    N1      19.963473   19.695653   24.614343 N.4        1 MOL1        -0.5937
       2    H1      20.610438   19.794009   25.401373 H          1 MOL1         0.3684
       3    H2      19.017794   19.646621   25.002928 H          1 MOL1         0.3684
       4    H3      20.024078   20.552908   24.060367 H          1 MOL1         0.3684
       5    C1      20.284752   18.481470   23.785834 C.3        1 MOL1         0.1270
       6    H4      20.211127   17.624806   24.463129 H          1 MOL1         0.0960
       7    C2      21.731225   18.535873   23.262766 C.3        1 MOL1        -0.2382
       8    H5      21.960925   17.649966   22.657888 H          1 MOL1         0.1009
       9    H6      22.440695   18.559800   24.098928 H          1 MOL1         0.1009
      10    H7      21.907930   19.426841   22.648767 H          1 MOL1         0.1009
      11    C3      19.262284   18.253549   22.646684 C.3        1 MOL1        -0.1392
      12    H8      19.501634   17.308406   22.141558 H          1 MOL1         0.0998
      13    H9      18.269767   18.112518   23.094372 H          1 MOL1         0.0998
      14    C4      19.188970   19.391159   21.595583 C.3        1 MOL1        -0.1302
      15    H10     20.160826   19.513026   21.098937 H          1 MOL1         0.0998
      16    H11     18.959376   20.346593   22.086087 H          1 MOL1         0.0998
      17    C5      18.114225   19.104635   20.524996 C.3        1 MOL1        -0.2317
      18    H12     18.075500   19.916719   19.787373 H          1 MOL1         0.1009
      19    H13     17.118478   19.014608   20.978430 H          1 MOL1         0.1009
      20    H14     18.330578   18.172142   19.987529 H          1 MOL1         0.1009
@<TRIPOS>BOND
    1     1     2    1
    2     1     3    1
    3     1     4    1
    4     1     5    1
    5     5     6    1
    6     5     7    1
    7     7     8    1
    8     7     9    1
    9     7    10    1
   10     5    11    1
   11    11    12    1
   12    11    13    1
   13    11    14    1
   14    14    15    1
   15    14    16    1
   16    14    17    1
   17    17    18    1
   18    17    19    1
   19    17    20    1
@<TRIPOS>SUBSTRUCTURE
       1 MOL1            1 RESIDUE      1      MOL     
@<SCITEGIC>MOL_PROPERTY
VConf Rank
SciTegic.value.IntegerValue
685

@<SCITEGIC>MOL_PROPERTY
Conf_Id
SciTegic.value.IntegerValue
63

@<SCITEGIC>MOL_PROPERTY
Delta U+W
SciTegic.value.DoubleValue
0.420

@<SCITEGIC>MOL_PROPERTY
U+W
SciTegic.value.DoubleValue
-35.856

@<SCITEGIC>MOL_PROPERTY
Grad RMS
SciTegic.value.DoubleValue
0.000000

@<SCITEGIC>MOL_PROPERTY
U
SciTegic.value.DoubleValue
22.625

@<SCITEGIC>MOL_PROPERTY
W
SciTegic.value.DoubleValue
-58.481

@<SCITEGIC>MOL_PROPERTY
W(PB)
SciTegic.value.DoubleValue
-60.400

@<SCITEGIC>MOL_PROPERTY
W(SA)
SciTegic.value.DoubleValue
1.919

@<SCITEGIC>MOL_PROPERTY
Valence
SciTegic.value.DoubleValue
2.404

@<SCITEGIC>MOL_PROPERTY
Coulomb
SciTegic.value.DoubleValue
19.464

@<SCITEGIC>MOL_PROPERTY
VdW
SciTegic.value.DoubleValue
0.757

@<SCITEGIC>MOL_PROPERTY
VdW6
SciTegic.value.DoubleValue
-5.074

@<SCITEGIC>MOL_PROPERTY
VdW12
SciTegic.value.DoubleValue
5.830

@<SCITEGIC>MOL_PROPERTY
Bond
SciTegic.value.DoubleValue
0.172

@<SCITEGIC>MOL_PROPERTY
Angle
SciTegic.value.DoubleValue
1.207

@<SCITEGIC>MOL_PROPERTY
Pdih
SciTegic.value.DoubleValue
1.025

@<SCITEGIC>MOL_PROPERTY
Idih
SciTegic.value.DoubleValue
0.000

@<SCITEGIC>MOL_PROPERTY
Tether
SciTegic.value.DoubleValue
0.000

@<TRIPOS>MOLECULE
guest-s10_confgen4.mol2 : confsearch ligand conformer 686
          20          19           1
SMALL
USER_CHARGES
 
@<TRIPOS>ATOM
       1    N1      21.156396   18.209427   23.378837 N.4        1 MOL1        -0.5937
       2    H1      21.589110   18.558691   22.519973 H          1 MOL1         0.3684
       3    H2      21.087752   17.192032   23.297497 H          1 MOL1         0.3684
       4    H3      21.799008   18.412094   24.149238 H          1 MOL1         0.3684
       5    C1      19.807503   18.836510   23.605625 C.3        1 MOL1         0.1270
       6    H4      19.971147   19.915537   23.683401 H          1 MOL1         0.0960
       7    C2      19.197569   18.348740   24.929851 C.3        1 MOL1        -0.2382
       8    H5      19.868485   18.566373   25.769938 H          1 MOL1         0.1009
       9    H6      19.015644   17.266968   24.909249 H          1 MOL1         0.1009
      10    H7      18.242998   18.851899   25.127960 H          1 MOL1         0.1009
      11    C3      18.831073   18.577541   22.435795 C.3        1 MOL1        -0.1392
      12    H8      18.641028   17.499273   22.351812 H          1 MOL1         0.0998
      13    H9      17.863586   19.041989   22.668573 H          1 MOL1         0.0998
      14    C4      19.323000   19.113560   21.067369 C.3        1 MOL1        -0.1302
      15    H10     18.567496   18.878637   20.304527 H          1 MOL1         0.0998
      16    H11     20.236463   18.587142   20.759091 H          1 MOL1         0.0998
      17    C5      19.575235   20.638599   21.069187 C.3        1 MOL1        -0.2317
      18    H12     18.674597   21.187021   21.374577 H          1 MOL1         0.1009
      19    H13     19.852242   20.983689   20.064573 H          1 MOL1         0.1009
      20    H14     20.391025   20.913412   21.749526 H          1 MOL1         0.1009
@<TRIPOS>BOND
    1     1     2    1
    2     1     3    1
    3     1     4    1
    4     1     5    1
    5     5     6    1
    6     5     7    1
    7     7     8    1
    8     7     9    1
    9     7    10    1
   10     5    11    1
   11    11    12    1
   12    11    13    1
   13    11    14    1
   14    14    15    1
   15    14    16    1
   16    14    17    1
   17    17    18    1
   18    17    19    1
   19    17    20    1
@<TRIPOS>SUBSTRUCTURE
       1 MOL1            1 RESIDUE      1      MOL     
@<SCITEGIC>MOL_PROPERTY
VConf Rank
SciTegic.value.IntegerValue
686

@<SCITEGIC>MOL_PROPERTY
Conf_Id
SciTegic.value.IntegerValue
50

@<SCITEGIC>MOL_PROPERTY
Delta U+W
SciTegic.value.DoubleValue
0.466

@<SCITEGIC>MOL_PROPERTY
U+W
SciTegic.value.DoubleValue
-35.811

@<SCITEGIC>MOL_PROPERTY
Grad RMS
SciTegic.value.DoubleValue
0.000000

@<SCITEGIC>MOL_PROPERTY
U
SciTegic.value.DoubleValue
22.369

@<SCITEGIC>MOL_PROPERTY
W
SciTegic.value.DoubleValue
-58.180

@<SCITEGIC>MOL_PROPERTY
W(PB)
SciTegic.value.DoubleValue
-60.103

@<SCITEGIC>MOL_PROPERTY
W(SA)
SciTegic.value.DoubleValue
1.923

@<SCITEGIC>MOL_PROPERTY
Valence
SciTegic.value.DoubleValue
2.168

@<SCITEGIC>MOL_PROPERTY
Coulomb
SciTegic.value.DoubleValue
19.636

@<SCITEGIC>MOL_PROPERTY
VdW
SciTegic.value.DoubleValue
0.566

@<SCITEGIC>MOL_PROPERTY
VdW6
SciTegic.value.DoubleValue
-5.263

@<SCITEGIC>MOL_PROPERTY
VdW12
SciTegic.value.DoubleValue
5.829

@<SCITEGIC>MOL_PROPERTY
Bond
SciTegic.value.DoubleValue
0.162

@<SCITEGIC>MOL_PROPERTY
Angle
SciTegic.value.DoubleValue
1.066

@<SCITEGIC>MOL_PROPERTY
Pdih
SciTegic.value.DoubleValue
0.939

@<SCITEGIC>MOL_PROPERTY
Idih
SciTegic.value.DoubleValue
0.000

@<SCITEGIC>MOL_PROPERTY
Tether
SciTegic.value.DoubleValue
0.000

@<TRIPOS>MOLECULE
guest-s10_confgen4.mol2 : confsearch ligand conformer 687
          20          19           1
SMALL
USER_CHARGES
 
@<TRIPOS>ATOM
       1    N1      19.004600   17.289030   24.271794 N.4        1 MOL1        -0.5937
       2    H1      19.872051   16.877010   24.626425 H          1 MOL1         0.3684
       3    H2      18.519389   16.567078   23.733068 H          1 MOL1         0.3684
       4    H3      18.420084   17.507535   25.083171 H          1 MOL1         0.3684
       5    C1      19.271678   18.514049   23.439580 C.3        1 MOL1         0.1270
       6    H4      19.791012   19.220231   24.094837 H          1 MOL1         0.0960
       7    C2      17.941044   19.145326   22.989174 C.3        1 MOL1        -0.2382
       8    H5      17.364581   18.450036   22.366334 H          1 MOL1         0.1009
       9    H6      18.104929   20.059704   22.408793 H          1 MOL1         0.1009
      10    H7      17.326203   19.411287   23.857714 H          1 MOL1         0.1009
      11    C3      20.195517   18.205034   22.235726 C.3        1 MOL1        -0.1392
      12    H8      20.702440   17.246462   22.408469 H          1 MOL1         0.0998
      13    H9      19.601780   18.064795   21.322587 H          1 MOL1         0.0998
      14    C4      21.294586   19.271528   21.998197 C.3        1 MOL1        -0.1302
      15    H10     21.943771   18.929964   21.179768 H          1 MOL1         0.0998
      16    H11     21.936578   19.341787   22.887573 H          1 MOL1         0.0998
      17    C5      20.749582   20.673795   21.647692 C.3        1 MOL1        -0.2317
      18    H12     20.069248   20.630972   20.787262 H          1 MOL1         0.1009
      19    H13     21.573452   21.351634   21.389209 H          1 MOL1         0.1009
      20    H14     20.213155   21.118789   22.494956 H          1 MOL1         0.1009
@<TRIPOS>BOND
    1     1     2    1
    2     1     3    1
    3     1     4    1
    4     1     5    1
    5     5     6    1
    6     5     7    1
    7     7     8    1
    8     7     9    1
    9     7    10    1
   10     5    11    1
   11    11    12    1
   12    11    13    1
   13    11    14    1
   14    14    15    1
   15    14    16    1
   16    14    17    1
   17    17    18    1
   18    17    19    1
   19    17    20    1
@<TRIPOS>SUBSTRUCTURE
       1 MOL1            1 RESIDUE      1      MOL     
@<SCITEGIC>MOL_PROPERTY
VConf Rank
SciTegic.value.IntegerValue
687

@<SCITEGIC>MOL_PROPERTY
Conf_Id
SciTegic.value.IntegerValue
3

@<SCITEGIC>MOL_PROPERTY
Delta U+W
SciTegic.value.DoubleValue
3.093

@<SCITEGIC>MOL_PROPERTY
U+W
SciTegic.value.DoubleValue
-33.184

@<SCITEGIC>MOL_PROPERTY
Grad RMS
SciTegic.value.DoubleValue
0.000000

@<SCITEGIC>MOL_PROPERTY
U
SciTegic.value.DoubleValue
25.256

@<SCITEGIC>MOL_PROPERTY
W
SciTegic.value.DoubleValue
-58.439

@<SCITEGIC>MOL_PROPERTY
W(PB)
SciTegic.value.DoubleValue
-60.337

@<SCITEGIC>MOL_PROPERTY
W(SA)
SciTegic.value.DoubleValue
1.898

@<SCITEGIC>MOL_PROPERTY
Valence
SciTegic.value.DoubleValue
4.963

@<SCITEGIC>MOL_PROPERTY
Coulomb
SciTegic.value.DoubleValue
19.511

@<SCITEGIC>MOL_PROPERTY
VdW
SciTegic.value.DoubleValue
0.782

@<SCITEGIC>MOL_PROPERTY
VdW6
SciTegic.value.DoubleValue
-5.429

@<SCITEGIC>MOL_PROPERTY
VdW12
SciTegic.value.DoubleValue
6.211

@<SCITEGIC>MOL_PROPERTY
Bond
SciTegic.value.DoubleValue
0.174

@<SCITEGIC>MOL_PROPERTY
Angle
SciTegic.value.DoubleValue
1.377

@<SCITEGIC>MOL_PROPERTY
Pdih
SciTegic.value.DoubleValue
3.412

@<SCITEGIC>MOL_PROPERTY
Idih
SciTegic.value.DoubleValue
0.000

@<SCITEGIC>MOL_PROPERTY
Tether
SciTegic.value.DoubleValue
0.000

@<TRIPOS>MOLECULE
guest-s10_confgen4.mol2 : confsearch ligand conformer 688
          20          19           1
SMALL
USER_CHARGES
 
@<TRIPOS>ATOM
       1    N1      18.609813   20.926332   22.427885 N.4        1 MOL1        -0.5937
       2    H1      18.881608   21.792465   22.900724 H          1 MOL1         0.3684
       3    H2      17.643232   20.724897   22.698025 H          1 MOL1         0.3684
       4    H3      18.613881   21.114894   21.422344 H          1 MOL1         0.3684
       5    C1      19.533015   19.792667   22.781270 C.3        1 MOL1         0.1270
       6    H4      19.465058   19.668826   23.866231 H          1 MOL1         0.0960
       7    C2      20.986092   20.153920   22.423266 C.3        1 MOL1        -0.2382
       8    H5      21.687526   19.400419   22.799780 H          1 MOL1         0.1009
       9    H6      21.268241   21.113443   22.873643 H          1 MOL1         0.1009
      10    H7      21.119040   20.235460   21.337373 H          1 MOL1         0.1009
      11    C3      19.080690   18.472762   22.112180 C.3        1 MOL1        -0.1392
      12    H8      18.018306   18.310880   22.337259 H          1 MOL1         0.0998
      13    H9      19.148185   18.576708   21.021137 H          1 MOL1         0.0998
      14    C4      19.869371   17.212174   22.550363 C.3        1 MOL1        -0.1302
      15    H10     20.914639   17.282160   22.220531 H          1 MOL1         0.0998
      16    H11     19.449897   16.337541   22.033742 H          1 MOL1         0.0998
      17    C5      19.818035   16.965058   24.075305 C.3        1 MOL1        -0.2317
      18    H12     18.781288   16.894174   24.429267 H          1 MOL1         0.1009
      19    H13     20.316622   17.769114   24.631155 H          1 MOL1         0.1009
      20    H14     20.323769   16.024568   24.329725 H          1 MOL1         0.1009
@<TRIPOS>BOND
    1     1     2    1
    2     1     3    1
    3     1     4    1
    4     1     5    1
    5     5     6    1
    6     5     7    1
    7     7     8    1
    8     7     9    1
    9     7    10    1
   10     5    11    1
   11    11    12    1
   12    11    13    1
   13    11    14    1
   14    14    15    1
   15    14    16    1
   16    14    17    1
   17    17    18    1
   18    17    19    1
   19    17    20    1
@<TRIPOS>SUBSTRUCTURE
       1 MOL1            1 RESIDUE      1      MOL     
@<SCITEGIC>MOL_PROPERTY
VConf Rank
SciTegic.value.IntegerValue
688

@<SCITEGIC>MOL_PROPERTY
Conf_Id
SciTegic.value.IntegerValue
64

@<SCITEGIC>MOL_PROPERTY
Delta U+W
SciTegic.value.DoubleValue
0.544

@<SCITEGIC>MOL_PROPERTY
U+W
SciTegic.value.DoubleValue
-35.732

@<SCITEGIC>MOL_PROPERTY
Grad RMS
SciTegic.value.DoubleValue
0.000000

@<SCITEGIC>MOL_PROPERTY
U
SciTegic.value.DoubleValue
22.800

@<SCITEGIC>MOL_PROPERTY
W
SciTegic.value.DoubleValue
-58.532

@<SCITEGIC>MOL_PROPERTY
W(PB)
SciTegic.value.DoubleValue
-60.437

@<SCITEGIC>MOL_PROPERTY
W(SA)
SciTegic.value.DoubleValue
1.905

@<SCITEGIC>MOL_PROPERTY
Valence
SciTegic.value.DoubleValue
2.662

@<SCITEGIC>MOL_PROPERTY
Coulomb
SciTegic.value.DoubleValue
19.485

@<SCITEGIC>MOL_PROPERTY
VdW
SciTegic.value.DoubleValue
0.653

@<SCITEGIC>MOL_PROPERTY
VdW6
SciTegic.value.DoubleValue
-5.460

@<SCITEGIC>MOL_PROPERTY
VdW12
SciTegic.value.DoubleValue
6.113

@<SCITEGIC>MOL_PROPERTY
Bond
SciTegic.value.DoubleValue
0.174

@<SCITEGIC>MOL_PROPERTY
Angle
SciTegic.value.DoubleValue
1.378

@<SCITEGIC>MOL_PROPERTY
Pdih
SciTegic.value.DoubleValue
1.109

@<SCITEGIC>MOL_PROPERTY
Idih
SciTegic.value.DoubleValue
0.000

@<SCITEGIC>MOL_PROPERTY
Tether
SciTegic.value.DoubleValue
0.000

@<TRIPOS>MOLECULE
guest-s10_confgen4.mol2 : confsearch ligand conformer 689
          20          19           1
SMALL
USER_CHARGES
 
@<TRIPOS>ATOM
       1    N1      18.032879   17.747922   22.562538 N.4        1 MOL1        -0.5937
       2    H1      18.186643   18.010060   21.586365 H          1 MOL1         0.3684
       3    H2      17.045890   17.918692   22.773020 H          1 MOL1         0.3684
       4    H3      18.189135   16.739189   22.638063 H          1 MOL1         0.3684
       5    C1      18.934464   18.518791   23.488679 C.3        1 MOL1         0.1270
       6    H4      18.687398   18.177972   24.499007 H          1 MOL1         0.0960
       7    C2      18.628488   20.024100   23.424275 C.3        1 MOL1        -0.2382
       8    H5      18.724769   20.410059   22.402769 H          1 MOL1         0.1009
       9    H6      19.305503   20.588984   24.076882 H          1 MOL1         0.1009
      10    H7      17.602782   20.220849   23.759218 H          1 MOL1         0.1009
      11    C3      20.432188   18.196138   23.257042 C.3        1 MOL1        -0.1392
      12    H8      21.029770   18.642686   24.062639 H          1 MOL1         0.0998
      13    H9      20.555831   17.111493   23.374258 H          1 MOL1         0.0998
      14    C4      21.017838   18.606387   21.877211 C.3        1 MOL1        -0.1302
      15    H10     20.248531   18.559341   21.095333 H          1 MOL1         0.0998
      16    H11     21.779994   17.867835   21.591482 H          1 MOL1         0.0998
      17    C5      21.689228   19.999934   21.880321 C.3        1 MOL1        -0.2317
      18    H12     20.979230   20.800692   22.114130 H          1 MOL1         0.1009
      19    H13     22.121637   20.219119   20.895462 H          1 MOL1         0.1009
      20    H14     22.502417   20.042700   22.616485 H          1 MOL1         0.1009
@<TRIPOS>BOND
    1     1     2    1
    2     1     3    1
    3     1     4    1
    4     1     5    1
    5     5     6    1
    6     5     7    1
    7     7     8    1
    8     7     9    1
    9     7    10    1
   10     5    11    1
   11    11    12    1
   12    11    13    1
   13    11    14    1
   14    14    15    1
   15    14    16    1
   16    14    17    1
   17    17    18    1
   18    17    19    1
   19    17    20    1
@<TRIPOS>SUBSTRUCTURE
       1 MOL1            1 RESIDUE      1      MOL     
@<SCITEGIC>MOL_PROPERTY
VConf Rank
SciTegic.value.IntegerValue
689

@<SCITEGIC>MOL_PROPERTY
Conf_Id
SciTegic.value.IntegerValue
35

@<SCITEGIC>MOL_PROPERTY
Delta U+W
SciTegic.value.DoubleValue
3.004

@<SCITEGIC>MOL_PROPERTY
U+W
SciTegic.value.DoubleValue
-33.272

@<SCITEGIC>MOL_PROPERTY
Grad RMS
SciTegic.value.DoubleValue
0.000000

@<SCITEGIC>MOL_PROPERTY
U
SciTegic.value.DoubleValue
25.367

@<SCITEGIC>MOL_PROPERTY
W
SciTegic.value.DoubleValue
-58.639

@<SCITEGIC>MOL_PROPERTY
W(PB)
SciTegic.value.DoubleValue
-60.512

@<SCITEGIC>MOL_PROPERTY
W(SA)
SciTegic.value.DoubleValue
1.873

@<SCITEGIC>MOL_PROPERTY
Valence
SciTegic.value.DoubleValue
4.943

@<SCITEGIC>MOL_PROPERTY
Coulomb
SciTegic.value.DoubleValue
19.661

@<SCITEGIC>MOL_PROPERTY
VdW
SciTegic.value.DoubleValue
0.764

@<SCITEGIC>MOL_PROPERTY
VdW6
SciTegic.value.DoubleValue
-5.871

@<SCITEGIC>MOL_PROPERTY
VdW12
SciTegic.value.DoubleValue
6.636

@<SCITEGIC>MOL_PROPERTY
Bond
SciTegic.value.DoubleValue
0.230

@<SCITEGIC>MOL_PROPERTY
Angle
SciTegic.value.DoubleValue
1.857

@<SCITEGIC>MOL_PROPERTY
Pdih
SciTegic.value.DoubleValue
2.855

@<SCITEGIC>MOL_PROPERTY
Idih
SciTegic.value.DoubleValue
0.000

@<SCITEGIC>MOL_PROPERTY
Tether
SciTegic.value.DoubleValue
0.000

@<TRIPOS>MOLECULE
guest-s10_confgen4.mol2 : confsearch ligand conformer 690
          20          19           1
SMALL
USER_CHARGES
 
@<TRIPOS>ATOM
       1    N1      18.746969   17.702320   23.370977 N.4        1 MOL1        -0.5937
       2    H1      18.554921   16.707819   23.223715 H          1 MOL1         0.3684
       3    H2      17.958618   18.090318   23.895898 H          1 MOL1         0.3684
       4    H3      19.574957   17.773455   23.965429 H          1 MOL1         0.3684
       5    C1      18.949204   18.424434   22.067092 C.3        1 MOL1         0.1270
       6    H4      18.006050   18.309822   21.523722 H          1 MOL1         0.0960
       7    C2      20.048989   17.758560   21.221163 C.3        1 MOL1        -0.2382
       8    H5      21.012771   17.750279   21.743994 H          1 MOL1         0.1009
       9    H6      20.178830   18.285440   20.267770 H          1 MOL1         0.1009
      10    H7      19.782181   16.719424   20.993177 H          1 MOL1         0.1009
      11    C3      19.181365   19.946773   22.245683 C.3        1 MOL1        -0.1392
      12    H8      19.004599   20.426103   21.273809 H          1 MOL1         0.0998
      13    H9      18.407558   20.348468   22.912828 H          1 MOL1         0.0998
      14    C4      20.579678   20.400323   22.751262 C.3        1 MOL1        -0.1302
      15    H10     20.590694   21.498954   22.777958 H          1 MOL1         0.0998
      16    H11     21.356708   20.115764   22.028847 H          1 MOL1         0.0998
      17    C5      20.958964   19.877599   24.155478 C.3        1 MOL1        -0.2317
      18    H12     20.159842   20.072744   24.882433 H          1 MOL1         0.1009
      19    H13     21.865941   20.380433   24.515645 H          1 MOL1         0.1009
      20    H14     21.171769   18.802515   24.142190 H          1 MOL1         0.1009
@<TRIPOS>BOND
    1     1     2    1
    2     1     3    1
    3     1     4    1
    4     1     5    1
    5     5     6    1
    6     5     7    1
    7     7     8    1
    8     7     9    1
    9     7    10    1
   10     5    11    1
   11    11    12    1
   12    11    13    1
   13    11    14    1
   14    14    15    1
   15    14    16    1
   16    14    17    1
   17    17    18    1
   18    17    19    1
   19    17    20    1
@<TRIPOS>SUBSTRUCTURE
       1 MOL1            1 RESIDUE      1      MOL     
@<SCITEGIC>MOL_PROPERTY
VConf Rank
SciTegic.value.IntegerValue
690

@<SCITEGIC>MOL_PROPERTY
Conf_Id
SciTegic.value.IntegerValue
55

@<SCITEGIC>MOL_PROPERTY
Delta U+W
SciTegic.value.DoubleValue
2.767

@<SCITEGIC>MOL_PROPERTY
U+W
SciTegic.value.DoubleValue
-33.509

@<SCITEGIC>MOL_PROPERTY
Grad RMS
SciTegic.value.DoubleValue
0.000000

@<SCITEGIC>MOL_PROPERTY
U
SciTegic.value.DoubleValue
24.552

@<SCITEGIC>MOL_PROPERTY
W
SciTegic.value.DoubleValue
-58.061

@<SCITEGIC>MOL_PROPERTY
W(PB)
SciTegic.value.DoubleValue
-59.930

@<SCITEGIC>MOL_PROPERTY
W(SA)
SciTegic.value.DoubleValue
1.869

@<SCITEGIC>MOL_PROPERTY
Valence
SciTegic.value.DoubleValue
3.726

@<SCITEGIC>MOL_PROPERTY
Coulomb
SciTegic.value.DoubleValue
20.219

@<SCITEGIC>MOL_PROPERTY
VdW
SciTegic.value.DoubleValue
0.606

@<SCITEGIC>MOL_PROPERTY
VdW6
SciTegic.value.DoubleValue
-6.395

@<SCITEGIC>MOL_PROPERTY
VdW12
SciTegic.value.DoubleValue
7.001

@<SCITEGIC>MOL_PROPERTY
Bond
SciTegic.value.DoubleValue
0.241

@<SCITEGIC>MOL_PROPERTY
Angle
SciTegic.value.DoubleValue
2.098

@<SCITEGIC>MOL_PROPERTY
Pdih
SciTegic.value.DoubleValue
1.387

@<SCITEGIC>MOL_PROPERTY
Idih
SciTegic.value.DoubleValue
0.000

@<SCITEGIC>MOL_PROPERTY
Tether
SciTegic.value.DoubleValue
0.000

@<TRIPOS>MOLECULE
guest-s10_confgen4.mol2 : confsearch ligand conformer 691
          20          19           1
SMALL
USER_CHARGES
 
@<TRIPOS>ATOM
       1    N1      20.704425   18.326038   21.114401 N.4        1 MOL1        -0.5937
       2    H1      21.347024   19.116883   21.023978 H          1 MOL1         0.3684
       3    H2      20.609460   17.902480   20.187450 H          1 MOL1         0.3684
       4    H3      21.151983   17.633712   21.720171 H          1 MOL1         0.3684
       5    C1      19.370832   18.758858   21.661444 C.3        1 MOL1         0.1270
       6    H4      18.751359   17.859118   21.729333 H          1 MOL1         0.0960
       7    C2      18.685936   19.742953   20.698924 C.3        1 MOL1        -0.2382
       8    H5      18.570189   19.296121   19.703832 H          1 MOL1         0.1009
       9    H6      19.269037   20.666321   20.593197 H          1 MOL1         0.1009
      10    H7      17.685496   20.010482   21.061119 H          1 MOL1         0.1009
      11    C3      19.480577   19.376920   23.072864 C.3        1 MOL1        -0.1392
      12    H8      20.118087   20.270338   23.036806 H          1 MOL1         0.0998
      13    H9      18.485063   19.715666   23.389519 H          1 MOL1         0.0998
      14    C4      20.028702   18.385378   24.127342 C.3        1 MOL1        -0.1302
      15    H10     21.048220   18.074257   23.862364 H          1 MOL1         0.0998
      16    H11     19.410855   17.476307   24.137220 H          1 MOL1         0.0998
      17    C5      20.045086   19.007358   25.540202 C.3        1 MOL1        -0.2317
      18    H12     20.679937   19.902519   25.570320 H          1 MOL1         0.1009
      19    H13     20.437524   18.291738   26.274345 H          1 MOL1         0.1009
      20    H14     19.034213   19.294480   25.857894 H          1 MOL1         0.1009
@<TRIPOS>BOND
    1     1     2    1
    2     1     3    1
    3     1     4    1
    4     1     5    1
    5     5     6    1
    6     5     7    1
    7     7     8    1
    8     7     9    1
    9     7    10    1
   10     5    11    1
   11    11    12    1
   12    11    13    1
   13    11    14    1
   14    14    15    1
   15    14    16    1
   16    14    17    1
   17    17    18    1
   18    17    19    1
   19    17    20    1
@<TRIPOS>SUBSTRUCTURE
       1 MOL1            1 RESIDUE      1      MOL     
@<SCITEGIC>MOL_PROPERTY
VConf Rank
SciTegic.value.IntegerValue
691

@<SCITEGIC>MOL_PROPERTY
Conf_Id
SciTegic.value.IntegerValue
74

@<SCITEGIC>MOL_PROPERTY
Delta U+W
SciTegic.value.DoubleValue
0.000

@<SCITEGIC>MOL_PROPERTY
U+W
SciTegic.value.DoubleValue
-36.276

@<SCITEGIC>MOL_PROPERTY
Grad RMS
SciTegic.value.DoubleValue
0.000000

@<SCITEGIC>MOL_PROPERTY
U
SciTegic.value.DoubleValue
22.080

@<SCITEGIC>MOL_PROPERTY
W
SciTegic.value.DoubleValue
-58.356

@<SCITEGIC>MOL_PROPERTY
W(PB)
SciTegic.value.DoubleValue
-60.289

@<SCITEGIC>MOL_PROPERTY
W(SA)
SciTegic.value.DoubleValue
1.932

@<SCITEGIC>MOL_PROPERTY
Valence
SciTegic.value.DoubleValue
1.885

@<SCITEGIC>MOL_PROPERTY
Coulomb
SciTegic.value.DoubleValue
19.559

@<SCITEGIC>MOL_PROPERTY
VdW
SciTegic.value.DoubleValue
0.637

@<SCITEGIC>MOL_PROPERTY
VdW6
SciTegic.value.DoubleValue
-4.482

@<SCITEGIC>MOL_PROPERTY
VdW12
SciTegic.value.DoubleValue
5.119

@<SCITEGIC>MOL_PROPERTY
Bond
SciTegic.value.DoubleValue
0.136

@<SCITEGIC>MOL_PROPERTY
Angle
SciTegic.value.DoubleValue
0.867

@<SCITEGIC>MOL_PROPERTY
Pdih
SciTegic.value.DoubleValue
0.882

@<SCITEGIC>MOL_PROPERTY
Idih
SciTegic.value.DoubleValue
0.000

@<SCITEGIC>MOL_PROPERTY
Tether
SciTegic.value.DoubleValue
0.000

@<TRIPOS>MOLECULE
guest-s10_confgen4.mol2 : confsearch ligand conformer 692
          20          19           1
SMALL
USER_CHARGES
 
@<TRIPOS>ATOM
       1    N1      18.581357   17.427937   24.173153 N.4        1 MOL1        -0.5937
       2    H1      17.926913   18.056760   24.646589 H          1 MOL1         0.3684
       3    H2      19.347911   17.237473   24.823418 H          1 MOL1         0.3684
       4    H3      18.090058   16.544040   24.014938 H          1 MOL1         0.3684
       5    C1      19.083904   18.017205   22.883705 C.3        1 MOL1         0.1270
       6    H4      18.202428   18.182823   22.256461 H          1 MOL1         0.0960
       7    C2      20.010647   17.018864   22.165887 C.3        1 MOL1        -0.2382
       8    H5      19.517887   16.045118   22.055307 H          1 MOL1         0.1009
       9    H6      20.941298   16.866978   22.726600 H          1 MOL1         0.1009
      10    H7      20.268620   17.366443   21.158980 H          1 MOL1         0.1009
      11    C3      19.770604   19.382071   23.122606 C.3        1 MOL1        -0.1392
      12    H8      19.101434   20.006067   23.729652 H          1 MOL1         0.0998
      13    H9      20.683548   19.237931   23.715568 H          1 MOL1         0.0998
      14    C4      20.109743   20.148029   21.820510 C.3        1 MOL1        -0.1302
      15    H10     19.208643   20.237223   21.197506 H          1 MOL1         0.0998
      16    H11     20.850199   19.590190   21.231917 H          1 MOL1         0.0998
      17    C5      20.667969   21.556609   22.117104 C.3        1 MOL1        -0.2317
      18    H12     19.938280   22.163580   22.668809 H          1 MOL1         0.1009
      19    H13     20.906253   22.083587   21.184043 H          1 MOL1         0.1009
      20    H14     21.586761   21.499312   22.715266 H          1 MOL1         0.1009
@<TRIPOS>BOND
    1     1     2    1
    2     1     3    1
    3     1     4    1
    4     1     5    1
    5     5     6    1
    6     5     7    1
    7     7     8    1
    8     7     9    1
    9     7    10    1
   10     5    11    1
   11    11    12    1
   12    11    13    1
   13    11    14    1
   14    14    15    1
   15    14    16    1
   16    14    17    1
   17    17    18    1
   18    17    19    1
   19    17    20    1
@<TRIPOS>SUBSTRUCTURE
       1 MOL1            1 RESIDUE      1      MOL     
@<SCITEGIC>MOL_PROPERTY
VConf Rank
SciTegic.value.IntegerValue
692

@<SCITEGIC>MOL_PROPERTY
Conf_Id
SciTegic.value.IntegerValue
80

@<SCITEGIC>MOL_PROPERTY
Delta U+W
SciTegic.value.DoubleValue
0.460

@<SCITEGIC>MOL_PROPERTY
U+W
SciTegic.value.DoubleValue
-35.817

@<SCITEGIC>MOL_PROPERTY
Grad RMS
SciTegic.value.DoubleValue
0.000000

@<SCITEGIC>MOL_PROPERTY
U
SciTegic.value.DoubleValue
22.495

@<SCITEGIC>MOL_PROPERTY
W
SciTegic.value.DoubleValue
-58.311

@<SCITEGIC>MOL_PROPERTY
W(PB)
SciTegic.value.DoubleValue
-60.259

@<SCITEGIC>MOL_PROPERTY
W(SA)
SciTegic.value.DoubleValue
1.948

@<SCITEGIC>MOL_PROPERTY
Valence
SciTegic.value.DoubleValue
2.419

@<SCITEGIC>MOL_PROPERTY
Coulomb
SciTegic.value.DoubleValue
19.304

@<SCITEGIC>MOL_PROPERTY
VdW
SciTegic.value.DoubleValue
0.772

@<SCITEGIC>MOL_PROPERTY
VdW6
SciTegic.value.DoubleValue
-4.635

@<SCITEGIC>MOL_PROPERTY
VdW12
SciTegic.value.DoubleValue
5.407

@<SCITEGIC>MOL_PROPERTY
Bond
SciTegic.value.DoubleValue
0.149

@<SCITEGIC>MOL_PROPERTY
Angle
SciTegic.value.DoubleValue
1.142

@<SCITEGIC>MOL_PROPERTY
Pdih
SciTegic.value.DoubleValue
1.129

@<SCITEGIC>MOL_PROPERTY
Idih
SciTegic.value.DoubleValue
0.000

@<SCITEGIC>MOL_PROPERTY
Tether
SciTegic.value.DoubleValue
0.000

@<TRIPOS>MOLECULE
guest-s10_confgen4.mol2 : confsearch ligand conformer 693
          20          19           1
SMALL
USER_CHARGES
 
@<TRIPOS>ATOM
       1    N1      18.543091   20.348692   24.197214 N.4        1 MOL1        -0.5937
       2    H1      18.452920   19.942531   25.132476 H          1 MOL1         0.3684
       3    H2      17.645198   20.226735   23.722236 H          1 MOL1         0.3684
       4    H3      18.689412   21.354557   24.317387 H          1 MOL1         0.3684
       5    C1      19.667560   19.717244   23.422881 C.3        1 MOL1         0.1270
       6    H4      20.578760   19.902726   24.000038 H          1 MOL1         0.0960
       7    C2      19.821315   20.401697   22.053889 C.3        1 MOL1        -0.2382
       8    H5      19.868017   21.491559   22.168624 H          1 MOL1         0.1009
       9    H6      18.978489   20.164277   21.393034 H          1 MOL1         0.1009
      10    H7      20.749701   20.090682   21.561573 H          1 MOL1         0.1009
      11    C3      19.473599   18.185180   23.311090 C.3        1 MOL1        -0.1392
      12    H8      19.336973   17.795487   24.328521 H          1 MOL1         0.0998
      13    H9      18.541129   17.958730   22.777285 H          1 MOL1         0.0998
      14    C4      20.659925   17.419411   22.667762 C.3        1 MOL1        -0.1302
      15    H10     20.775574   16.455640   23.183407 H          1 MOL1         0.0998
      16    H11     21.600524   17.963470   22.832805 H          1 MOL1         0.0998
      17    C5      20.461195   17.131367   21.160921 C.3        1 MOL1        -0.2317
      18    H12     19.563001   16.522852   20.993372 H          1 MOL1         0.1009
      19    H13     21.318452   16.575182   20.759981 H          1 MOL1         0.1009
      20    H14     20.358998   18.051040   20.574151 H          1 MOL1         0.1009
@<TRIPOS>BOND
    1     1     2    1
    2     1     3    1
    3     1     4    1
    4     1     5    1
    5     5     6    1
    6     5     7    1
    7     7     8    1
    8     7     9    1
    9     7    10    1
   10     5    11    1
   11    11    12    1
   12    11    13    1
   13    11    14    1
   14    14    15    1
   15    14    16    1
   16    14    17    1
   17    17    18    1
   18    17    19    1
   19    17    20    1
@<TRIPOS>SUBSTRUCTURE
       1 MOL1            1 RESIDUE      1      MOL     
@<SCITEGIC>MOL_PROPERTY
VConf Rank
SciTegic.value.IntegerValue
693

@<SCITEGIC>MOL_PROPERTY
Conf_Id
SciTegic.value.IntegerValue
52

@<SCITEGIC>MOL_PROPERTY
Delta U+W
SciTegic.value.DoubleValue
2.995

@<SCITEGIC>MOL_PROPERTY
U+W
SciTegic.value.DoubleValue
-33.282

@<SCITEGIC>MOL_PROPERTY
Grad RMS
SciTegic.value.DoubleValue
0.000000

@<SCITEGIC>MOL_PROPERTY
U
SciTegic.value.DoubleValue
25.224

@<SCITEGIC>MOL_PROPERTY
W
SciTegic.value.DoubleValue
-58.506

@<SCITEGIC>MOL_PROPERTY
W(PB)
SciTegic.value.DoubleValue
-60.411

@<SCITEGIC>MOL_PROPERTY
W(SA)
SciTegic.value.DoubleValue
1.905

@<SCITEGIC>MOL_PROPERTY
Valence
SciTegic.value.DoubleValue
4.945

@<SCITEGIC>MOL_PROPERTY
Coulomb
SciTegic.value.DoubleValue
19.467

@<SCITEGIC>MOL_PROPERTY
VdW
SciTegic.value.DoubleValue
0.813

@<SCITEGIC>MOL_PROPERTY
VdW6
SciTegic.value.DoubleValue
-5.458

@<SCITEGIC>MOL_PROPERTY
VdW12
SciTegic.value.DoubleValue
6.270

@<SCITEGIC>MOL_PROPERTY
Bond
SciTegic.value.DoubleValue
0.200

@<SCITEGIC>MOL_PROPERTY
Angle
SciTegic.value.DoubleValue
1.675

@<SCITEGIC>MOL_PROPERTY
Pdih
SciTegic.value.DoubleValue
3.070

@<SCITEGIC>MOL_PROPERTY
Idih
SciTegic.value.DoubleValue
0.000

@<SCITEGIC>MOL_PROPERTY
Tether
SciTegic.value.DoubleValue
0.000

@<TRIPOS>MOLECULE
guest-s10_confgen4.mol2 : confsearch ligand conformer 694
          20          19           1
SMALL
USER_CHARGES
 
@<TRIPOS>ATOM
       1    N1      20.785615   18.757479   21.518132 N.4        1 MOL1        -0.5937
       2    H1      20.249007   18.975398   20.674959 H          1 MOL1         0.3684
       3    H2      21.566704   18.158477   21.237518 H          1 MOL1         0.3684
       4    H3      21.178445   19.634799   21.865953 H          1 MOL1         0.3684
       5    C1      19.926041   18.093340   22.558949 C.3        1 MOL1         0.1270
       6    H4      20.575638   17.848623   23.405041 H          1 MOL1         0.0960
       7    C2      19.350023   16.781342   21.999819 C.3        1 MOL1        -0.2382
       8    H5      18.675826   16.971667   21.155371 H          1 MOL1         0.1009
       9    H6      18.787521   16.240921   22.771300 H          1 MOL1         0.1009
      10    H7      20.153929   16.120302   21.653270 H          1 MOL1         0.1009
      11    C3      18.787259   19.008240   23.069212 C.3        1 MOL1        -0.1392
      12    H8      18.272467   19.474923   22.219053 H          1 MOL1         0.0998
      13    H9      18.034563   18.384249   23.569380 H          1 MOL1         0.0998
      14    C4      19.230554   20.092681   24.086112 C.3        1 MOL1        -0.1302
      15    H10     19.702491   19.613975   24.955681 H          1 MOL1         0.0998
      16    H11     18.329171   20.592114   24.468343 H          1 MOL1         0.0998
      17    C5      20.178308   21.171171   23.513548 C.3        1 MOL1        -0.2317
      18    H12     20.281484   22.001000   24.224902 H          1 MOL1         0.1009
      19    H13     19.790505   21.585869   22.573893 H          1 MOL1         0.1009
      20    H14     21.184840   20.773699   23.339341 H          1 MOL1         0.1009
@<TRIPOS>BOND
    1     1     2    1
    2     1     3    1
    3     1     4    1
    4     1     5    1
    5     5     6    1
    6     5     7    1
    7     7     8    1
    8     7     9    1
    9     7    10    1
   10     5    11    1
   11    11    12    1
   12    11    13    1
   13    11    14    1
   14    14    15    1
   15    14    16    1
   16    14    17    1
   17    17    18    1
   18    17    19    1
   19    17    20    1
@<TRIPOS>SUBSTRUCTURE
       1 MOL1            1 RESIDUE      1      MOL     
@<SCITEGIC>MOL_PROPERTY
VConf Rank
SciTegic.value.IntegerValue
694

@<SCITEGIC>MOL_PROPERTY
Conf_Id
SciTegic.value.IntegerValue
54

@<SCITEGIC>MOL_PROPERTY
Delta U+W
SciTegic.value.DoubleValue
2.752

@<SCITEGIC>MOL_PROPERTY
U+W
SciTegic.value.DoubleValue
-33.525

@<SCITEGIC>MOL_PROPERTY
Grad RMS
SciTegic.value.DoubleValue
0.000000

@<SCITEGIC>MOL_PROPERTY
U
SciTegic.value.DoubleValue
24.337

@<SCITEGIC>MOL_PROPERTY
W
SciTegic.value.DoubleValue
-57.862

@<SCITEGIC>MOL_PROPERTY
W(PB)
SciTegic.value.DoubleValue
-59.764

@<SCITEGIC>MOL_PROPERTY
W(SA)
SciTegic.value.DoubleValue
1.901

@<SCITEGIC>MOL_PROPERTY
Valence
SciTegic.value.DoubleValue
3.593

@<SCITEGIC>MOL_PROPERTY
Coulomb
SciTegic.value.DoubleValue
20.067

@<SCITEGIC>MOL_PROPERTY
VdW
SciTegic.value.DoubleValue
0.677

@<SCITEGIC>MOL_PROPERTY
VdW6
SciTegic.value.DoubleValue
-5.466

@<SCITEGIC>MOL_PROPERTY
VdW12
SciTegic.value.DoubleValue
6.144

@<SCITEGIC>MOL_PROPERTY
Bond
SciTegic.value.DoubleValue
0.191

@<SCITEGIC>MOL_PROPERTY
Angle
SciTegic.value.DoubleValue
1.557

@<SCITEGIC>MOL_PROPERTY
Pdih
SciTegic.value.DoubleValue
1.845

@<SCITEGIC>MOL_PROPERTY
Idih
SciTegic.value.DoubleValue
0.000

@<SCITEGIC>MOL_PROPERTY
Tether
SciTegic.value.DoubleValue
0.000

@<TRIPOS>MOLECULE
guest-s10_confgen4.mol2 : confsearch ligand conformer 695
          20          19           1
SMALL
USER_CHARGES
 
@<TRIPOS>ATOM
       1    N1      18.662520   17.263976   22.237747 N.4        1 MOL1        -0.5937
       2    H1      18.098867   16.810763   21.513491 H          1 MOL1         0.3684
       3    H2      18.307794   16.944191   23.143075 H          1 MOL1         0.3684
       4    H3      19.619261   16.916161   22.142249 H          1 MOL1         0.3684
       5    C1      18.607923   18.763021   22.120403 C.3        1 MOL1         0.1270
       6    H4      17.552377   19.035915   22.217224 H          1 MOL1         0.0960
       7    C2      19.080996   19.226539   20.731089 C.3        1 MOL1        -0.2382
       8    H5      19.041391   20.319862   20.650176 H          1 MOL1         0.1009
       9    H6      18.434422   18.812220   19.947910 H          1 MOL1         0.1009
      10    H7      20.107688   18.903192   20.522777 H          1 MOL1         0.1009
      11    C3      19.371488   19.475313   23.262621 C.3        1 MOL1        -0.1392
      12    H8      19.216636   20.558348   23.168863 H          1 MOL1         0.0998
      13    H9      18.913785   19.187521   24.218179 H          1 MOL1         0.0998
      14    C4      20.892475   19.178807   23.317659 C.3        1 MOL1        -0.1302
      15    H10     21.377742   19.507867   22.389085 H          1 MOL1         0.0998
      16    H11     21.065339   18.097533   23.402072 H          1 MOL1         0.0998
      17    C5      21.565311   19.890180   24.511212 C.3        1 MOL1        -0.2317
      18    H12     22.641066   19.672901   24.535833 H          1 MOL1         0.1009
      19    H13     21.133368   19.557949   25.464243 H          1 MOL1         0.1009
      20    H14     21.443627   20.979042   24.441963 H          1 MOL1         0.1009
@<TRIPOS>BOND
    1     1     2    1
    2     1     3    1
    3     1     4    1
    4     1     5    1
    5     5     6    1
    6     5     7    1
    7     7     8    1
    8     7     9    1
    9     7    10    1
   10     5    11    1
   11    11    12    1
   12    11    13    1
   13    11    14    1
   14    14    15    1
   15    14    16    1
   16    14    17    1
   17    17    18    1
   18    17    19    1
   19    17    20    1
@<TRIPOS>SUBSTRUCTURE
       1 MOL1            1 RESIDUE      1      MOL     
@<SCITEGIC>MOL_PROPERTY
VConf Rank
SciTegic.value.IntegerValue
695

@<SCITEGIC>MOL_PROPERTY
Conf_Id
SciTegic.value.IntegerValue
63

@<SCITEGIC>MOL_PROPERTY
Delta U+W
SciTegic.value.DoubleValue
0.420

@<SCITEGIC>MOL_PROPERTY
U+W
SciTegic.value.DoubleValue
-35.856

@<SCITEGIC>MOL_PROPERTY
Grad RMS
SciTegic.value.DoubleValue
0.000000

@<SCITEGIC>MOL_PROPERTY
U
SciTegic.value.DoubleValue
22.625

@<SCITEGIC>MOL_PROPERTY
W
SciTegic.value.DoubleValue
-58.481

@<SCITEGIC>MOL_PROPERTY
W(PB)
SciTegic.value.DoubleValue
-60.400

@<SCITEGIC>MOL_PROPERTY
W(SA)
SciTegic.value.DoubleValue
1.919

@<SCITEGIC>MOL_PROPERTY
Valence
SciTegic.value.DoubleValue
2.404

@<SCITEGIC>MOL_PROPERTY
Coulomb
SciTegic.value.DoubleValue
19.464

@<SCITEGIC>MOL_PROPERTY
VdW
SciTegic.value.DoubleValue
0.757

@<SCITEGIC>MOL_PROPERTY
VdW6
SciTegic.value.DoubleValue
-5.074

@<SCITEGIC>MOL_PROPERTY
VdW12
SciTegic.value.DoubleValue
5.830

@<SCITEGIC>MOL_PROPERTY
Bond
SciTegic.value.DoubleValue
0.172

@<SCITEGIC>MOL_PROPERTY
Angle
SciTegic.value.DoubleValue
1.207

@<SCITEGIC>MOL_PROPERTY
Pdih
SciTegic.value.DoubleValue
1.025

@<SCITEGIC>MOL_PROPERTY
Idih
SciTegic.value.DoubleValue
0.000

@<SCITEGIC>MOL_PROPERTY
Tether
SciTegic.value.DoubleValue
0.000

@<TRIPOS>MOLECULE
guest-s10_confgen4.mol2 : confsearch ligand conformer 696
          20          19           1
SMALL
USER_CHARGES
 
@<TRIPOS>ATOM
       1    N1      21.429154   18.912384   22.456900 N.4        1 MOL1        -0.5937
       2    H1      21.412726   19.911001   22.679094 H          1 MOL1         0.3684
       3    H2      21.613171   18.822798   21.454636 H          1 MOL1         0.3684
       4    H3      22.225411   18.502065   22.952031 H          1 MOL1         0.3684
       5    C1      20.136481   18.245262   22.841765 C.3        1 MOL1         0.1270
       6    H4      20.019412   18.384689   23.920646 H          1 MOL1         0.0960
       7    C2      20.199250   16.735459   22.558804 C.3        1 MOL1        -0.2382
       8    H5      21.041799   16.275518   23.089656 H          1 MOL1         0.1009
       9    H6      20.321278   16.536540   21.486753 H          1 MOL1         0.1009
      10    H7      19.281956   16.237223   22.896378 H          1 MOL1         0.1009
      11    C3      18.913651   18.874553   22.136312 C.3        1 MOL1        -0.1392
      12    H8      19.004700   18.730170   21.051555 H          1 MOL1         0.0998
      13    H9      18.007729   18.334571   22.442338 H          1 MOL1         0.0998
      14    C4      18.716559   20.383062   22.432035 C.3        1 MOL1        -0.1302
      15    H10     17.830880   20.736604   21.885699 H          1 MOL1         0.0998
      16    H11     19.563809   20.961270   22.039086 H          1 MOL1         0.0998
      17    C5      18.530958   20.686414   23.936328 C.3        1 MOL1        -0.2317
      18    H12     17.688188   20.118933   24.352122 H          1 MOL1         0.1009
      19    H13     18.324176   21.753404   24.090732 H          1 MOL1         0.1009
      20    H14     19.430071   20.437213   24.513730 H          1 MOL1         0.1009
@<TRIPOS>BOND
    1     1     2    1
    2     1     3    1
    3     1     4    1
    4     1     5    1
    5     5     6    1
    6     5     7    1
    7     7     8    1
    8     7     9    1
    9     7    10    1
   10     5    11    1
   11    11    12    1
   12    11    13    1
   13    11    14    1
   14    14    15    1
   15    14    16    1
   16    14    17    1
   17    17    18    1
   18    17    19    1
   19    17    20    1
@<TRIPOS>SUBSTRUCTURE
       1 MOL1            1 RESIDUE      1      MOL     
@<SCITEGIC>MOL_PROPERTY
VConf Rank
SciTegic.value.IntegerValue
696

@<SCITEGIC>MOL_PROPERTY
Conf_Id
SciTegic.value.IntegerValue
50

@<SCITEGIC>MOL_PROPERTY
Delta U+W
SciTegic.value.DoubleValue
0.466

@<SCITEGIC>MOL_PROPERTY
U+W
SciTegic.value.DoubleValue
-35.811

@<SCITEGIC>MOL_PROPERTY
Grad RMS
SciTegic.value.DoubleValue
0.000000

@<SCITEGIC>MOL_PROPERTY
U
SciTegic.value.DoubleValue
22.369

@<SCITEGIC>MOL_PROPERTY
W
SciTegic.value.DoubleValue
-58.180

@<SCITEGIC>MOL_PROPERTY
W(PB)
SciTegic.value.DoubleValue
-60.103

@<SCITEGIC>MOL_PROPERTY
W(SA)
SciTegic.value.DoubleValue
1.923

@<SCITEGIC>MOL_PROPERTY
Valence
SciTegic.value.DoubleValue
2.168

@<SCITEGIC>MOL_PROPERTY
Coulomb
SciTegic.value.DoubleValue
19.636

@<SCITEGIC>MOL_PROPERTY
VdW
SciTegic.value.DoubleValue
0.566

@<SCITEGIC>MOL_PROPERTY
VdW6
SciTegic.value.DoubleValue
-5.263

@<SCITEGIC>MOL_PROPERTY
VdW12
SciTegic.value.DoubleValue
5.829

@<SCITEGIC>MOL_PROPERTY
Bond
SciTegic.value.DoubleValue
0.162

@<SCITEGIC>MOL_PROPERTY
Angle
SciTegic.value.DoubleValue
1.066

@<SCITEGIC>MOL_PROPERTY
Pdih
SciTegic.value.DoubleValue
0.939

@<SCITEGIC>MOL_PROPERTY
Idih
SciTegic.value.DoubleValue
0.000

@<SCITEGIC>MOL_PROPERTY
Tether
SciTegic.value.DoubleValue
0.000

@<TRIPOS>MOLECULE
guest-s10_confgen4.mol2 : confsearch ligand conformer 697
          20          19           1
SMALL
USER_CHARGES
 
@<TRIPOS>ATOM
       1    N1      21.568486   19.250009   21.458752 N.4        1 MOL1        -0.5937
       2    H1      21.353841   20.094645   20.921617 H          1 MOL1         0.3684
       3    H2      21.620069   18.470554   20.797948 H          1 MOL1         0.3684
       4    H3      22.503522   19.374195   21.856269 H          1 MOL1         0.3684
       5    C1      20.543107   18.998711   22.531146 C.3        1 MOL1         0.1270
       6    H4      20.559075   19.879630   23.180367 H          1 MOL1         0.0960
       7    C2      20.941912   17.765231   23.362679 C.3        1 MOL1        -0.2382
       8    H5      20.984581   16.864391   22.737914 H          1 MOL1         0.1009
       9    H6      20.229592   17.578463   24.173547 H          1 MOL1         0.1009
      10    H7      21.929658   17.908940   23.817468 H          1 MOL1         0.1009
      11    C3      19.116497   18.857731   21.945364 C.3        1 MOL1        -0.1392
      12    H8      19.104114   19.267559   20.926757 H          1 MOL1         0.0998
      13    H9      18.847759   17.798095   21.840658 H          1 MOL1         0.0998
      14    C4      18.028329   19.605838   22.756540 C.3        1 MOL1        -0.1302
      15    H10     17.070288   19.514529   22.225736 H          1 MOL1         0.0998
      16    H11     18.261961   20.679558   22.781498 H          1 MOL1         0.0998
      17    C5      17.847642   19.087159   24.200340 C.3        1 MOL1        -0.2317
      18    H12     17.654809   18.006555   24.212108 H          1 MOL1         0.1009
      19    H13     16.995781   19.584165   24.682377 H          1 MOL1         0.1009
      20    H14     18.734658   19.290088   24.813245 H          1 MOL1         0.1009
@<TRIPOS>BOND
    1     1     2    1
    2     1     3    1
    3     1     4    1
    4     1     5    1
    5     5     6    1
    6     5     7    1
    7     7     8    1
    8     7     9    1
    9     7    10    1
   10     5    11    1
   11    11    12    1
   12    11    13    1
   13    11    14    1
   14    14    15    1
   15    14    16    1
   16    14    17    1
   17    17    18    1
   18    17    19    1
   19    17    20    1
@<TRIPOS>SUBSTRUCTURE
       1 MOL1            1 RESIDUE      1      MOL     
@<SCITEGIC>MOL_PROPERTY
VConf Rank
SciTegic.value.IntegerValue
697

@<SCITEGIC>MOL_PROPERTY
Conf_Id
SciTegic.value.IntegerValue
3

@<SCITEGIC>MOL_PROPERTY
Delta U+W
SciTegic.value.DoubleValue
3.093

@<SCITEGIC>MOL_PROPERTY
U+W
SciTegic.value.DoubleValue
-33.184

@<SCITEGIC>MOL_PROPERTY
Grad RMS
SciTegic.value.DoubleValue
0.000000

@<SCITEGIC>MOL_PROPERTY
U
SciTegic.value.DoubleValue
25.256

@<SCITEGIC>MOL_PROPERTY
W
SciTegic.value.DoubleValue
-58.439

@<SCITEGIC>MOL_PROPERTY
W(PB)
SciTegic.value.DoubleValue
-60.337

@<SCITEGIC>MOL_PROPERTY
W(SA)
SciTegic.value.DoubleValue
1.898

@<SCITEGIC>MOL_PROPERTY
Valence
SciTegic.value.DoubleValue
4.963

@<SCITEGIC>MOL_PROPERTY
Coulomb
SciTegic.value.DoubleValue
19.511

@<SCITEGIC>MOL_PROPERTY
VdW
SciTegic.value.DoubleValue
0.782

@<SCITEGIC>MOL_PROPERTY
VdW6
SciTegic.value.DoubleValue
-5.429

@<SCITEGIC>MOL_PROPERTY
VdW12
SciTegic.value.DoubleValue
6.211

@<SCITEGIC>MOL_PROPERTY
Bond
SciTegic.value.DoubleValue
0.174

@<SCITEGIC>MOL_PROPERTY
Angle
SciTegic.value.DoubleValue
1.377

@<SCITEGIC>MOL_PROPERTY
Pdih
SciTegic.value.DoubleValue
3.412

@<SCITEGIC>MOL_PROPERTY
Idih
SciTegic.value.DoubleValue
0.000

@<SCITEGIC>MOL_PROPERTY
Tether
SciTegic.value.DoubleValue
0.000

@<TRIPOS>MOLECULE
guest-s10_confgen4.mol2 : confsearch ligand conformer 698
          20          19           1
SMALL
USER_CHARGES
 
@<TRIPOS>ATOM
       1    N1      21.415594   18.860188   24.237072 N.4        1 MOL1        -0.5937
       2    H1      22.350600   18.532497   23.980133 H          1 MOL1         0.3684
       3    H2      21.071354   18.242175   24.976929 H          1 MOL1         0.3684
       4    H3      21.521424   19.793638   24.642235 H          1 MOL1         0.3684
       5    C1      20.491393   18.874354   23.050466 C.3        1 MOL1         0.1270
       6    H4      20.444303   17.843699   22.686282 H          1 MOL1         0.0960
       7    C2      21.070076   19.759370   21.931550 C.3        1 MOL1        -0.2382
       8    H5      20.482325   19.671028   21.010529 H          1 MOL1         0.1009
       9    H6      22.096764   19.457120   21.691364 H          1 MOL1         0.1009
      10    H7      21.086868   20.815197   22.228933 H          1 MOL1         0.1009
      11    C3      19.063997   19.311637   23.457593 C.3        1 MOL1        -0.1392
      12    H8      18.738346   18.699305   24.308785 H          1 MOL1         0.0998
      13    H9      19.090996   20.347588   23.820652 H          1 MOL1         0.0998
      14    C4      17.998576   19.195342   22.337567 C.3        1 MOL1        -0.1302
      15    H10     18.222721   19.897393   21.523223 H          1 MOL1         0.0998
      16    H11     17.026077   19.507486   22.743338 H          1 MOL1         0.0998
      17    C5      17.868360   17.762909   21.771591 C.3        1 MOL1        -0.2317
      18    H12     17.646735   17.041754   22.569071 H          1 MOL1         0.1009
      19    H13     18.788454   17.443908   21.265892 H          1 MOL1         0.1009
      20    H14     17.053344   17.711877   21.037996 H          1 MOL1         0.1009
@<TRIPOS>BOND
    1     1     2    1
    2     1     3    1
    3     1     4    1
    4     1     5    1
    5     5     6    1
    6     5     7    1
    7     7     8    1
    8     7     9    1
    9     7    10    1
   10     5    11    1
   11    11    12    1
   12    11    13    1
   13    11    14    1
   14    14    15    1
   15    14    16    1
   16    14    17    1
   17    17    18    1
   18    17    19    1
   19    17    20    1
@<TRIPOS>SUBSTRUCTURE
       1 MOL1            1 RESIDUE      1      MOL     
@<SCITEGIC>MOL_PROPERTY
VConf Rank
SciTegic.value.IntegerValue
698

@<SCITEGIC>MOL_PROPERTY
Conf_Id
SciTegic.value.IntegerValue
64

@<SCITEGIC>MOL_PROPERTY
Delta U+W
SciTegic.value.DoubleValue
0.544

@<SCITEGIC>MOL_PROPERTY
U+W
SciTegic.value.DoubleValue
-35.732

@<SCITEGIC>MOL_PROPERTY
Grad RMS
SciTegic.value.DoubleValue
0.000000

@<SCITEGIC>MOL_PROPERTY
U
SciTegic.value.DoubleValue
22.800

@<SCITEGIC>MOL_PROPERTY
W
SciTegic.value.DoubleValue
-58.532

@<SCITEGIC>MOL_PROPERTY
W(PB)
SciTegic.value.DoubleValue
-60.437

@<SCITEGIC>MOL_PROPERTY
W(SA)
SciTegic.value.DoubleValue
1.905

@<SCITEGIC>MOL_PROPERTY
Valence
SciTegic.value.DoubleValue
2.662

@<SCITEGIC>MOL_PROPERTY
Coulomb
SciTegic.value.DoubleValue
19.485

@<SCITEGIC>MOL_PROPERTY
VdW
SciTegic.value.DoubleValue
0.653

@<SCITEGIC>MOL_PROPERTY
VdW6
SciTegic.value.DoubleValue
-5.460

@<SCITEGIC>MOL_PROPERTY
VdW12
SciTegic.value.DoubleValue
6.113

@<SCITEGIC>MOL_PROPERTY
Bond
SciTegic.value.DoubleValue
0.174

@<SCITEGIC>MOL_PROPERTY
Angle
SciTegic.value.DoubleValue
1.378

@<SCITEGIC>MOL_PROPERTY
Pdih
SciTegic.value.DoubleValue
1.109

@<SCITEGIC>MOL_PROPERTY
Idih
SciTegic.value.DoubleValue
0.000

@<SCITEGIC>MOL_PROPERTY
Tether
SciTegic.value.DoubleValue
0.000

@<TRIPOS>MOLECULE
guest-s10_confgen4.mol2 : confsearch ligand conformer 699
          20          19           1
SMALL
USER_CHARGES
 
@<TRIPOS>ATOM
       1    N1      20.230381   18.249992   24.651691 N.4        1 MOL1        -0.5937
       2    H1      19.416879   18.847304   24.815110 H          1 MOL1         0.3684
       3    H2      20.939603   18.503136   25.344897 H          1 MOL1         0.3684
       4    H3      19.947341   17.285613   24.845394 H          1 MOL1         0.3684
       5    C1      20.753043   18.402502   23.248695 C.3        1 MOL1         0.1270
       6    H4      21.620190   17.738340   23.178634 H          1 MOL1         0.0960
       7    C2      21.251471   19.835873   23.002240 C.3        1 MOL1        -0.2382
       8    H5      20.461918   20.573148   23.188628 H          1 MOL1         0.1009
       9    H6      21.604822   19.955012   21.970597 H          1 MOL1         0.1009
      10    H7      22.089677   20.069718   23.669847 H          1 MOL1         0.1009
      11    C3      19.732488   17.926245   22.184464 C.3        1 MOL1        -0.1392
      12    H8      20.220284   17.892792   21.201391 H          1 MOL1         0.0998
      13    H9      19.479932   16.883156   22.416114 H          1 MOL1         0.0998
      14    C4      18.410328   18.737442   22.089188 C.3        1 MOL1        -0.1302
      15    H10     18.133475   19.151859   23.067447 H          1 MOL1         0.0998
      16    H11     17.599722   18.047005   21.816795 H          1 MOL1         0.0998
      17    C5      18.449745   19.861102   21.026841 C.3        1 MOL1        -0.2317
      18    H12     19.208071   20.618398   21.253604 H          1 MOL1         0.1009
      19    H13     17.479347   20.371350   20.972621 H          1 MOL1         0.1009
      20    H14     18.665899   19.452957   20.030981 H          1 MOL1         0.1009
@<TRIPOS>BOND
    1     1     2    1
    2     1     3    1
    3     1     4    1
    4     1     5    1
    5     5     6    1
    6     5     7    1
    7     7     8    1
    8     7     9    1
    9     7    10    1
   10     5    11    1
   11    11    12    1
   12    11    13    1
   13    11    14    1
   14    14    15    1
   15    14    16    1
   16    14    17    1
   17    17    18    1
   18    17    19    1
   19    17    20    1
@<TRIPOS>SUBSTRUCTURE
       1 MOL1            1 RESIDUE      1      MOL     
@<SCITEGIC>MOL_PROPERTY
VConf Rank
SciTegic.value.IntegerValue
699

@<SCITEGIC>MOL_PROPERTY
Conf_Id
SciTegic.value.IntegerValue
35

@<SCITEGIC>MOL_PROPERTY
Delta U+W
SciTegic.value.DoubleValue
3.004

@<SCITEGIC>MOL_PROPERTY
U+W
SciTegic.value.DoubleValue
-33.272

@<SCITEGIC>MOL_PROPERTY
Grad RMS
SciTegic.value.DoubleValue
0.000000

@<SCITEGIC>MOL_PROPERTY
U
SciTegic.value.DoubleValue
25.367

@<SCITEGIC>MOL_PROPERTY
W
SciTegic.value.DoubleValue
-58.639

@<SCITEGIC>MOL_PROPERTY
W(PB)
SciTegic.value.DoubleValue
-60.512

@<SCITEGIC>MOL_PROPERTY
W(SA)
SciTegic.value.DoubleValue
1.873

@<SCITEGIC>MOL_PROPERTY
Valence
SciTegic.value.DoubleValue
4.943

@<SCITEGIC>MOL_PROPERTY
Coulomb
SciTegic.value.DoubleValue
19.661

@<SCITEGIC>MOL_PROPERTY
VdW
SciTegic.value.DoubleValue
0.764

@<SCITEGIC>MOL_PROPERTY
VdW6
SciTegic.value.DoubleValue
-5.871

@<SCITEGIC>MOL_PROPERTY
VdW12
SciTegic.value.DoubleValue
6.636

@<SCITEGIC>MOL_PROPERTY
Bond
SciTegic.value.DoubleValue
0.230

@<SCITEGIC>MOL_PROPERTY
Angle
SciTegic.value.DoubleValue
1.857

@<SCITEGIC>MOL_PROPERTY
Pdih
SciTegic.value.DoubleValue
2.855

@<SCITEGIC>MOL_PROPERTY
Idih
SciTegic.value.DoubleValue
0.000

@<SCITEGIC>MOL_PROPERTY
Tether
SciTegic.value.DoubleValue
0.000

@<TRIPOS>MOLECULE
guest-s10_confgen4.mol2 : confsearch ligand conformer 700
          20          19           1
SMALL
USER_CHARGES
 
@<TRIPOS>ATOM
       1    N1      18.312342   18.244520   23.349876 N.4        1 MOL1        -0.5937
       2    H1      17.679211   18.378834   24.142786 H          1 MOL1         0.3684
       3    H2      18.138771   17.307342   22.976844 H          1 MOL1         0.3684
       4    H3      18.049029   18.915598   22.625778 H          1 MOL1         0.3684
       5    C1      19.750179   18.418024   23.756058 C.3        1 MOL1         0.1270
       6    H4      19.934000   17.643433   24.507155 H          1 MOL1         0.0960
       7    C2      19.981261   19.779251   24.435891 C.3        1 MOL1        -0.2382
       8    H5      19.725896   20.612649   23.770661 H          1 MOL1         0.1009
       9    H6      21.029728   19.889432   24.739202 H          1 MOL1         0.1009
      10    H7      19.363145   19.868308   25.337540 H          1 MOL1         0.1009
      11    C3      20.744498   18.161119   22.594748 C.3        1 MOL1        -0.1392
      12    H8      21.736502   17.998785   23.036470 H          1 MOL1         0.0998
      13    H9      20.484527   17.212274   22.107587 H          1 MOL1         0.0998
      14    C4      20.881637   19.270875   21.514826 C.3        1 MOL1        -0.1302
      15    H10     21.651609   18.953110   20.797893 H          1 MOL1         0.0998
      16    H11     21.263933   20.196496   21.966164 H          1 MOL1         0.0998
      17    C5      19.584199   19.572212   20.730751 C.3        1 MOL1        -0.2317
      18    H12     19.132191   18.651443   20.339581 H          1 MOL1         0.1009
      19    H13     19.800448   20.225622   19.875496 H          1 MOL1         0.1009
      20    H14     18.847504   20.092216   21.353762 H          1 MOL1         0.1009
@<TRIPOS>BOND
    1     1     2    1
    2     1     3    1
    3     1     4    1
    4     1     5    1
    5     5     6    1
    6     5     7    1
    7     7     8    1
    8     7     9    1
    9     7    10    1
   10     5    11    1
   11    11    12    1
   12    11    13    1
   13    11    14    1
   14    14    15    1
   15    14    16    1
   16    14    17    1
   17    17    18    1
   18    17    19    1
   19    17    20    1
@<TRIPOS>SUBSTRUCTURE
       1 MOL1            1 RESIDUE      1      MOL     
@<SCITEGIC>MOL_PROPERTY
VConf Rank
SciTegic.value.IntegerValue
700

@<SCITEGIC>MOL_PROPERTY
Conf_Id
SciTegic.value.IntegerValue
55

@<SCITEGIC>MOL_PROPERTY
Delta U+W
SciTegic.value.DoubleValue
2.767

@<SCITEGIC>MOL_PROPERTY
U+W
SciTegic.value.DoubleValue
-33.509

@<SCITEGIC>MOL_PROPERTY
Grad RMS
SciTegic.value.DoubleValue
0.000000

@<SCITEGIC>MOL_PROPERTY
U
SciTegic.value.DoubleValue
24.552

@<SCITEGIC>MOL_PROPERTY
W
SciTegic.value.DoubleValue
-58.061

@<SCITEGIC>MOL_PROPERTY
W(PB)
SciTegic.value.DoubleValue
-59.930

@<SCITEGIC>MOL_PROPERTY
W(SA)
SciTegic.value.DoubleValue
1.869

@<SCITEGIC>MOL_PROPERTY
Valence
SciTegic.value.DoubleValue
3.726

@<SCITEGIC>MOL_PROPERTY
Coulomb
SciTegic.value.DoubleValue
20.219

@<SCITEGIC>MOL_PROPERTY
VdW
SciTegic.value.DoubleValue
0.606

@<SCITEGIC>MOL_PROPERTY
VdW6
SciTegic.value.DoubleValue
-6.395

@<SCITEGIC>MOL_PROPERTY
VdW12
SciTegic.value.DoubleValue
7.001

@<SCITEGIC>MOL_PROPERTY
Bond
SciTegic.value.DoubleValue
0.241

@<SCITEGIC>MOL_PROPERTY
Angle
SciTegic.value.DoubleValue
2.098

@<SCITEGIC>MOL_PROPERTY
Pdih
SciTegic.value.DoubleValue
1.387

@<SCITEGIC>MOL_PROPERTY
Idih
SciTegic.value.DoubleValue
0.000

@<SCITEGIC>MOL_PROPERTY
Tether
SciTegic.value.DoubleValue
0.000

@<TRIPOS>MOLECULE
guest-s10_confgen4.mol2 : confsearch ligand conformer 701
          20          19           1
SMALL
USER_CHARGES
 
@<TRIPOS>ATOM
       1    N1      21.028859   19.092997   21.227572 N.4        1 MOL1        -0.5937
       2    H1      21.545144   18.230087   21.415670 H          1 MOL1         0.3684
       3    H2      21.653555   19.715205   20.707697 H          1 MOL1         0.3684
       4    H3      20.250439   18.856735   20.607231 H          1 MOL1         0.3684
       5    C1      20.545828   19.735150   22.500121 C.3        1 MOL1         0.1270
       6    H4      20.005140   20.641421   22.209919 H          1 MOL1         0.0960
       7    C2      21.735602   20.146665   23.382766 C.3        1 MOL1        -0.2382
       8    H5      22.407731   20.821670   22.838824 H          1 MOL1         0.1009
       9    H6      22.315151   19.271428   23.701947 H          1 MOL1         0.1009
      10    H7      21.391026   20.674074   24.280956 H          1 MOL1         0.1009
      11    C3      19.578002   18.828487   23.292223 C.3        1 MOL1        -0.1392
      12    H8      20.090175   17.899397   23.575747 H          1 MOL1         0.0998
      13    H9      19.305730   19.333752   24.228515 H          1 MOL1         0.0998
      14    C4      18.284160   18.495122   22.510968 C.3        1 MOL1        -0.1302
      15    H10     18.525978   17.938405   21.595537 H          1 MOL1         0.0998
      16    H11     17.791141   19.425923   22.196668 H          1 MOL1         0.0998
      17    C5      17.303710   17.659846   23.362047 C.3        1 MOL1        -0.2317
      18    H12     17.757495   16.707774   23.666833 H          1 MOL1         0.1009
      19    H13     16.393363   17.431595   22.792613 H          1 MOL1         0.1009
      20    H14     17.005776   18.202194   24.268869 H          1 MOL1         0.1009
@<TRIPOS>BOND
    1     1     2    1
    2     1     3    1
    3     1     4    1
    4     1     5    1
    5     5     6    1
    6     5     7    1
    7     7     8    1
    8     7     9    1
    9     7    10    1
   10     5    11    1
   11    11    12    1
   12    11    13    1
   13    11    14    1
   14    14    15    1
   15    14    16    1
   16    14    17    1
   17    17    18    1
   18    17    19    1
   19    17    20    1
@<TRIPOS>SUBSTRUCTURE
       1 MOL1            1 RESIDUE      1      MOL     
@<SCITEGIC>MOL_PROPERTY
VConf Rank
SciTegic.value.IntegerValue
701

@<SCITEGIC>MOL_PROPERTY
Conf_Id
SciTegic.value.IntegerValue
74

@<SCITEGIC>MOL_PROPERTY
Delta U+W
SciTegic.value.DoubleValue
0.000

@<SCITEGIC>MOL_PROPERTY
U+W
SciTegic.value.DoubleValue
-36.276

@<SCITEGIC>MOL_PROPERTY
Grad RMS
SciTegic.value.DoubleValue
0.000000

@<SCITEGIC>MOL_PROPERTY
U
SciTegic.value.DoubleValue
22.080

@<SCITEGIC>MOL_PROPERTY
W
SciTegic.value.DoubleValue
-58.356

@<SCITEGIC>MOL_PROPERTY
W(PB)
SciTegic.value.DoubleValue
-60.289

@<SCITEGIC>MOL_PROPERTY
W(SA)
SciTegic.value.DoubleValue
1.932

@<SCITEGIC>MOL_PROPERTY
Valence
SciTegic.value.DoubleValue
1.885

@<SCITEGIC>MOL_PROPERTY
Coulomb
SciTegic.value.DoubleValue
19.559

@<SCITEGIC>MOL_PROPERTY
VdW
SciTegic.value.DoubleValue
0.637

@<SCITEGIC>MOL_PROPERTY
VdW6
SciTegic.value.DoubleValue
-4.482

@<SCITEGIC>MOL_PROPERTY
VdW12
SciTegic.value.DoubleValue
5.119

@<SCITEGIC>MOL_PROPERTY
Bond
SciTegic.value.DoubleValue
0.136

@<SCITEGIC>MOL_PROPERTY
Angle
SciTegic.value.DoubleValue
0.867

@<SCITEGIC>MOL_PROPERTY
Pdih
SciTegic.value.DoubleValue
0.882

@<SCITEGIC>MOL_PROPERTY
Idih
SciTegic.value.DoubleValue
0.000

@<SCITEGIC>MOL_PROPERTY
Tether
SciTegic.value.DoubleValue
0.000

@<TRIPOS>MOLECULE
guest-s10_confgen4.mol2 : confsearch ligand conformer 702
          20          19           1
SMALL
USER_CHARGES
 
@<TRIPOS>ATOM
       1    N1      18.354661   20.582586   23.759913 N.4        1 MOL1        -0.5937
       2    H1      17.509928   20.539237   23.183368 H          1 MOL1         0.3684
       3    H2      18.879350   21.412586   23.472638 H          1 MOL1         0.3684
       4    H3      18.053267   20.732794   24.726494 H          1 MOL1         0.3684
       5    C1      19.181681   19.333067   23.628732 C.3        1 MOL1         0.1270
       6    H4      18.544791   18.506100   23.957915 H          1 MOL1         0.0960
       7    C2      20.406526   19.403409   24.559111 C.3        1 MOL1        -0.2382
       8    H5      20.098748   19.635163   25.586138 H          1 MOL1         0.1009
       9    H6      21.109839   20.179219   24.231928 H          1 MOL1         0.1009
      10    H7      20.939994   18.446497   24.590006 H          1 MOL1         0.1009
      11    C3      19.581545   19.078956   22.156651 C.3        1 MOL1        -0.1392
      12    H8      18.679330   19.148409   21.534681 H          1 MOL1         0.0998
      13    H9      20.256672   19.874456   21.814257 H          1 MOL1         0.0998
      14    C4      20.238655   17.697761   21.916506 C.3        1 MOL1        -0.1302
      15    H10     19.591156   16.904670   22.316283 H          1 MOL1         0.0998
      16    H11     21.193538   17.631135   22.454706 H          1 MOL1         0.0998
      17    C5      20.493929   17.441575   20.415544 C.3        1 MOL1        -0.2317
      18    H12     19.555458   17.456777   19.846089 H          1 MOL1         0.1009
      19    H13     20.962994   16.460716   20.263946 H          1 MOL1         0.1009
      20    H14     21.162396   18.203128   19.993112 H          1 MOL1         0.1009
@<TRIPOS>BOND
    1     1     2    1
    2     1     3    1
    3     1     4    1
    4     1     5    1
    5     5     6    1
    6     5     7    1
    7     7     8    1
    8     7     9    1
    9     7    10    1
   10     5    11    1
   11    11    12    1
   12    11    13    1
   13    11    14    1
   14    14    15    1
   15    14    16    1
   16    14    17    1
   17    17    18    1
   18    17    19    1
   19    17    20    1
@<TRIPOS>SUBSTRUCTURE
       1 MOL1            1 RESIDUE      1      MOL     
@<SCITEGIC>MOL_PROPERTY
VConf Rank
SciTegic.value.IntegerValue
702

@<SCITEGIC>MOL_PROPERTY
Conf_Id
SciTegic.value.IntegerValue
80

@<SCITEGIC>MOL_PROPERTY
Delta U+W
SciTegic.value.DoubleValue
0.460

@<SCITEGIC>MOL_PROPERTY
U+W
SciTegic.value.DoubleValue
-35.817

@<SCITEGIC>MOL_PROPERTY
Grad RMS
SciTegic.value.DoubleValue
0.000000

@<SCITEGIC>MOL_PROPERTY
U
SciTegic.value.DoubleValue
22.495

@<SCITEGIC>MOL_PROPERTY
W
SciTegic.value.DoubleValue
-58.311

@<SCITEGIC>MOL_PROPERTY
W(PB)
SciTegic.value.DoubleValue
-60.259

@<SCITEGIC>MOL_PROPERTY
W(SA)
SciTegic.value.DoubleValue
1.948

@<SCITEGIC>MOL_PROPERTY
Valence
SciTegic.value.DoubleValue
2.419

@<SCITEGIC>MOL_PROPERTY
Coulomb
SciTegic.value.DoubleValue
19.304

@<SCITEGIC>MOL_PROPERTY
VdW
SciTegic.value.DoubleValue
0.772

@<SCITEGIC>MOL_PROPERTY
VdW6
SciTegic.value.DoubleValue
-4.635

@<SCITEGIC>MOL_PROPERTY
VdW12
SciTegic.value.DoubleValue
5.407

@<SCITEGIC>MOL_PROPERTY
Bond
SciTegic.value.DoubleValue
0.149

@<SCITEGIC>MOL_PROPERTY
Angle
SciTegic.value.DoubleValue
1.142

@<SCITEGIC>MOL_PROPERTY
Pdih
SciTegic.value.DoubleValue
1.129

@<SCITEGIC>MOL_PROPERTY
Idih
SciTegic.value.DoubleValue
0.000

@<SCITEGIC>MOL_PROPERTY
Tether
SciTegic.value.DoubleValue
0.000

@<TRIPOS>MOLECULE
guest-s10_confgen4.mol2 : confsearch ligand conformer 703
          20          19           1
SMALL
USER_CHARGES
 
@<TRIPOS>ATOM
       1    N1      17.387837   19.244563   22.530112 N.4        1 MOL1        -0.5937
       2    H1      17.162653   19.766056   21.678555 H          1 MOL1         0.3684
       3    H2      17.332625   19.899447   23.314183 H          1 MOL1         0.3684
       4    H3      16.649087   18.548629   22.662545 H          1 MOL1         0.3684
       5    C1      18.743754   18.598881   22.444479 C.3        1 MOL1         0.1270
       6    H4      18.705052   17.917780   21.588673 H          1 MOL1         0.0960
       7    C2      19.016670   17.764323   23.707526 C.3        1 MOL1        -0.2382
       8    H5      18.175528   17.092245   23.917131 H          1 MOL1         0.1009
       9    H6      19.166764   18.406318   24.584320 H          1 MOL1         0.1009
      10    H7      19.905180   17.135923   23.578411 H          1 MOL1         0.1009
      11    C3      19.844628   19.652510   22.170112 C.3        1 MOL1        -0.1392
      12    H8      19.544496   20.217574   21.277747 H          1 MOL1         0.0998
      13    H9      19.881741   20.384274   22.987959 H          1 MOL1         0.0998
      14    C4      21.258432   19.070020   21.906471 C.3        1 MOL1        -0.1302
      15    H10     21.750757   19.680482   21.136361 H          1 MOL1         0.0998
      16    H11     21.182284   18.057971   21.484659 H          1 MOL1         0.0998
      17    C5      22.164892   19.064637   23.160001 C.3        1 MOL1        -0.2317
      18    H12     22.308244   20.082894   23.544343 H          1 MOL1         0.1009
      19    H13     23.155467   18.659524   22.915810 H          1 MOL1         0.1009
      20    H14     21.747745   18.455008   23.969250 H          1 MOL1         0.1009
@<TRIPOS>BOND
    1     1     2    1
    2     1     3    1
    3     1     4    1
    4     1     5    1
    5     5     6    1
    6     5     7    1
    7     7     8    1
    8     7     9    1
    9     7    10    1
   10     5    11    1
   11    11    12    1
   12    11    13    1
   13    11    14    1
   14    14    15    1
   15    14    16    1
   16    14    17    1
   17    17    18    1
   18    17    19    1
   19    17    20    1
@<TRIPOS>SUBSTRUCTURE
       1 MOL1            1 RESIDUE      1      MOL     
@<SCITEGIC>MOL_PROPERTY
VConf Rank
SciTegic.value.IntegerValue
703

@<SCITEGIC>MOL_PROPERTY
Conf_Id
SciTegic.value.IntegerValue
52

@<SCITEGIC>MOL_PROPERTY
Delta U+W
SciTegic.value.DoubleValue
2.995

@<SCITEGIC>MOL_PROPERTY
U+W
SciTegic.value.DoubleValue
-33.282

@<SCITEGIC>MOL_PROPERTY
Grad RMS
SciTegic.value.DoubleValue
0.000000

@<SCITEGIC>MOL_PROPERTY
U
SciTegic.value.DoubleValue
25.224

@<SCITEGIC>MOL_PROPERTY
W
SciTegic.value.DoubleValue
-58.506

@<SCITEGIC>MOL_PROPERTY
W(PB)
SciTegic.value.DoubleValue
-60.411

@<SCITEGIC>MOL_PROPERTY
W(SA)
SciTegic.value.DoubleValue
1.905

@<SCITEGIC>MOL_PROPERTY
Valence
SciTegic.value.DoubleValue
4.945

@<SCITEGIC>MOL_PROPERTY
Coulomb
SciTegic.value.DoubleValue
19.467

@<SCITEGIC>MOL_PROPERTY
VdW
SciTegic.value.DoubleValue
0.813

@<SCITEGIC>MOL_PROPERTY
VdW6
SciTegic.value.DoubleValue
-5.458

@<SCITEGIC>MOL_PROPERTY
VdW12
SciTegic.value.DoubleValue
6.270

@<SCITEGIC>MOL_PROPERTY
Bond
SciTegic.value.DoubleValue
0.200

@<SCITEGIC>MOL_PROPERTY
Angle
SciTegic.value.DoubleValue
1.675

@<SCITEGIC>MOL_PROPERTY
Pdih
SciTegic.value.DoubleValue
3.070

@<SCITEGIC>MOL_PROPERTY
Idih
SciTegic.value.DoubleValue
0.000

@<SCITEGIC>MOL_PROPERTY
Tether
SciTegic.value.DoubleValue
0.000

@<TRIPOS>MOLECULE
guest-s10_confgen4.mol2 : confsearch ligand conformer 704
          20          19           1
SMALL
USER_CHARGES
 
@<TRIPOS>ATOM
       1    N1      19.480045   19.054773   21.143372 N.4        1 MOL1        -0.5937
       2    H1      18.776799   19.786903   21.017642 H          1 MOL1         0.3684
       3    H2      19.442748   18.449707   20.318659 H          1 MOL1         0.3684
       4    H3      20.395927   19.508715   21.152420 H          1 MOL1         0.3684
       5    C1      19.242886   18.278111   22.409785 C.3        1 MOL1         0.1270
       6    H4      19.999448   17.488340   22.449911 H          1 MOL1         0.0960
       7    C2      17.856450   17.613810   22.362237 C.3        1 MOL1        -0.2382
       8    H5      17.056934   18.364802   22.336857 H          1 MOL1         0.1009
       9    H6      17.698182   16.975529   23.240414 H          1 MOL1         0.1009
      10    H7      17.759106   16.980532   21.471834 H          1 MOL1         0.1009
      11    C3      19.380750   19.148306   23.681788 C.3        1 MOL1        -0.1392
      12    H8      18.821207   20.084779   23.557280 H          1 MOL1         0.0998
      13    H9      18.902445   18.622566   24.518989 H          1 MOL1         0.0998
      14    C4      20.841502   19.451240   24.107280 C.3        1 MOL1        -0.1302
      15    H10     21.381123   18.508639   24.275644 H          1 MOL1         0.0998
      16    H11     20.815495   19.962408   25.079935 H          1 MOL1         0.0998
      17    C5      21.637270   20.331244   23.116547 C.3        1 MOL1        -0.2317
      18    H12     22.576726   20.664744   23.576425 H          1 MOL1         0.1009
      19    H13     21.069913   21.227493   22.833423 H          1 MOL1         0.1009
      20    H14     21.905438   19.777628   22.209334 H          1 MOL1         0.1009
@<TRIPOS>BOND
    1     1     2    1
    2     1     3    1
    3     1     4    1
    4     1     5    1
    5     5     6    1
    6     5     7    1
    7     7     8    1
    8     7     9    1
    9     7    10    1
   10     5    11    1
   11    11    12    1
   12    11    13    1
   13    11    14    1
   14    14    15    1
   15    14    16    1
   16    14    17    1
   17    17    18    1
   18    17    19    1
   19    17    20    1
@<TRIPOS>SUBSTRUCTURE
       1 MOL1            1 RESIDUE      1      MOL     
@<SCITEGIC>MOL_PROPERTY
VConf Rank
SciTegic.value.IntegerValue
704

@<SCITEGIC>MOL_PROPERTY
Conf_Id
SciTegic.value.IntegerValue
54

@<SCITEGIC>MOL_PROPERTY
Delta U+W
SciTegic.value.DoubleValue
2.752

@<SCITEGIC>MOL_PROPERTY
U+W
SciTegic.value.DoubleValue
-33.525

@<SCITEGIC>MOL_PROPERTY
Grad RMS
SciTegic.value.DoubleValue
0.000000

@<SCITEGIC>MOL_PROPERTY
U
SciTegic.value.DoubleValue
24.337

@<SCITEGIC>MOL_PROPERTY
W
SciTegic.value.DoubleValue
-57.862

@<SCITEGIC>MOL_PROPERTY
W(PB)
SciTegic.value.DoubleValue
-59.764

@<SCITEGIC>MOL_PROPERTY
W(SA)
SciTegic.value.DoubleValue
1.901

@<SCITEGIC>MOL_PROPERTY
Valence
SciTegic.value.DoubleValue
3.593

@<SCITEGIC>MOL_PROPERTY
Coulomb
SciTegic.value.DoubleValue
20.067

@<SCITEGIC>MOL_PROPERTY
VdW
SciTegic.value.DoubleValue
0.677

@<SCITEGIC>MOL_PROPERTY
VdW6
SciTegic.value.DoubleValue
-5.466

@<SCITEGIC>MOL_PROPERTY
VdW12
SciTegic.value.DoubleValue
6.144

@<SCITEGIC>MOL_PROPERTY
Bond
SciTegic.value.DoubleValue
0.191

@<SCITEGIC>MOL_PROPERTY
Angle
SciTegic.value.DoubleValue
1.557

@<SCITEGIC>MOL_PROPERTY
Pdih
SciTegic.value.DoubleValue
1.845

@<SCITEGIC>MOL_PROPERTY
Idih
SciTegic.value.DoubleValue
0.000

@<SCITEGIC>MOL_PROPERTY
Tether
SciTegic.value.DoubleValue
0.000

@<TRIPOS>MOLECULE
guest-s10_confgen4.mol2 : confsearch ligand conformer 705
          20          19           1
SMALL
USER_CHARGES
 
@<TRIPOS>ATOM
       1    N1      17.915303   18.590582   23.559581 N.4        1 MOL1        -0.5937
       2    H1      17.143403   17.920932   23.617829 H          1 MOL1         0.3684
       3    H2      17.519556   19.523458   23.703933 H          1 MOL1         0.3684
       4    H3      18.545027   18.399388   24.342103 H          1 MOL1         0.3684
       5    C1      18.631717   18.491684   22.240165 C.3        1 MOL1         0.1270
       6    H4      17.879178   18.693195   21.471335 H          1 MOL1         0.0960
       7    C2      19.164165   17.066812   22.005469 C.3        1 MOL1        -0.2382
       8    H5      19.687233   16.999310   21.043536 H          1 MOL1         0.1009
       9    H6      18.336871   16.346929   21.984544 H          1 MOL1         0.1009
      10    H7      19.857253   16.756734   22.796370 H          1 MOL1         0.1009
      11    C3      19.740813   19.559981   22.086221 C.3        1 MOL1        -0.1392
      12    H8      20.159211   19.490839   21.073354 H          1 MOL1         0.0998
      13    H9      19.277648   20.553150   22.153304 H          1 MOL1         0.0998
      14    C4      20.890427   19.464043   23.122333 C.3        1 MOL1        -0.1302
      15    H10     21.400514   18.495388   23.035544 H          1 MOL1         0.0998
      16    H11     20.487568   19.522144   24.142378 H          1 MOL1         0.0998
      17    C5      21.925689   20.592263   22.925661 C.3        1 MOL1        -0.2317
      18    H12     22.733750   20.510108   23.664143 H          1 MOL1         0.1009
      19    H13     21.461413   21.580035   23.043877 H          1 MOL1         0.1009
      20    H14     22.377337   20.544329   21.926191 H          1 MOL1         0.1009
@<TRIPOS>BOND
    1     1     2    1
    2     1     3    1
    3     1     4    1
    4     1     5    1
    5     5     6    1
    6     5     7    1
    7     7     8    1
    8     7     9    1
    9     7    10    1
   10     5    11    1
   11    11    12    1
   12    11    13    1
   13    11    14    1
   14    14    15    1
   15    14    16    1
   16    14    17    1
   17    17    18    1
   18    17    19    1
   19    17    20    1
@<TRIPOS>SUBSTRUCTURE
       1 MOL1            1 RESIDUE      1      MOL     
@<SCITEGIC>MOL_PROPERTY
VConf Rank
SciTegic.value.IntegerValue
705

@<SCITEGIC>MOL_PROPERTY
Conf_Id
SciTegic.value.IntegerValue
63

@<SCITEGIC>MOL_PROPERTY
Delta U+W
SciTegic.value.DoubleValue
0.420

@<SCITEGIC>MOL_PROPERTY
U+W
SciTegic.value.DoubleValue
-35.856

@<SCITEGIC>MOL_PROPERTY
Grad RMS
SciTegic.value.DoubleValue
0.000000

@<SCITEGIC>MOL_PROPERTY
U
SciTegic.value.DoubleValue
22.625

@<SCITEGIC>MOL_PROPERTY
W
SciTegic.value.DoubleValue
-58.481

@<SCITEGIC>MOL_PROPERTY
W(PB)
SciTegic.value.DoubleValue
-60.400

@<SCITEGIC>MOL_PROPERTY
W(SA)
SciTegic.value.DoubleValue
1.919

@<SCITEGIC>MOL_PROPERTY
Valence
SciTegic.value.DoubleValue
2.404

@<SCITEGIC>MOL_PROPERTY
Coulomb
SciTegic.value.DoubleValue
19.464

@<SCITEGIC>MOL_PROPERTY
VdW
SciTegic.value.DoubleValue
0.757

@<SCITEGIC>MOL_PROPERTY
VdW6
SciTegic.value.DoubleValue
-5.074

@<SCITEGIC>MOL_PROPERTY
VdW12
SciTegic.value.DoubleValue
5.830

@<SCITEGIC>MOL_PROPERTY
Bond
SciTegic.value.DoubleValue
0.172

@<SCITEGIC>MOL_PROPERTY
Angle
SciTegic.value.DoubleValue
1.207

@<SCITEGIC>MOL_PROPERTY
Pdih
SciTegic.value.DoubleValue
1.025

@<SCITEGIC>MOL_PROPERTY
Idih
SciTegic.value.DoubleValue
0.000

@<SCITEGIC>MOL_PROPERTY
Tether
SciTegic.value.DoubleValue
0.000

@<TRIPOS>MOLECULE
guest-s10_confgen4.mol2 : confsearch ligand conformer 706
          20          19           1
SMALL
USER_CHARGES
 
@<TRIPOS>ATOM
       1    N1      18.787174   19.162505   21.243800 N.4        1 MOL1        -0.5937
       2    H1      18.083057   19.626061   21.823635 H          1 MOL1         0.3684
       3    H2      18.399309   18.263315   20.948096 H          1 MOL1         0.3684
       4    H3      18.914206   19.732241   20.403082 H          1 MOL1         0.3684
       5    C1      20.080958   18.985614   21.991470 C.3        1 MOL1         0.1270
       6    H4      20.425369   19.987235   22.265818 H          1 MOL1         0.0960
       7    C2      21.146886   18.344212   21.088191 C.3        1 MOL1        -0.2382
       8    H5      21.304360   18.946703   20.185172 H          1 MOL1         0.1009
       9    H6      20.849932   17.334625   20.777859 H          1 MOL1         0.1009
      10    H7      22.108569   18.271749   21.611199 H          1 MOL1         0.1009
      11    C3      19.906863   18.161212   23.287246 C.3        1 MOL1        -0.1392
      12    H8      19.576717   17.145668   23.031303 H          1 MOL1         0.0998
      13    H9      20.884616   18.051746   23.775042 H          1 MOL1         0.0998
      14    C4      18.911200   18.776959   24.302828 C.3        1 MOL1        -0.1302
      15    H10     18.853332   18.120248   25.182194 H          1 MOL1         0.0998
      16    H11     17.899074   18.799922   23.876636 H          1 MOL1         0.0998
      17    C5      19.315515   20.196007   24.763481 C.3        1 MOL1        -0.2317
      18    H12     20.325408   20.198221   25.193936 H          1 MOL1         0.1009
      19    H13     18.623371   20.562295   25.532791 H          1 MOL1         0.1009
      20    H14     19.295441   20.912594   23.932821 H          1 MOL1         0.1009
@<TRIPOS>BOND
    1     1     2    1
    2     1     3    1
    3     1     4    1
    4     1     5    1
    5     5     6    1
    6     5     7    1
    7     7     8    1
    8     7     9    1
    9     7    10    1
   10     5    11    1
   11    11    12    1
   12    11    13    1
   13    11    14    1
   14    14    15    1
   15    14    16    1
   16    14    17    1
   17    17    18    1
   18    17    19    1
   19    17    20    1
@<TRIPOS>SUBSTRUCTURE
       1 MOL1            1 RESIDUE      1      MOL     
@<SCITEGIC>MOL_PROPERTY
VConf Rank
SciTegic.value.IntegerValue
706

@<SCITEGIC>MOL_PROPERTY
Conf_Id
SciTegic.value.IntegerValue
50

@<SCITEGIC>MOL_PROPERTY
Delta U+W
SciTegic.value.DoubleValue
0.466

@<SCITEGIC>MOL_PROPERTY
U+W
SciTegic.value.DoubleValue
-35.811

@<SCITEGIC>MOL_PROPERTY
Grad RMS
SciTegic.value.DoubleValue
0.000000

@<SCITEGIC>MOL_PROPERTY
U
SciTegic.value.DoubleValue
22.369

@<SCITEGIC>MOL_PROPERTY
W
SciTegic.value.DoubleValue
-58.180

@<SCITEGIC>MOL_PROPERTY
W(PB)
SciTegic.value.DoubleValue
-60.103

@<SCITEGIC>MOL_PROPERTY
W(SA)
SciTegic.value.DoubleValue
1.923

@<SCITEGIC>MOL_PROPERTY
Valence
SciTegic.value.DoubleValue
2.168

@<SCITEGIC>MOL_PROPERTY
Coulomb
SciTegic.value.DoubleValue
19.636

@<SCITEGIC>MOL_PROPERTY
VdW
SciTegic.value.DoubleValue
0.566

@<SCITEGIC>MOL_PROPERTY
VdW6
SciTegic.value.DoubleValue
-5.263

@<SCITEGIC>MOL_PROPERTY
VdW12
SciTegic.value.DoubleValue
5.829

@<SCITEGIC>MOL_PROPERTY
Bond
SciTegic.value.DoubleValue
0.162

@<SCITEGIC>MOL_PROPERTY
Angle
SciTegic.value.DoubleValue
1.066

@<SCITEGIC>MOL_PROPERTY
Pdih
SciTegic.value.DoubleValue
0.939

@<SCITEGIC>MOL_PROPERTY
Idih
SciTegic.value.DoubleValue
0.000

@<SCITEGIC>MOL_PROPERTY
Tether
SciTegic.value.DoubleValue
0.000

@<TRIPOS>MOLECULE
guest-s10_confgen4.mol2 : confsearch ligand conformer 707
          20          19           1
SMALL
USER_CHARGES
 
@<TRIPOS>ATOM
       1    N1      19.612636   20.366364   24.538364 N.4        1 MOL1        -0.5937
       2    H1      19.671190   21.293909   24.109146 H          1 MOL1         0.3684
       3    H2      20.469527   20.223336   25.078875 H          1 MOL1         0.3684
       4    H3      18.834230   20.389413   25.202659 H          1 MOL1         0.3684
       5    C1      19.423753   19.287959   23.505916 C.3        1 MOL1         0.1270
       6    H4      18.492840   19.527020   22.982455 H          1 MOL1         0.0960
       7    C2      19.265068   17.920157   24.195773 C.3        1 MOL1        -0.2382
       8    H5      20.161656   17.662322   24.773109 H          1 MOL1         0.1009
       9    H6      19.091973   17.119690   23.468394 H          1 MOL1         0.1009
      10    H7      18.410936   17.931409   24.883857 H          1 MOL1         0.1009
      11    C3      20.571506   19.275417   22.466330 C.3        1 MOL1        -0.1392
      12    H8      21.111647   20.230129   22.515776 H          1 MOL1         0.0998
      13    H9      21.310913   18.504254   22.720492 H          1 MOL1         0.0998
      14    C4      20.091740   19.092371   21.004106 C.3        1 MOL1        -0.1302
      15    H10     20.961129   19.174622   20.336777 H          1 MOL1         0.0998
      16    H11     19.419318   19.918149   20.732040 H          1 MOL1         0.0998
      17    C5      19.384428   17.745758   20.734701 C.3        1 MOL1        -0.2317
      18    H12     20.015014   16.899436   21.036577 H          1 MOL1         0.1009
      19    H13     19.165790   17.634974   19.664670 H          1 MOL1         0.1009
      20    H14     18.430386   17.679358   21.272312 H          1 MOL1         0.1009
@<TRIPOS>BOND
    1     1     2    1
    2     1     3    1
    3     1     4    1
    4     1     5    1
    5     5     6    1
    6     5     7    1
    7     7     8    1
    8     7     9    1
    9     7    10    1
   10     5    11    1
   11    11    12    1
   12    11    13    1
   13    11    14    1
   14    14    15    1
   15    14    16    1
   16    14    17    1
   17    17    18    1
   18    17    19    1
   19    17    20    1
@<TRIPOS>SUBSTRUCTURE
       1 MOL1            1 RESIDUE      1      MOL     
@<SCITEGIC>MOL_PROPERTY
VConf Rank
SciTegic.value.IntegerValue
707

@<SCITEGIC>MOL_PROPERTY
Conf_Id
SciTegic.value.IntegerValue
3

@<SCITEGIC>MOL_PROPERTY
Delta U+W
SciTegic.value.DoubleValue
3.093

@<SCITEGIC>MOL_PROPERTY
U+W
SciTegic.value.DoubleValue
-33.184

@<SCITEGIC>MOL_PROPERTY
Grad RMS
SciTegic.value.DoubleValue
0.000000

@<SCITEGIC>MOL_PROPERTY
U
SciTegic.value.DoubleValue
25.256

@<SCITEGIC>MOL_PROPERTY
W
SciTegic.value.DoubleValue
-58.439

@<SCITEGIC>MOL_PROPERTY
W(PB)
SciTegic.value.DoubleValue
-60.337

@<SCITEGIC>MOL_PROPERTY
W(SA)
SciTegic.value.DoubleValue
1.898

@<SCITEGIC>MOL_PROPERTY
Valence
SciTegic.value.DoubleValue
4.963

@<SCITEGIC>MOL_PROPERTY
Coulomb
SciTegic.value.DoubleValue
19.511

@<SCITEGIC>MOL_PROPERTY
VdW
SciTegic.value.DoubleValue
0.782

@<SCITEGIC>MOL_PROPERTY
VdW6
SciTegic.value.DoubleValue
-5.429

@<SCITEGIC>MOL_PROPERTY
VdW12
SciTegic.value.DoubleValue
6.211

@<SCITEGIC>MOL_PROPERTY
Bond
SciTegic.value.DoubleValue
0.174

@<SCITEGIC>MOL_PROPERTY
Angle
SciTegic.value.DoubleValue
1.377

@<SCITEGIC>MOL_PROPERTY
Pdih
SciTegic.value.DoubleValue
3.412

@<SCITEGIC>MOL_PROPERTY
Idih
SciTegic.value.DoubleValue
0.000

@<SCITEGIC>MOL_PROPERTY
Tether
SciTegic.value.DoubleValue
0.000

@<TRIPOS>MOLECULE
guest-s10_confgen4.mol2 : confsearch ligand conformer 708
          20          19           1
SMALL
USER_CHARGES
 
@<TRIPOS>ATOM
       1    N1      20.424771   20.939374   21.964647 N.4        1 MOL1        -0.5937
       2    H1      20.539059   21.134336   20.966367 H          1 MOL1         0.3684
       3    H2      21.346216   21.038132   22.399407 H          1 MOL1         0.3684
       4    H3      19.823907   21.672011   22.350509 H          1 MOL1         0.3684
       5    C1      19.845364   19.570725   22.195881 C.3        1 MOL1         0.1270
       6    H4      20.548360   18.860873   21.749784 H          1 MOL1         0.0960
       7    C2      18.492221   19.433227   21.474632 C.3        1 MOL1        -0.2382
       8    H5      18.122825   18.402005   21.515390 H          1 MOL1         0.1009
       9    H6      18.589540   19.701259   20.415471 H          1 MOL1         0.1009
      10    H7      17.734787   20.087901   21.923167 H          1 MOL1         0.1009
      11    C3      19.732619   19.258374   23.707222 C.3        1 MOL1        -0.1392
      12    H8      20.705082   19.450848   24.179235 H          1 MOL1         0.0998
      13    H9      19.025287   19.958484   24.171187 H          1 MOL1         0.0998
      14    C4      19.304846   17.807472   24.046333 C.3        1 MOL1        -0.1302
      15    H10     18.277964   17.622340   23.703531 H          1 MOL1         0.0998
      16    H11     19.281117   17.694035   25.139223 H          1 MOL1         0.0998
      17    C5      20.254010   16.741592   23.452920 C.3        1 MOL1        -0.2317
      18    H12     21.288644   16.908063   23.779995 H          1 MOL1         0.1009
      19    H13     20.234867   16.750515   22.355825 H          1 MOL1         0.1009
      20    H14     19.956822   15.736901   23.780476 H          1 MOL1         0.1009
@<TRIPOS>BOND
    1     1     2    1
    2     1     3    1
    3     1     4    1
    4     1     5    1
    5     5     6    1
    6     5     7    1
    7     7     8    1
    8     7     9    1
    9     7    10    1
   10     5    11    1
   11    11    12    1
   12    11    13    1
   13    11    14    1
   14    14    15    1
   15    14    16    1
   16    14    17    1
   17    17    18    1
   18    17    19    1
   19    17    20    1
@<TRIPOS>SUBSTRUCTURE
       1 MOL1            1 RESIDUE      1      MOL     
@<SCITEGIC>MOL_PROPERTY
VConf Rank
SciTegic.value.IntegerValue
708

@<SCITEGIC>MOL_PROPERTY
Conf_Id
SciTegic.value.IntegerValue
64

@<SCITEGIC>MOL_PROPERTY
Delta U+W
SciTegic.value.DoubleValue
0.544

@<SCITEGIC>MOL_PROPERTY
U+W
SciTegic.value.DoubleValue
-35.732

@<SCITEGIC>MOL_PROPERTY
Grad RMS
SciTegic.value.DoubleValue
0.000000

@<SCITEGIC>MOL_PROPERTY
U
SciTegic.value.DoubleValue
22.800

@<SCITEGIC>MOL_PROPERTY
W
SciTegic.value.DoubleValue
-58.532

@<SCITEGIC>MOL_PROPERTY
W(PB)
SciTegic.value.DoubleValue
-60.437

@<SCITEGIC>MOL_PROPERTY
W(SA)
SciTegic.value.DoubleValue
1.905

@<SCITEGIC>MOL_PROPERTY
Valence
SciTegic.value.DoubleValue
2.662

@<SCITEGIC>MOL_PROPERTY
Coulomb
SciTegic.value.DoubleValue
19.485

@<SCITEGIC>MOL_PROPERTY
VdW
SciTegic.value.DoubleValue
0.653

@<SCITEGIC>MOL_PROPERTY
VdW6
SciTegic.value.DoubleValue
-5.460

@<SCITEGIC>MOL_PROPERTY
VdW12
SciTegic.value.DoubleValue
6.113

@<SCITEGIC>MOL_PROPERTY
Bond
SciTegic.value.DoubleValue
0.174

@<SCITEGIC>MOL_PROPERTY
Angle
SciTegic.value.DoubleValue
1.378

@<SCITEGIC>MOL_PROPERTY
Pdih
SciTegic.value.DoubleValue
1.109

@<SCITEGIC>MOL_PROPERTY
Idih
SciTegic.value.DoubleValue
0.000

@<SCITEGIC>MOL_PROPERTY
Tether
SciTegic.value.DoubleValue
0.000

@<TRIPOS>MOLECULE
guest-s10_confgen4.mol2 : confsearch ligand conformer 709
          20          19           1
SMALL
USER_CHARGES
 
@<TRIPOS>ATOM
       1    N1      20.689643   20.826124   22.798957 N.4        1 MOL1        -0.5937
       2    H1      20.528994   20.722411   21.794613 H          1 MOL1         0.3684
       3    H2      21.652871   21.149411   22.922614 H          1 MOL1         0.3684
       4    H3      20.073857   21.572294   23.133170 H          1 MOL1         0.3684
       5    C1      20.443955   19.535233   23.532490 C.3        1 MOL1         0.1270
       6    H4      20.651512   19.745781   24.586317 H          1 MOL1         0.0960
       7    C2      21.433038   18.449578   23.077746 C.3        1 MOL1        -0.2382
       8    H5      21.374983   18.281142   21.996096 H          1 MOL1         0.1009
       9    H6      21.234797   17.500403   23.590686 H          1 MOL1         0.1009
      10    H7      22.462218   18.746362   23.313708 H          1 MOL1         0.1009
      11    C3      18.965320   19.080196   23.445767 C.3        1 MOL1        -0.1392
      12    H8      18.801831   18.240181   24.133621 H          1 MOL1         0.0998
      13    H9      18.347013   19.898181   23.838295 H          1 MOL1         0.0998
      14    C4      18.442125   18.711050   22.029708 C.3        1 MOL1        -0.1302
      15    H10     18.952248   19.301378   21.257266 H          1 MOL1         0.0998
      16    H11     17.381315   18.992028   21.968740 H          1 MOL1         0.0998
      17    C5      18.549924   17.202565   21.704750 C.3        1 MOL1        -0.2317
      18    H12     19.588145   16.853190   21.701710 H          1 MOL1         0.1009
      19    H13     18.128089   16.993109   20.713211 H          1 MOL1         0.1009
      20    H14     17.992739   16.602329   22.435712 H          1 MOL1         0.1009
@<TRIPOS>BOND
    1     1     2    1
    2     1     3    1
    3     1     4    1
    4     1     5    1
    5     5     6    1
    6     5     7    1
    7     7     8    1
    8     7     9    1
    9     7    10    1
   10     5    11    1
   11    11    12    1
   12    11    13    1
   13    11    14    1
   14    14    15    1
   15    14    16    1
   16    14    17    1
   17    17    18    1
   18    17    19    1
   19    17    20    1
@<TRIPOS>SUBSTRUCTURE
       1 MOL1            1 RESIDUE      1      MOL     
@<SCITEGIC>MOL_PROPERTY
VConf Rank
SciTegic.value.IntegerValue
709

@<SCITEGIC>MOL_PROPERTY
Conf_Id
SciTegic.value.IntegerValue
35

@<SCITEGIC>MOL_PROPERTY
Delta U+W
SciTegic.value.DoubleValue
3.004

@<SCITEGIC>MOL_PROPERTY
U+W
SciTegic.value.DoubleValue
-33.272

@<SCITEGIC>MOL_PROPERTY
Grad RMS
SciTegic.value.DoubleValue
0.000000

@<SCITEGIC>MOL_PROPERTY
U
SciTegic.value.DoubleValue
25.367

@<SCITEGIC>MOL_PROPERTY
W
SciTegic.value.DoubleValue
-58.639

@<SCITEGIC>MOL_PROPERTY
W(PB)
SciTegic.value.DoubleValue
-60.512

@<SCITEGIC>MOL_PROPERTY
W(SA)
SciTegic.value.DoubleValue
1.873

@<SCITEGIC>MOL_PROPERTY
Valence
SciTegic.value.DoubleValue
4.943

@<SCITEGIC>MOL_PROPERTY
Coulomb
SciTegic.value.DoubleValue
19.661

@<SCITEGIC>MOL_PROPERTY
VdW
SciTegic.value.DoubleValue
0.764

@<SCITEGIC>MOL_PROPERTY
VdW6
SciTegic.value.DoubleValue
-5.871

@<SCITEGIC>MOL_PROPERTY
VdW12
SciTegic.value.DoubleValue
6.636

@<SCITEGIC>MOL_PROPERTY
Bond
SciTegic.value.DoubleValue
0.230

@<SCITEGIC>MOL_PROPERTY
Angle
SciTegic.value.DoubleValue
1.857

@<SCITEGIC>MOL_PROPERTY
Pdih
SciTegic.value.DoubleValue
2.855

@<SCITEGIC>MOL_PROPERTY
Idih
SciTegic.value.DoubleValue
0.000

@<SCITEGIC>MOL_PROPERTY
Tether
SciTegic.value.DoubleValue
0.000

@<TRIPOS>MOLECULE
guest-s10_confgen4.mol2 : confsearch ligand conformer 710
          20          19           1
SMALL
USER_CHARGES
 
@<TRIPOS>ATOM
       1    N1      18.258568   19.856744   22.681400 N.4        1 MOL1        -0.5937
       2    H1      17.260581   19.657501   22.790602 H          1 MOL1         0.3684
       3    H2      18.338882   20.772036   22.230432 H          1 MOL1         0.3684
       4    H3      18.662210   19.939904   23.616363 H          1 MOL1         0.3684
       5    C1      18.950927   18.786612   21.882701 C.3        1 MOL1         0.1270
       6    H4      18.465423   18.798082   20.901844 H          1 MOL1         0.0960
       7    C2      18.719197   17.392573   22.492182 C.3        1 MOL1        -0.2382
       8    H5      19.098121   17.331613   23.519312 H          1 MOL1         0.1009
       9    H6      19.217561   16.619213   21.894716 H          1 MOL1         0.1009
      10    H7      17.648368   17.156427   22.515186 H          1 MOL1         0.1009
      11    C3      20.453279   19.084278   21.642603 C.3        1 MOL1        -0.1392
      12    H8      20.790591   18.445388   20.815812 H          1 MOL1         0.0998
      13    H9      20.557429   20.113665   21.275544 H          1 MOL1         0.0998
      14    C4      21.423315   18.865739   22.837537 C.3        1 MOL1        -0.1302
      15    H10     22.444049   19.075743   22.488505 H          1 MOL1         0.0998
      16    H11     21.426460   17.808978   23.137334 H          1 MOL1         0.0998
      17    C5      21.139951   19.754755   24.069721 C.3        1 MOL1        -0.2317
      18    H12     21.045953   20.810996   23.785712 H          1 MOL1         0.1009
      19    H13     21.963282   19.676739   24.791669 H          1 MOL1         0.1009
      20    H14     20.226461   19.444555   24.589895 H          1 MOL1         0.1009
@<TRIPOS>BOND
    1     1     2    1
    2     1     3    1
    3     1     4    1
    4     1     5    1
    5     5     6    1
    6     5     7    1
    7     7     8    1
    8     7     9    1
    9     7    10    1
   10     5    11    1
   11    11    12    1
   12    11    13    1
   13    11    14    1
   14    14    15    1
   15    14    16    1
   16    14    17    1
   17    17    18    1
   18    17    19    1
   19    17    20    1
@<TRIPOS>SUBSTRUCTURE
       1 MOL1            1 RESIDUE      1      MOL     
@<SCITEGIC>MOL_PROPERTY
VConf Rank
SciTegic.value.IntegerValue
710

@<SCITEGIC>MOL_PROPERTY
Conf_Id
SciTegic.value.IntegerValue
55

@<SCITEGIC>MOL_PROPERTY
Delta U+W
SciTegic.value.DoubleValue
2.767

@<SCITEGIC>MOL_PROPERTY
U+W
SciTegic.value.DoubleValue
-33.509

@<SCITEGIC>MOL_PROPERTY
Grad RMS
SciTegic.value.DoubleValue
0.000000

@<SCITEGIC>MOL_PROPERTY
U
SciTegic.value.DoubleValue
24.552

@<SCITEGIC>MOL_PROPERTY
W
SciTegic.value.DoubleValue
-58.061

@<SCITEGIC>MOL_PROPERTY
W(PB)
SciTegic.value.DoubleValue
-59.930

@<SCITEGIC>MOL_PROPERTY
W(SA)
SciTegic.value.DoubleValue
1.869

@<SCITEGIC>MOL_PROPERTY
Valence
SciTegic.value.DoubleValue
3.726

@<SCITEGIC>MOL_PROPERTY
Coulomb
SciTegic.value.DoubleValue
20.219

@<SCITEGIC>MOL_PROPERTY
VdW
SciTegic.value.DoubleValue
0.606

@<SCITEGIC>MOL_PROPERTY
VdW6
SciTegic.value.DoubleValue
-6.395

@<SCITEGIC>MOL_PROPERTY
VdW12
SciTegic.value.DoubleValue
7.001

@<SCITEGIC>MOL_PROPERTY
Bond
SciTegic.value.DoubleValue
0.241

@<SCITEGIC>MOL_PROPERTY
Angle
SciTegic.value.DoubleValue
2.098

@<SCITEGIC>MOL_PROPERTY
Pdih
SciTegic.value.DoubleValue
1.387

@<SCITEGIC>MOL_PROPERTY
Idih
SciTegic.value.DoubleValue
0.000

@<SCITEGIC>MOL_PROPERTY
Tether
SciTegic.value.DoubleValue
0.000

@<TRIPOS>MOLECULE
guest-s10_confgen4.mol2 : confsearch ligand conformer 711
          20          19           1
SMALL
USER_CHARGES
 
@<TRIPOS>ATOM
       1    N1      18.710431   20.596096   23.069610 N.4        1 MOL1        -0.5937
       2    H1      18.817877   21.022306   22.145843 H          1 MOL1         0.3684
       3    H2      18.529190   21.352175   23.735308 H          1 MOL1         0.3684
       4    H3      17.873265   20.008757   23.041919 H          1 MOL1         0.3684
       5    C1      19.929462   19.802518   23.455948 C.3        1 MOL1         0.1270
       6    H4      19.730141   19.381384   24.446304 H          1 MOL1         0.0960
       7    C2      21.159383   20.719086   23.561617 C.3        1 MOL1        -0.2382
       8    H5      20.980125   21.528545   24.279884 H          1 MOL1         0.1009
       9    H6      21.403130   21.170526   22.591780 H          1 MOL1         0.1009
      10    H7      22.036202   20.157175   23.906700 H          1 MOL1         0.1009
      11    C3      20.211157   18.636069   22.483223 C.3        1 MOL1        -0.1392
      12    H8      20.391545   19.031028   21.474569 H          1 MOL1         0.0998
      13    H9      21.137127   18.132960   22.792300 H          1 MOL1         0.0998
      14    C4      19.067799   17.593767   22.440131 C.3        1 MOL1        -0.1302
      15    H10     18.141522   18.060739   22.079056 H          1 MOL1         0.0998
      16    H11     18.863883   17.225592   23.455566 H          1 MOL1         0.0998
      17    C5      19.418234   16.400901   21.524943 C.3        1 MOL1        -0.2317
      18    H12     19.598161   16.733384   20.494246 H          1 MOL1         0.1009
      19    H13     18.596730   15.673013   21.505077 H          1 MOL1         0.1009
      20    H14     20.318641   15.881904   21.878699 H          1 MOL1         0.1009
@<TRIPOS>BOND
    1     1     2    1
    2     1     3    1
    3     1     4    1
    4     1     5    1
    5     5     6    1
    6     5     7    1
    7     7     8    1
    8     7     9    1
    9     7    10    1
   10     5    11    1
   11    11    12    1
   12    11    13    1
   13    11    14    1
   14    14    15    1
   15    14    16    1
   16    14    17    1
   17    17    18    1
   18    17    19    1
   19    17    20    1
@<TRIPOS>SUBSTRUCTURE
       1 MOL1            1 RESIDUE      1      MOL     
@<SCITEGIC>MOL_PROPERTY
VConf Rank
SciTegic.value.IntegerValue
711

@<SCITEGIC>MOL_PROPERTY
Conf_Id
SciTegic.value.IntegerValue
74

@<SCITEGIC>MOL_PROPERTY
Delta U+W
SciTegic.value.DoubleValue
0.000

@<SCITEGIC>MOL_PROPERTY
U+W
SciTegic.value.DoubleValue
-36.276

@<SCITEGIC>MOL_PROPERTY
Grad RMS
SciTegic.value.DoubleValue
0.000000

@<SCITEGIC>MOL_PROPERTY
U
SciTegic.value.DoubleValue
22.080

@<SCITEGIC>MOL_PROPERTY
W
SciTegic.value.DoubleValue
-58.356

@<SCITEGIC>MOL_PROPERTY
W(PB)
SciTegic.value.DoubleValue
-60.289

@<SCITEGIC>MOL_PROPERTY
W(SA)
SciTegic.value.DoubleValue
1.932

@<SCITEGIC>MOL_PROPERTY
Valence
SciTegic.value.DoubleValue
1.885

@<SCITEGIC>MOL_PROPERTY
Coulomb
SciTegic.value.DoubleValue
19.559

@<SCITEGIC>MOL_PROPERTY
VdW
SciTegic.value.DoubleValue
0.637

@<SCITEGIC>MOL_PROPERTY
VdW6
SciTegic.value.DoubleValue
-4.482

@<SCITEGIC>MOL_PROPERTY
VdW12
SciTegic.value.DoubleValue
5.119

@<SCITEGIC>MOL_PROPERTY
Bond
SciTegic.value.DoubleValue
0.136

@<SCITEGIC>MOL_PROPERTY
Angle
SciTegic.value.DoubleValue
0.867

@<SCITEGIC>MOL_PROPERTY
Pdih
SciTegic.value.DoubleValue
0.882

@<SCITEGIC>MOL_PROPERTY
Idih
SciTegic.value.DoubleValue
0.000

@<SCITEGIC>MOL_PROPERTY
Tether
SciTegic.value.DoubleValue
0.000

@<TRIPOS>MOLECULE
guest-s10_confgen4.mol2 : confsearch ligand conformer 712
          20          19           1
SMALL
USER_CHARGES
 
@<TRIPOS>ATOM
       1    N1      17.667527   19.487993   21.663424 N.4        1 MOL1        -0.5937
       2    H1      17.337607   20.263291   22.244735 H          1 MOL1         0.3684
       3    H2      17.139894   18.654823   21.935745 H          1 MOL1         0.3684
       4    H3      17.413399   19.706241   20.696229 H          1 MOL1         0.3684
       5    C1      19.149498   19.275791   21.809022 C.3        1 MOL1         0.1270
       6    H4      19.626706   20.209452   21.495310 H          1 MOL1         0.0960
       7    C2      19.622178   18.149436   20.871633 C.3        1 MOL1        -0.2382
       8    H5      19.292344   18.339116   19.842821 H          1 MOL1         0.1009
       9    H6      19.219704   17.177756   21.183774 H          1 MOL1         0.1009
      10    H7      20.715716   18.078567   20.852291 H          1 MOL1         0.1009
      11    C3      19.534032   19.007705   23.282708 C.3        1 MOL1        -0.1392
      12    H8      19.077053   19.786024   23.908050 H          1 MOL1         0.0998
      13    H9      19.101507   18.052868   23.609907 H          1 MOL1         0.0998
      14    C4      21.060768   19.004285   23.540053 C.3        1 MOL1        -0.1302
      15    H10     21.503623   19.933757   23.155306 H          1 MOL1         0.0998
      16    H11     21.536856   18.176275   22.998167 H          1 MOL1         0.0998
      17    C5      21.384790   18.867368   25.043365 C.3        1 MOL1        -0.2317
      18    H12     20.961837   19.702282   25.617183 H          1 MOL1         0.1009
      19    H13     22.470257   18.862963   25.207169 H          1 MOL1         0.1009
      20    H14     20.979163   17.932245   25.451128 H          1 MOL1         0.1009
@<TRIPOS>BOND
    1     1     2    1
    2     1     3    1
    3     1     4    1
    4     1     5    1
    5     5     6    1
    6     5     7    1
    7     7     8    1
    8     7     9    1
    9     7    10    1
   10     5    11    1
   11    11    12    1
   12    11    13    1
   13    11    14    1
   14    14    15    1
   15    14    16    1
   16    14    17    1
   17    17    18    1
   18    17    19    1
   19    17    20    1
@<TRIPOS>SUBSTRUCTURE
       1 MOL1            1 RESIDUE      1      MOL     
@<SCITEGIC>MOL_PROPERTY
VConf Rank
SciTegic.value.IntegerValue
712

@<SCITEGIC>MOL_PROPERTY
Conf_Id
SciTegic.value.IntegerValue
80

@<SCITEGIC>MOL_PROPERTY
Delta U+W
SciTegic.value.DoubleValue
0.460

@<SCITEGIC>MOL_PROPERTY
U+W
SciTegic.value.DoubleValue
-35.817

@<SCITEGIC>MOL_PROPERTY
Grad RMS
SciTegic.value.DoubleValue
0.000000

@<SCITEGIC>MOL_PROPERTY
U
SciTegic.value.DoubleValue
22.495

@<SCITEGIC>MOL_PROPERTY
W
SciTegic.value.DoubleValue
-58.311

@<SCITEGIC>MOL_PROPERTY
W(PB)
SciTegic.value.DoubleValue
-60.259

@<SCITEGIC>MOL_PROPERTY
W(SA)
SciTegic.value.DoubleValue
1.948

@<SCITEGIC>MOL_PROPERTY
Valence
SciTegic.value.DoubleValue
2.419

@<SCITEGIC>MOL_PROPERTY
Coulomb
SciTegic.value.DoubleValue
19.304

@<SCITEGIC>MOL_PROPERTY
VdW
SciTegic.value.DoubleValue
0.772

@<SCITEGIC>MOL_PROPERTY
VdW6
SciTegic.value.DoubleValue
-4.635

@<SCITEGIC>MOL_PROPERTY
VdW12
SciTegic.value.DoubleValue
5.407

@<SCITEGIC>MOL_PROPERTY
Bond
SciTegic.value.DoubleValue
0.149

@<SCITEGIC>MOL_PROPERTY
Angle
SciTegic.value.DoubleValue
1.142

@<SCITEGIC>MOL_PROPERTY
Pdih
SciTegic.value.DoubleValue
1.129

@<SCITEGIC>MOL_PROPERTY
Idih
SciTegic.value.DoubleValue
0.000

@<SCITEGIC>MOL_PROPERTY
Tether
SciTegic.value.DoubleValue
0.000

@<TRIPOS>MOLECULE
guest-s10_confgen4.mol2 : confsearch ligand conformer 713
          20          19           1
SMALL
USER_CHARGES
 
@<TRIPOS>ATOM
       1    N1      21.664355   18.607061   24.156967 N.4        1 MOL1        -0.5937
       2    H1      21.575172   19.169524   25.007550 H          1 MOL1         0.3684
       3    H2      22.312306   19.094963   23.533428 H          1 MOL1         0.3684
       4    H3      22.106500   17.723413   24.423967 H          1 MOL1         0.3684
       5    C1      20.331064   18.378980   23.498891 C.3        1 MOL1         0.1270
       6    H4      19.713766   17.851281   24.232565 H          1 MOL1         0.0960
       7    C2      20.493229   17.469971   22.268581 C.3        1 MOL1        -0.2382
       8    H5      21.064218   16.569184   22.524897 H          1 MOL1         0.1009
       9    H6      21.019605   17.987921   21.457342 H          1 MOL1         0.1009
      10    H7      19.518174   17.136629   21.895541 H          1 MOL1         0.1009
      11    C3      19.638204   19.723174   23.166589 C.3        1 MOL1        -0.1392
      12    H8      19.602027   20.312629   24.092292 H          1 MOL1         0.0998
      13    H9      20.253330   20.304297   22.466843 H          1 MOL1         0.0998
      14    C4      18.187736   19.597960   22.629834 C.3        1 MOL1        -0.1302
      15    H10     17.592250   20.429459   23.032482 H          1 MOL1         0.0998
      16    H11     17.717593   18.679950   23.009556 H          1 MOL1         0.0998
      17    C5      18.096351   19.651627   21.086525 C.3        1 MOL1        -0.2317
      18    H12     18.495474   20.599653   20.703035 H          1 MOL1         0.1009
      19    H13     17.050787   19.575765   20.760913 H          1 MOL1         0.1009
      20    H14     18.651694   18.835619   20.610849 H          1 MOL1         0.1009
@<TRIPOS>BOND
    1     1     2    1
    2     1     3    1
    3     1     4    1
    4     1     5    1
    5     5     6    1
    6     5     7    1
    7     7     8    1
    8     7     9    1
    9     7    10    1
   10     5    11    1
   11    11    12    1
   12    11    13    1
   13    11    14    1
   14    14    15    1
   15    14    16    1
   16    14    17    1
   17    17    18    1
   18    17    19    1
   19    17    20    1
@<TRIPOS>SUBSTRUCTURE
       1 MOL1            1 RESIDUE      1      MOL     
@<SCITEGIC>MOL_PROPERTY
VConf Rank
SciTegic.value.IntegerValue
713

@<SCITEGIC>MOL_PROPERTY
Conf_Id
SciTegic.value.IntegerValue
52

@<SCITEGIC>MOL_PROPERTY
Delta U+W
SciTegic.value.DoubleValue
2.995

@<SCITEGIC>MOL_PROPERTY
U+W
SciTegic.value.DoubleValue
-33.282

@<SCITEGIC>MOL_PROPERTY
Grad RMS
SciTegic.value.DoubleValue
0.000000

@<SCITEGIC>MOL_PROPERTY
U
SciTegic.value.DoubleValue
25.224

@<SCITEGIC>MOL_PROPERTY
W
SciTegic.value.DoubleValue
-58.506

@<SCITEGIC>MOL_PROPERTY
W(PB)
SciTegic.value.DoubleValue
-60.411

@<SCITEGIC>MOL_PROPERTY
W(SA)
SciTegic.value.DoubleValue
1.905

@<SCITEGIC>MOL_PROPERTY
Valence
SciTegic.value.DoubleValue
4.945

@<SCITEGIC>MOL_PROPERTY
Coulomb
SciTegic.value.DoubleValue
19.467

@<SCITEGIC>MOL_PROPERTY
VdW
SciTegic.value.DoubleValue
0.813

@<SCITEGIC>MOL_PROPERTY
VdW6
SciTegic.value.DoubleValue
-5.458

@<SCITEGIC>MOL_PROPERTY
VdW12
SciTegic.value.DoubleValue
6.270

@<SCITEGIC>MOL_PROPERTY
Bond
SciTegic.value.DoubleValue
0.200

@<SCITEGIC>MOL_PROPERTY
Angle
SciTegic.value.DoubleValue
1.675

@<SCITEGIC>MOL_PROPERTY
Pdih
SciTegic.value.DoubleValue
3.070

@<SCITEGIC>MOL_PROPERTY
Idih
SciTegic.value.DoubleValue
0.000

@<SCITEGIC>MOL_PROPERTY
Tether
SciTegic.value.DoubleValue
0.000

@<TRIPOS>MOLECULE
guest-s10_confgen4.mol2 : confsearch ligand conformer 714
          20          19           1
SMALL
USER_CHARGES
 
@<TRIPOS>ATOM
       1    N1      20.899912   18.003394   23.286493 N.4        1 MOL1        -0.5937
       2    H1      21.783258   18.452081   23.032020 H          1 MOL1         0.3684
       3    H2      21.092366   17.008483   23.430582 H          1 MOL1         0.3684
       4    H3      20.605675   18.394366   24.184018 H          1 MOL1         0.3684
       5    C1      19.851936   18.215962   22.228281 C.3        1 MOL1         0.1270
       6    H4      18.957975   17.670348   22.545886 H          1 MOL1         0.0960
       7    C2      20.330196   17.619778   20.893518 C.3        1 MOL1        -0.2382
       8    H5      21.219308   18.143469   20.520576 H          1 MOL1         0.1009
       9    H6      19.545845   17.691279   20.129760 H          1 MOL1         0.1009
      10    H7      20.582134   16.558487   21.009816 H          1 MOL1         0.1009
      11    C3      19.474037   19.705697   22.049074 C.3        1 MOL1        -0.1392
      12    H8      20.383474   20.317275   21.982203 H          1 MOL1         0.0998
      13    H9      18.962302   19.823333   21.084516 H          1 MOL1         0.0998
      14    C4      18.528088   20.272437   23.140218 C.3        1 MOL1        -0.1302
      15    H10     17.600451   19.683591   23.168233 H          1 MOL1         0.0998
      16    H11     18.232277   21.288266   22.842535 H          1 MOL1         0.0998
      17    C5      19.139254   20.339810   24.558365 C.3        1 MOL1        -0.2317
      18    H12     18.493449   20.930168   25.221465 H          1 MOL1         0.1009
      19    H13     20.127343   20.818171   24.545393 H          1 MOL1         0.1009
      20    H14     19.231110   19.343875   25.006824 H          1 MOL1         0.1009
@<TRIPOS>BOND
    1     1     2    1
    2     1     3    1
    3     1     4    1
    4     1     5    1
    5     5     6    1
    6     5     7    1
    7     7     8    1
    8     7     9    1
    9     7    10    1
   10     5    11    1
   11    11    12    1
   12    11    13    1
   13    11    14    1
   14    14    15    1
   15    14    16    1
   16    14    17    1
   17    17    18    1
   18    17    19    1
   19    17    20    1
@<TRIPOS>SUBSTRUCTURE
       1 MOL1            1 RESIDUE      1      MOL     
@<SCITEGIC>MOL_PROPERTY
VConf Rank
SciTegic.value.IntegerValue
714

@<SCITEGIC>MOL_PROPERTY
Conf_Id
SciTegic.value.IntegerValue
54

@<SCITEGIC>MOL_PROPERTY
Delta U+W
SciTegic.value.DoubleValue
2.752

@<SCITEGIC>MOL_PROPERTY
U+W
SciTegic.value.DoubleValue
-33.525

@<SCITEGIC>MOL_PROPERTY
Grad RMS
SciTegic.value.DoubleValue
0.000000

@<SCITEGIC>MOL_PROPERTY
U
SciTegic.value.DoubleValue
24.337

@<SCITEGIC>MOL_PROPERTY
W
SciTegic.value.DoubleValue
-57.862

@<SCITEGIC>MOL_PROPERTY
W(PB)
SciTegic.value.DoubleValue
-59.764

@<SCITEGIC>MOL_PROPERTY
W(SA)
SciTegic.value.DoubleValue
1.901

@<SCITEGIC>MOL_PROPERTY
Valence
SciTegic.value.DoubleValue
3.593

@<SCITEGIC>MOL_PROPERTY
Coulomb
SciTegic.value.DoubleValue
20.067

@<SCITEGIC>MOL_PROPERTY
VdW
SciTegic.value.DoubleValue
0.677

@<SCITEGIC>MOL_PROPERTY
VdW6
SciTegic.value.DoubleValue
-5.466

@<SCITEGIC>MOL_PROPERTY
VdW12
SciTegic.value.DoubleValue
6.144

@<SCITEGIC>MOL_PROPERTY
Bond
SciTegic.value.DoubleValue
0.191

@<SCITEGIC>MOL_PROPERTY
Angle
SciTegic.value.DoubleValue
1.557

@<SCITEGIC>MOL_PROPERTY
Pdih
SciTegic.value.DoubleValue
1.845

@<SCITEGIC>MOL_PROPERTY
Idih
SciTegic.value.DoubleValue
0.000

@<SCITEGIC>MOL_PROPERTY
Tether
SciTegic.value.DoubleValue
0.000

@<TRIPOS>MOLECULE
guest-s10_confgen4.mol2 : confsearch ligand conformer 715
          20          19           1
SMALL
USER_CHARGES
 
@<TRIPOS>ATOM
       1    N1      20.895848   20.142252   23.946203 N.4        1 MOL1        -0.5937
       2    H1      21.012622   21.091390   24.311107 H          1 MOL1         0.3684
       3    H2      21.823325   19.709909   23.922176 H          1 MOL1         0.3684
       4    H3      20.331856   19.622471   24.622360 H          1 MOL1         0.3684
       5    C1      20.253957   20.150568   22.585397 C.3        1 MOL1         0.1270
       6    H4      20.915757   20.739083   21.942206 H          1 MOL1         0.0960
       7    C2      18.889779   20.862280   22.621802 C.3        1 MOL1        -0.2382
       8    H5      18.424356   20.864664   21.628399 H          1 MOL1         0.1009
       9    H6      19.010423   21.906758   22.934209 H          1 MOL1         0.1009
      10    H7      18.199056   20.380902   23.324097 H          1 MOL1         0.1009
      11    C3      20.155408   18.735009   21.967711 C.3        1 MOL1        -0.1392
      12    H8      19.764002   18.822511   20.945517 H          1 MOL1         0.0998
      13    H9      21.170446   18.328733   21.867497 H          1 MOL1         0.0998
      14    C4      19.282734   17.731948   22.765616 C.3        1 MOL1        -0.1302
      15    H10     18.249053   18.096728   22.832342 H          1 MOL1         0.0998
      16    H11     19.655503   17.639742   23.794549 H          1 MOL1         0.0998
      17    C5      19.277474   16.336239   22.105846 C.3        1 MOL1        -0.2317
      18    H12     18.654486   15.638234   22.680078 H          1 MOL1         0.1009
      19    H13     20.291541   15.918647   22.055791 H          1 MOL1         0.1009
      20    H14     18.876451   16.383236   21.084966 H          1 MOL1         0.1009
@<TRIPOS>BOND
    1     1     2    1
    2     1     3    1
    3     1     4    1
    4     1     5    1
    5     5     6    1
    6     5     7    1
    7     7     8    1
    8     7     9    1
    9     7    10    1
   10     5    11    1
   11    11    12    1
   12    11    13    1
   13    11    14    1
   14    14    15    1
   15    14    16    1
   16    14    17    1
   17    17    18    1
   18    17    19    1
   19    17    20    1
@<TRIPOS>SUBSTRUCTURE
       1 MOL1            1 RESIDUE      1      MOL     
@<SCITEGIC>MOL_PROPERTY
VConf Rank
SciTegic.value.IntegerValue
715

@<SCITEGIC>MOL_PROPERTY
Conf_Id
SciTegic.value.IntegerValue
63

@<SCITEGIC>MOL_PROPERTY
Delta U+W
SciTegic.value.DoubleValue
0.420

@<SCITEGIC>MOL_PROPERTY
U+W
SciTegic.value.DoubleValue
-35.856

@<SCITEGIC>MOL_PROPERTY
Grad RMS
SciTegic.value.DoubleValue
0.000000

@<SCITEGIC>MOL_PROPERTY
U
SciTegic.value.DoubleValue
22.625

@<SCITEGIC>MOL_PROPERTY
W
SciTegic.value.DoubleValue
-58.481

@<SCITEGIC>MOL_PROPERTY
W(PB)
SciTegic.value.DoubleValue
-60.400

@<SCITEGIC>MOL_PROPERTY
W(SA)
SciTegic.value.DoubleValue
1.919

@<SCITEGIC>MOL_PROPERTY
Valence
SciTegic.value.DoubleValue
2.404

@<SCITEGIC>MOL_PROPERTY
Coulomb
SciTegic.value.DoubleValue
19.464

@<SCITEGIC>MOL_PROPERTY
VdW
SciTegic.value.DoubleValue
0.757

@<SCITEGIC>MOL_PROPERTY
VdW6
SciTegic.value.DoubleValue
-5.074

@<SCITEGIC>MOL_PROPERTY
VdW12
SciTegic.value.DoubleValue
5.830

@<SCITEGIC>MOL_PROPERTY
Bond
SciTegic.value.DoubleValue
0.172

@<SCITEGIC>MOL_PROPERTY
Angle
SciTegic.value.DoubleValue
1.207

@<SCITEGIC>MOL_PROPERTY
Pdih
SciTegic.value.DoubleValue
1.025

@<SCITEGIC>MOL_PROPERTY
Idih
SciTegic.value.DoubleValue
0.000

@<SCITEGIC>MOL_PROPERTY
Tether
SciTegic.value.DoubleValue
0.000

@<TRIPOS>MOLECULE
guest-s10_confgen4.mol2 : confsearch ligand conformer 716
          20          19           1
SMALL
USER_CHARGES
 
@<TRIPOS>ATOM
       1    N1      20.986189   17.961122   23.401284 N.4        1 MOL1        -0.5937
       2    H1      21.516637   18.834280   23.456895 H          1 MOL1         0.3684
       3    H2      21.398372   17.397355   22.653826 H          1 MOL1         0.3684
       4    H3      21.132710   17.457860   24.280375 H          1 MOL1         0.3684
       5    C1      19.525613   18.223572   23.152252 C.3        1 MOL1         0.1270
       6    H4      19.166088   18.824657   23.992827 H          1 MOL1         0.0960
       7    C2      18.732811   16.906533   23.132603 C.3        1 MOL1        -0.2382
       8    H5      18.869608   16.356812   24.071928 H          1 MOL1         0.1009
       9    H6      19.056827   16.259620   22.307819 H          1 MOL1         0.1009
      10    H7      17.659377   17.099553   23.013842 H          1 MOL1         0.1009
      11    C3      19.281624   19.017996   21.849047 C.3        1 MOL1        -0.1392
      12    H8      19.621558   18.423264   20.990810 H          1 MOL1         0.0998
      13    H9      18.201089   19.160349   21.714481 H          1 MOL1         0.0998
      14    C4      19.973817   20.404116   21.811138 C.3        1 MOL1        -0.1302
      15    H10     19.745836   20.885811   20.849943 H          1 MOL1         0.0998
      16    H11     21.065433   20.284656   21.837020 H          1 MOL1         0.0998
      17    C5      19.523906   21.337620   22.958099 C.3        1 MOL1        -0.2317
      18    H12     18.434428   21.472481   22.952595 H          1 MOL1         0.1009
      19    H13     19.983986   22.328466   22.850299 H          1 MOL1         0.1009
      20    H14     19.815449   20.943009   23.939517 H          1 MOL1         0.1009
@<TRIPOS>BOND
    1     1     2    1
    2     1     3    1
    3     1     4    1
    4     1     5    1
    5     5     6    1
    6     5     7    1
    7     7     8    1
    8     7     9    1
    9     7    10    1
   10     5    11    1
   11    11    12    1
   12    11    13    1
   13    11    14    1
   14    14    15    1
   15    14    16    1
   16    14    17    1
   17    17    18    1
   18    17    19    1
   19    17    20    1
@<TRIPOS>SUBSTRUCTURE
       1 MOL1            1 RESIDUE      1      MOL     
@<SCITEGIC>MOL_PROPERTY
VConf Rank
SciTegic.value.IntegerValue
716

@<SCITEGIC>MOL_PROPERTY
Conf_Id
SciTegic.value.IntegerValue
50

@<SCITEGIC>MOL_PROPERTY
Delta U+W
SciTegic.value.DoubleValue
0.466

@<SCITEGIC>MOL_PROPERTY
U+W
SciTegic.value.DoubleValue
-35.811

@<SCITEGIC>MOL_PROPERTY
Grad RMS
SciTegic.value.DoubleValue
0.000000

@<SCITEGIC>MOL_PROPERTY
U
SciTegic.value.DoubleValue
22.369

@<SCITEGIC>MOL_PROPERTY
W
SciTegic.value.DoubleValue
-58.180

@<SCITEGIC>MOL_PROPERTY
W(PB)
SciTegic.value.DoubleValue
-60.103

@<SCITEGIC>MOL_PROPERTY
W(SA)
SciTegic.value.DoubleValue
1.923

@<SCITEGIC>MOL_PROPERTY
Valence
SciTegic.value.DoubleValue
2.168

@<SCITEGIC>MOL_PROPERTY
Coulomb
SciTegic.value.DoubleValue
19.636

@<SCITEGIC>MOL_PROPERTY
VdW
SciTegic.value.DoubleValue
0.566

@<SCITEGIC>MOL_PROPERTY
VdW6
SciTegic.value.DoubleValue
-5.263

@<SCITEGIC>MOL_PROPERTY
VdW12
SciTegic.value.DoubleValue
5.829

@<SCITEGIC>MOL_PROPERTY
Bond
SciTegic.value.DoubleValue
0.162

@<SCITEGIC>MOL_PROPERTY
Angle
SciTegic.value.DoubleValue
1.066

@<SCITEGIC>MOL_PROPERTY
Pdih
SciTegic.value.DoubleValue
0.939

@<SCITEGIC>MOL_PROPERTY
Idih
SciTegic.value.DoubleValue
0.000

@<SCITEGIC>MOL_PROPERTY
Tether
SciTegic.value.DoubleValue
0.000

@<TRIPOS>MOLECULE
guest-s10_confgen4.mol2 : confsearch ligand conformer 717
          20          19           1
SMALL
USER_CHARGES
 
@<TRIPOS>ATOM
       1    N1      19.234305   20.433532   21.102507 N.4        1 MOL1        -0.5937
       2    H1      19.237924   21.338549   21.580970 H          1 MOL1         0.3684
       3    H2      18.276034   20.253970   20.792112 H          1 MOL1         0.3684
       4    H3      19.812222   20.532971   20.263544 H          1 MOL1         0.3684
       5    C1      19.742222   19.332499   21.993758 C.3        1 MOL1         0.1270
       6    H4      20.762227   19.613373   22.273868 H          1 MOL1         0.0960
       7    C2      19.791954   18.004844   21.214769 C.3        1 MOL1        -0.2382
       8    H5      18.792168   17.709535   20.872884 H          1 MOL1         0.1009
       9    H6      20.190623   17.191217   21.830287 H          1 MOL1         0.1009
      10    H7      20.437411   18.098442   20.332866 H          1 MOL1         0.1009
      11    C3      18.904436   19.205027   23.289944 C.3        1 MOL1        -0.1392
      12    H8      18.318426   20.122859   23.430833 H          1 MOL1         0.0998
      13    H9      18.167836   18.396343   23.192665 H          1 MOL1         0.0998
      14    C4      19.754913   19.000149   24.569200 C.3        1 MOL1        -0.1302
      15    H10     19.084260   18.999537   25.439921 H          1 MOL1         0.0998
      16    H11     20.428541   19.858168   24.703775 H          1 MOL1         0.0998
      17    C5      20.580435   17.694512   24.577160 C.3        1 MOL1        -0.2317
      18    H12     19.940583   16.819900   24.402029 H          1 MOL1         0.1009
      19    H13     21.073785   17.558872   25.548369 H          1 MOL1         0.1009
      20    H14     21.365376   17.711746   23.810870 H          1 MOL1         0.1009
@<TRIPOS>BOND
    1     1     2    1
    2     1     3    1
    3     1     4    1
    4     1     5    1
    5     5     6    1
    6     5     7    1
    7     7     8    1
    8     7     9    1
    9     7    10    1
   10     5    11    1
   11    11    12    1
   12    11    13    1
   13    11    14    1
   14    14    15    1
   15    14    16    1
   16    14    17    1
   17    17    18    1
   18    17    19    1
   19    17    20    1
@<TRIPOS>SUBSTRUCTURE
       1 MOL1            1 RESIDUE      1      MOL     
@<SCITEGIC>MOL_PROPERTY
VConf Rank
SciTegic.value.IntegerValue
717

@<SCITEGIC>MOL_PROPERTY
Conf_Id
SciTegic.value.IntegerValue
3

@<SCITEGIC>MOL_PROPERTY
Delta U+W
SciTegic.value.DoubleValue
3.093

@<SCITEGIC>MOL_PROPERTY
U+W
SciTegic.value.DoubleValue
-33.184

@<SCITEGIC>MOL_PROPERTY
Grad RMS
SciTegic.value.DoubleValue
0.000000

@<SCITEGIC>MOL_PROPERTY
U
SciTegic.value.DoubleValue
25.256

@<SCITEGIC>MOL_PROPERTY
W
SciTegic.value.DoubleValue
-58.439

@<SCITEGIC>MOL_PROPERTY
W(PB)
SciTegic.value.DoubleValue
-60.337

@<SCITEGIC>MOL_PROPERTY
W(SA)
SciTegic.value.DoubleValue
1.898

@<SCITEGIC>MOL_PROPERTY
Valence
SciTegic.value.DoubleValue
4.963

@<SCITEGIC>MOL_PROPERTY
Coulomb
SciTegic.value.DoubleValue
19.511

@<SCITEGIC>MOL_PROPERTY
VdW
SciTegic.value.DoubleValue
0.782

@<SCITEGIC>MOL_PROPERTY
VdW6
SciTegic.value.DoubleValue
-5.429

@<SCITEGIC>MOL_PROPERTY
VdW12
SciTegic.value.DoubleValue
6.211

@<SCITEGIC>MOL_PROPERTY
Bond
SciTegic.value.DoubleValue
0.174

@<SCITEGIC>MOL_PROPERTY
Angle
SciTegic.value.DoubleValue
1.377

@<SCITEGIC>MOL_PROPERTY
Pdih
SciTegic.value.DoubleValue
3.412

@<SCITEGIC>MOL_PROPERTY
Idih
SciTegic.value.DoubleValue
0.000

@<SCITEGIC>MOL_PROPERTY
Tether
SciTegic.value.DoubleValue
0.000

@<TRIPOS>MOLECULE
guest-s10_confgen4.mol2 : confsearch ligand conformer 718
          20          19           1
SMALL
USER_CHARGES
 
@<TRIPOS>ATOM
       1    N1      20.050998   19.826530   24.830698 N.4        1 MOL1        -0.5937
       2    H1      20.395128   19.274931   25.621235 H          1 MOL1         0.3684
       3    H2      19.135701   20.199088   25.097649 H          1 MOL1         0.3684
       4    H3      20.684126   20.622043   24.716714 H          1 MOL1         0.3684
       5    C1      19.970067   19.000527   23.576285 C.3        1 MOL1         0.1270
       6    H4      19.280141   18.179671   23.793757 H          1 MOL1         0.0960
       7    C2      21.347740   18.401444   23.239807 C.3        1 MOL1        -0.2382
       8    H5      21.279018   17.686551   22.411712 H          1 MOL1         0.1009
       9    H6      21.755280   17.860296   24.102480 H          1 MOL1         0.1009
      10    H7      22.063568   19.184228   22.959936 H          1 MOL1         0.1009
      11    C3      19.391316   19.823228   22.400428 C.3        1 MOL1        -0.1392
      12    H8      18.452067   20.289149   22.726396 H          1 MOL1         0.0998
      13    H9      20.074800   20.649450   22.163910 H          1 MOL1         0.0998
      14    C4      19.110907   19.012734   21.109082 C.3        1 MOL1        -0.1302
      15    H10     20.051210   18.641687   20.679630 H          1 MOL1         0.0998
      16    H11     18.683234   19.688673   20.355397 H          1 MOL1         0.0998
      17    C5      18.137552   17.833164   21.333455 C.3        1 MOL1        -0.2317
      18    H12     17.189786   18.179859   21.765542 H          1 MOL1         0.1009
      19    H13     18.566018   17.078991   22.005544 H          1 MOL1         0.1009
      20    H14     17.909650   17.336222   20.381547 H          1 MOL1         0.1009
@<TRIPOS>BOND
    1     1     2    1
    2     1     3    1
    3     1     4    1
    4     1     5    1
    5     5     6    1
    6     5     7    1
    7     7     8    1
    8     7     9    1
    9     7    10    1
   10     5    11    1
   11    11    12    1
   12    11    13    1
   13    11    14    1
   14    14    15    1
   15    14    16    1
   16    14    17    1
   17    17    18    1
   18    17    19    1
   19    17    20    1
@<TRIPOS>SUBSTRUCTURE
       1 MOL1            1 RESIDUE      1      MOL     
@<SCITEGIC>MOL_PROPERTY
VConf Rank
SciTegic.value.IntegerValue
718

@<SCITEGIC>MOL_PROPERTY
Conf_Id
SciTegic.value.IntegerValue
64

@<SCITEGIC>MOL_PROPERTY
Delta U+W
SciTegic.value.DoubleValue
0.544

@<SCITEGIC>MOL_PROPERTY
U+W
SciTegic.value.DoubleValue
-35.732

@<SCITEGIC>MOL_PROPERTY
Grad RMS
SciTegic.value.DoubleValue
0.000000

@<SCITEGIC>MOL_PROPERTY
U
SciTegic.value.DoubleValue
22.800

@<SCITEGIC>MOL_PROPERTY
W
SciTegic.value.DoubleValue
-58.532

@<SCITEGIC>MOL_PROPERTY
W(PB)
SciTegic.value.DoubleValue
-60.437

@<SCITEGIC>MOL_PROPERTY
W(SA)
SciTegic.value.DoubleValue
1.905

@<SCITEGIC>MOL_PROPERTY
Valence
SciTegic.value.DoubleValue
2.662

@<SCITEGIC>MOL_PROPERTY
Coulomb
SciTegic.value.DoubleValue
19.485

@<SCITEGIC>MOL_PROPERTY
VdW
SciTegic.value.DoubleValue
0.653

@<SCITEGIC>MOL_PROPERTY
VdW6
SciTegic.value.DoubleValue
-5.460

@<SCITEGIC>MOL_PROPERTY
VdW12
SciTegic.value.DoubleValue
6.113

@<SCITEGIC>MOL_PROPERTY
Bond
SciTegic.value.DoubleValue
0.174

@<SCITEGIC>MOL_PROPERTY
Angle
SciTegic.value.DoubleValue
1.378

@<SCITEGIC>MOL_PROPERTY
Pdih
SciTegic.value.DoubleValue
1.109

@<SCITEGIC>MOL_PROPERTY
Idih
SciTegic.value.DoubleValue
0.000

@<SCITEGIC>MOL_PROPERTY
Tether
SciTegic.value.DoubleValue
0.000

@<TRIPOS>MOLECULE
guest-s10_confgen4.mol2 : confsearch ligand conformer 719
          20          19           1
SMALL
USER_CHARGES
 
@<TRIPOS>ATOM
       1    N1      18.985818   19.795600   24.447179 N.4        1 MOL1        -0.5937
       2    H1      18.144949   19.439109   23.987695 H          1 MOL1         0.3684
       3    H2      18.792117   20.758697   24.734472 H          1 MOL1         0.3684
       4    H3      19.126066   19.246975   25.299823 H          1 MOL1         0.3684
       5    C1      20.183260   19.722624   23.538532 C.3        1 MOL1         0.1270
       6    H4      21.019850   20.133220   24.112546 H          1 MOL1         0.0960
       7    C2      19.989970   20.618400   22.304049 C.3        1 MOL1        -0.2382
       8    H5      19.083722   20.348019   21.749688 H          1 MOL1         0.1009
       9    H6      20.849846   20.542229   21.627181 H          1 MOL1         0.1009
      10    H7      19.895440   21.668995   22.604524 H          1 MOL1         0.1009
      11    C3      20.558579   18.264130   23.174018 C.3        1 MOL1        -0.1392
      12    H8      21.529351   18.255194   22.661164 H          1 MOL1         0.0998
      13    H9      20.725179   17.723522   24.115011 H          1 MOL1         0.0998
      14    C4      19.513582   17.474479   22.337563 C.3        1 MOL1        -0.1302
      15    H10     18.493693   17.810166   22.566735 H          1 MOL1         0.0998
      16    H11     19.555581   16.418457   22.639287 H          1 MOL1         0.0998
      17    C5      19.765533   17.539730   20.812765 C.3        1 MOL1        -0.2317
      18    H12     19.695539   18.561942   20.425259 H          1 MOL1         0.1009
      19    H13     19.025997   16.931648   20.275841 H          1 MOL1         0.1009
      20    H14     20.760542   17.149807   20.561846 H          1 MOL1         0.1009
@<TRIPOS>BOND
    1     1     2    1
    2     1     3    1
    3     1     4    1
    4     1     5    1
    5     5     6    1
    6     5     7    1
    7     7     8    1
    8     7     9    1
    9     7    10    1
   10     5    11    1
   11    11    12    1
   12    11    13    1
   13    11    14    1
   14    14    15    1
   15    14    16    1
   16    14    17    1
   17    17    18    1
   18    17    19    1
   19    17    20    1
@<TRIPOS>SUBSTRUCTURE
       1 MOL1            1 RESIDUE      1      MOL     
@<SCITEGIC>MOL_PROPERTY
VConf Rank
SciTegic.value.IntegerValue
719

@<SCITEGIC>MOL_PROPERTY
Conf_Id
SciTegic.value.IntegerValue
35

@<SCITEGIC>MOL_PROPERTY
Delta U+W
SciTegic.value.DoubleValue
3.004

@<SCITEGIC>MOL_PROPERTY
U+W
SciTegic.value.DoubleValue
-33.272

@<SCITEGIC>MOL_PROPERTY
Grad RMS
SciTegic.value.DoubleValue
0.000000

@<SCITEGIC>MOL_PROPERTY
U
SciTegic.value.DoubleValue
25.367

@<SCITEGIC>MOL_PROPERTY
W
SciTegic.value.DoubleValue
-58.639

@<SCITEGIC>MOL_PROPERTY
W(PB)
SciTegic.value.DoubleValue
-60.512

@<SCITEGIC>MOL_PROPERTY
W(SA)
SciTegic.value.DoubleValue
1.873

@<SCITEGIC>MOL_PROPERTY
Valence
SciTegic.value.DoubleValue
4.943

@<SCITEGIC>MOL_PROPERTY
Coulomb
SciTegic.value.DoubleValue
19.661

@<SCITEGIC>MOL_PROPERTY
VdW
SciTegic.value.DoubleValue
0.764

@<SCITEGIC>MOL_PROPERTY
VdW6
SciTegic.value.DoubleValue
-5.871

@<SCITEGIC>MOL_PROPERTY
VdW12
SciTegic.value.DoubleValue
6.636

@<SCITEGIC>MOL_PROPERTY
Bond
SciTegic.value.DoubleValue
0.230

@<SCITEGIC>MOL_PROPERTY
Angle
SciTegic.value.DoubleValue
1.857

@<SCITEGIC>MOL_PROPERTY
Pdih
SciTegic.value.DoubleValue
2.855

@<SCITEGIC>MOL_PROPERTY
Idih
SciTegic.value.DoubleValue
0.000

@<SCITEGIC>MOL_PROPERTY
Tether
SciTegic.value.DoubleValue
0.000

@<TRIPOS>MOLECULE
guest-s10_confgen4.mol2 : confsearch ligand conformer 720
          20          19           1
SMALL
USER_CHARGES
 
@<TRIPOS>ATOM
       1    N1      19.707169   18.122832   24.263482 N.4        1 MOL1        -0.5937
       2    H1      20.132429   18.180701   25.192679 H          1 MOL1         0.3684
       3    H2      19.284473   17.194494   24.179230 H          1 MOL1         0.3684
       4    H3      18.950274   18.808165   24.225729 H          1 MOL1         0.3684
       5    C1      20.718425   18.368156   23.177370 C.3        1 MOL1         0.1270
       6    H4      21.462433   17.573376   23.290077 H          1 MOL1         0.0960
       7    C2      21.446200   19.708942   23.380224 C.3        1 MOL1        -0.2382
       8    H5      20.747447   20.553929   23.374201 H          1 MOL1         0.1009
       9    H6      22.189768   19.871220   22.590166 H          1 MOL1         0.1009
      10    H7      21.974778   19.717694   24.341211 H          1 MOL1         0.1009
      11    C3      20.124973   18.227631   21.752106 C.3        1 MOL1        -0.1392
      12    H8      20.963448   18.108362   21.053337 H          1 MOL1         0.0998
      13    H9      19.561358   17.287393   21.692883 H          1 MOL1         0.0998
      14    C4      19.235647   19.391782   21.232060 C.3        1 MOL1        -0.1302
      15    H10     18.937513   19.156209   20.200825 H          1 MOL1         0.0998
      16    H11     19.821969   20.318222   21.164476 H          1 MOL1         0.0998
      17    C5      17.955793   19.645908   22.060502 C.3        1 MOL1        -0.2317
      18    H12     17.391935   18.717168   22.217493 H          1 MOL1         0.1009
      19    H13     17.297105   20.349879   21.535407 H          1 MOL1         0.1009
      20    H14     18.187473   20.089480   23.035610 H          1 MOL1         0.1009
@<TRIPOS>BOND
    1     1     2    1
    2     1     3    1
    3     1     4    1
    4     1     5    1
    5     5     6    1
    6     5     7    1
    7     7     8    1
    8     7     9    1
    9     7    10    1
   10     5    11    1
   11    11    12    1
   12    11    13    1
   13    11    14    1
   14    14    15    1
   15    14    16    1
   16    14    17    1
   17    17    18    1
   18    17    19    1
   19    17    20    1
@<TRIPOS>SUBSTRUCTURE
       1 MOL1            1 RESIDUE      1      MOL     
@<SCITEGIC>MOL_PROPERTY
VConf Rank
SciTegic.value.IntegerValue
720

@<SCITEGIC>MOL_PROPERTY
Conf_Id
SciTegic.value.IntegerValue
55

@<SCITEGIC>MOL_PROPERTY
Delta U+W
SciTegic.value.DoubleValue
2.767

@<SCITEGIC>MOL_PROPERTY
U+W
SciTegic.value.DoubleValue
-33.509

@<SCITEGIC>MOL_PROPERTY
Grad RMS
SciTegic.value.DoubleValue
0.000000

@<SCITEGIC>MOL_PROPERTY
U
SciTegic.value.DoubleValue
24.552

@<SCITEGIC>MOL_PROPERTY
W
SciTegic.value.DoubleValue
-58.061

@<SCITEGIC>MOL_PROPERTY
W(PB)
SciTegic.value.DoubleValue
-59.930

@<SCITEGIC>MOL_PROPERTY
W(SA)
SciTegic.value.DoubleValue
1.869

@<SCITEGIC>MOL_PROPERTY
Valence
SciTegic.value.DoubleValue
3.726

@<SCITEGIC>MOL_PROPERTY
Coulomb
SciTegic.value.DoubleValue
20.219

@<SCITEGIC>MOL_PROPERTY
VdW
SciTegic.value.DoubleValue
0.606

@<SCITEGIC>MOL_PROPERTY
VdW6
SciTegic.value.DoubleValue
-6.395

@<SCITEGIC>MOL_PROPERTY
VdW12
SciTegic.value.DoubleValue
7.001

@<SCITEGIC>MOL_PROPERTY
Bond
SciTegic.value.DoubleValue
0.241

@<SCITEGIC>MOL_PROPERTY
Angle
SciTegic.value.DoubleValue
2.098

@<SCITEGIC>MOL_PROPERTY
Pdih
SciTegic.value.DoubleValue
1.387

@<SCITEGIC>MOL_PROPERTY
Idih
SciTegic.value.DoubleValue
0.000

@<SCITEGIC>MOL_PROPERTY
Tether
SciTegic.value.DoubleValue
0.000

@<TRIPOS>MOLECULE
guest-s10_confgen4.mol2 : confsearch ligand conformer 721
          20          19           1
SMALL
USER_CHARGES
 
@<TRIPOS>ATOM
       1    N1      20.245671   17.464597   23.907572 N.4        1 MOL1        -0.5937
       2    H1      20.234309   16.722438   23.203572 H          1 MOL1         0.3684
       3    H2      20.089738   17.023878   24.818127 H          1 MOL1         0.3684
       4    H3      21.188155   17.862274   23.920144 H          1 MOL1         0.3684
       5    C1      19.206861   18.514604   23.618750 C.3        1 MOL1         0.1270
       6    H4      19.289775   19.265691   24.410508 H          1 MOL1         0.0960
       7    C2      17.795223   17.908090   23.676963 C.3        1 MOL1        -0.2382
       8    H5      17.613127   17.440654   24.652468 H          1 MOL1         0.1009
       9    H6      17.658478   17.144366   22.901193 H          1 MOL1         0.1009
      10    H7      17.031625   18.682421   23.532159 H          1 MOL1         0.1009
      11    C3      19.433974   19.216736   22.261702 C.3        1 MOL1        -0.1392
      12    H8      19.379294   18.479157   21.449973 H          1 MOL1         0.0998
      13    H9      18.617003   19.930565   22.091193 H          1 MOL1         0.0998
      14    C4      20.781530   19.974667   22.189918 C.3        1 MOL1        -0.1302
      15    H10     21.618706   19.272455   22.301548 H          1 MOL1         0.0998
      16    H11     20.850420   20.687366   23.023919 H          1 MOL1         0.0998
      17    C5      20.937981   20.733875   20.854841 C.3        1 MOL1        -0.2317
      18    H12     20.903812   20.043772   20.001703 H          1 MOL1         0.1009
      19    H13     21.898672   21.263950   20.820513 H          1 MOL1         0.1009
      20    H14     20.139654   21.476369   20.725960 H          1 MOL1         0.1009
@<TRIPOS>BOND
    1     1     2    1
    2     1     3    1
    3     1     4    1
    4     1     5    1
    5     5     6    1
    6     5     7    1
    7     7     8    1
    8     7     9    1
    9     7    10    1
   10     5    11    1
   11    11    12    1
   12    11    13    1
   13    11    14    1
   14    14    15    1
   15    14    16    1
   16    14    17    1
   17    17    18    1
   18    17    19    1
   19    17    20    1
@<TRIPOS>SUBSTRUCTURE
       1 MOL1            1 RESIDUE      1      MOL     
@<SCITEGIC>MOL_PROPERTY
VConf Rank
SciTegic.value.IntegerValue
721

@<SCITEGIC>MOL_PROPERTY
Conf_Id
SciTegic.value.IntegerValue
74

@<SCITEGIC>MOL_PROPERTY
Delta U+W
SciTegic.value.DoubleValue
0.000

@<SCITEGIC>MOL_PROPERTY
U+W
SciTegic.value.DoubleValue
-36.276

@<SCITEGIC>MOL_PROPERTY
Grad RMS
SciTegic.value.DoubleValue
0.000000

@<SCITEGIC>MOL_PROPERTY
U
SciTegic.value.DoubleValue
22.080

@<SCITEGIC>MOL_PROPERTY
W
SciTegic.value.DoubleValue
-58.356

@<SCITEGIC>MOL_PROPERTY
W(PB)
SciTegic.value.DoubleValue
-60.289

@<SCITEGIC>MOL_PROPERTY
W(SA)
SciTegic.value.DoubleValue
1.932

@<SCITEGIC>MOL_PROPERTY
Valence
SciTegic.value.DoubleValue
1.885

@<SCITEGIC>MOL_PROPERTY
Coulomb
SciTegic.value.DoubleValue
19.559

@<SCITEGIC>MOL_PROPERTY
VdW
SciTegic.value.DoubleValue
0.637

@<SCITEGIC>MOL_PROPERTY
VdW6
SciTegic.value.DoubleValue
-4.482

@<SCITEGIC>MOL_PROPERTY
VdW12
SciTegic.value.DoubleValue
5.119

@<SCITEGIC>MOL_PROPERTY
Bond
SciTegic.value.DoubleValue
0.136

@<SCITEGIC>MOL_PROPERTY
Angle
SciTegic.value.DoubleValue
0.867

@<SCITEGIC>MOL_PROPERTY
Pdih
SciTegic.value.DoubleValue
0.882

@<SCITEGIC>MOL_PROPERTY
Idih
SciTegic.value.DoubleValue
0.000

@<SCITEGIC>MOL_PROPERTY
Tether
SciTegic.value.DoubleValue
0.000

@<TRIPOS>MOLECULE
guest-s10_confgen4.mol2 : confsearch ligand conformer 722
          20          19           1
SMALL
USER_CHARGES
 
@<TRIPOS>ATOM
       1    N1      20.144951   20.613332   24.373403 N.4        1 MOL1        -0.5937
       2    H1      19.613314   21.404966   24.001199 H          1 MOL1         0.3684
       3    H2      21.132427   20.783123   24.166551 H          1 MOL1         0.3684
       4    H3      20.040082   20.630978   25.391426 H          1 MOL1         0.3684
       5    C1      19.675508   19.307081   23.793923 C.3        1 MOL1         0.1270
       6    H4      18.619728   19.211085   24.065916 H          1 MOL1         0.0960
       7    C2      20.448591   18.134528   24.425003 C.3        1 MOL1        -0.2382
       8    H5      20.401632   18.185452   25.519729 H          1 MOL1         0.1009
       9    H6      21.504907   18.150129   24.129145 H          1 MOL1         0.1009
      10    H7      20.022491   17.169398   24.128043 H          1 MOL1         0.1009
      11    C3      19.778860   19.310363   22.250940 C.3        1 MOL1        -0.1392
      12    H8      19.302403   20.224521   21.872829 H          1 MOL1         0.0998
      13    H9      20.833918   19.363329   21.951112 H          1 MOL1         0.0998
      14    C4      19.105422   18.090283   21.576369 C.3        1 MOL1        -0.1302
      15    H10     18.067033   18.000154   21.925218 H          1 MOL1         0.0998
      16    H11     19.619780   17.163638   21.863889 H          1 MOL1         0.0998
      17    C5      19.119268   18.210692   20.037216 C.3        1 MOL1        -0.2317
      18    H12     18.575749   19.104865   19.705133 H          1 MOL1         0.1009
      19    H13     18.641775   17.336597   19.575646 H          1 MOL1         0.1009
      20    H14     20.146618   18.273726   19.655329 H          1 MOL1         0.1009
@<TRIPOS>BOND
    1     1     2    1
    2     1     3    1
    3     1     4    1
    4     1     5    1
    5     5     6    1
    6     5     7    1
    7     7     8    1
    8     7     9    1
    9     7    10    1
   10     5    11    1
   11    11    12    1
   12    11    13    1
   13    11    14    1
   14    14    15    1
   15    14    16    1
   16    14    17    1
   17    17    18    1
   18    17    19    1
   19    17    20    1
@<TRIPOS>SUBSTRUCTURE
       1 MOL1            1 RESIDUE      1      MOL     
@<SCITEGIC>MOL_PROPERTY
VConf Rank
SciTegic.value.IntegerValue
722

@<SCITEGIC>MOL_PROPERTY
Conf_Id
SciTegic.value.IntegerValue
80

@<SCITEGIC>MOL_PROPERTY
Delta U+W
SciTegic.value.DoubleValue
0.460

@<SCITEGIC>MOL_PROPERTY
U+W
SciTegic.value.DoubleValue
-35.817

@<SCITEGIC>MOL_PROPERTY
Grad RMS
SciTegic.value.DoubleValue
0.000000

@<SCITEGIC>MOL_PROPERTY
U
SciTegic.value.DoubleValue
22.495

@<SCITEGIC>MOL_PROPERTY
W
SciTegic.value.DoubleValue
-58.311

@<SCITEGIC>MOL_PROPERTY
W(PB)
SciTegic.value.DoubleValue
-60.259

@<SCITEGIC>MOL_PROPERTY
W(SA)
SciTegic.value.DoubleValue
1.948

@<SCITEGIC>MOL_PROPERTY
Valence
SciTegic.value.DoubleValue
2.419

@<SCITEGIC>MOL_PROPERTY
Coulomb
SciTegic.value.DoubleValue
19.304

@<SCITEGIC>MOL_PROPERTY
VdW
SciTegic.value.DoubleValue
0.772

@<SCITEGIC>MOL_PROPERTY
VdW6
SciTegic.value.DoubleValue
-4.635

@<SCITEGIC>MOL_PROPERTY
VdW12
SciTegic.value.DoubleValue
5.407

@<SCITEGIC>MOL_PROPERTY
Bond
SciTegic.value.DoubleValue
0.149

@<SCITEGIC>MOL_PROPERTY
Angle
SciTegic.value.DoubleValue
1.142

@<SCITEGIC>MOL_PROPERTY
Pdih
SciTegic.value.DoubleValue
1.129

@<SCITEGIC>MOL_PROPERTY
Idih
SciTegic.value.DoubleValue
0.000

@<SCITEGIC>MOL_PROPERTY
Tether
SciTegic.value.DoubleValue
0.000

@<TRIPOS>MOLECULE
guest-s10_confgen4.mol2 : confsearch ligand conformer 723
          20          19           1
SMALL
USER_CHARGES
 
@<TRIPOS>ATOM
       1    N1      17.425532   18.877543   22.140245 N.4        1 MOL1        -0.5937
       2    H1      16.941182   18.077868   22.557061 H          1 MOL1         0.3684
       3    H2      17.584625   18.659175   21.153486 H          1 MOL1         0.3684
       4    H3      16.782033   19.672689   22.175837 H          1 MOL1         0.3684
       5    C1      18.714845   19.180143   22.853586 C.3        1 MOL1         0.1270
       6    H4      18.445666   19.405440   23.890207 H          1 MOL1         0.0960
       7    C2      19.376900   20.430218   22.249224 C.3        1 MOL1        -0.2382
       8    H5      18.657822   21.255859   22.182999 H          1 MOL1         0.1009
       9    H6      19.759872   20.229974   21.240914 H          1 MOL1         0.1009
      10    H7      20.206661   20.776686   22.875692 H          1 MOL1         0.1009
      11    C3      19.650388   17.946417   22.857787 C.3        1 MOL1        -0.1392
      12    H8      19.081001   17.102834   23.269925 H          1 MOL1         0.0998
      13    H9      19.905163   17.659933   21.828833 H          1 MOL1         0.0998
      14    C4      20.940091   18.104564   23.705902 C.3        1 MOL1        -0.1302
      15    H10     21.161860   17.142455   24.188894 H          1 MOL1         0.0998
      16    H11     20.774574   18.820289   24.523402 H          1 MOL1         0.0998
      17    C5      22.177459   18.514552   22.872918 C.3        1 MOL1        -0.2317
      18    H12     22.395796   17.765431   22.100736 H          1 MOL1         0.1009
      19    H13     23.063335   18.596270   23.515980 H          1 MOL1         0.1009
      20    H14     22.039032   19.480717   22.375018 H          1 MOL1         0.1009
@<TRIPOS>BOND
    1     1     2    1
    2     1     3    1
    3     1     4    1
    4     1     5    1
    5     5     6    1
    6     5     7    1
    7     7     8    1
    8     7     9    1
    9     7    10    1
   10     5    11    1
   11    11    12    1
   12    11    13    1
   13    11    14    1
   14    14    15    1
   15    14    16    1
   16    14    17    1
   17    17    18    1
   18    17    19    1
   19    17    20    1
@<TRIPOS>SUBSTRUCTURE
       1 MOL1            1 RESIDUE      1      MOL     
@<SCITEGIC>MOL_PROPERTY
VConf Rank
SciTegic.value.IntegerValue
723

@<SCITEGIC>MOL_PROPERTY
Conf_Id
SciTegic.value.IntegerValue
52

@<SCITEGIC>MOL_PROPERTY
Delta U+W
SciTegic.value.DoubleValue
2.995

@<SCITEGIC>MOL_PROPERTY
U+W
SciTegic.value.DoubleValue
-33.282

@<SCITEGIC>MOL_PROPERTY
Grad RMS
SciTegic.value.DoubleValue
0.000000

@<SCITEGIC>MOL_PROPERTY
U
SciTegic.value.DoubleValue
25.224

@<SCITEGIC>MOL_PROPERTY
W
SciTegic.value.DoubleValue
-58.506

@<SCITEGIC>MOL_PROPERTY
W(PB)
SciTegic.value.DoubleValue
-60.411

@<SCITEGIC>MOL_PROPERTY
W(SA)
SciTegic.value.DoubleValue
1.905

@<SCITEGIC>MOL_PROPERTY
Valence
SciTegic.value.DoubleValue
4.945

@<SCITEGIC>MOL_PROPERTY
Coulomb
SciTegic.value.DoubleValue
19.467

@<SCITEGIC>MOL_PROPERTY
VdW
SciTegic.value.DoubleValue
0.813

@<SCITEGIC>MOL_PROPERTY
VdW6
SciTegic.value.DoubleValue
-5.458

@<SCITEGIC>MOL_PROPERTY
VdW12
SciTegic.value.DoubleValue
6.270

@<SCITEGIC>MOL_PROPERTY
Bond
SciTegic.value.DoubleValue
0.200

@<SCITEGIC>MOL_PROPERTY
Angle
SciTegic.value.DoubleValue
1.675

@<SCITEGIC>MOL_PROPERTY
Pdih
SciTegic.value.DoubleValue
3.070

@<SCITEGIC>MOL_PROPERTY
Idih
SciTegic.value.DoubleValue
0.000

@<SCITEGIC>MOL_PROPERTY
Tether
SciTegic.value.DoubleValue
0.000

@<TRIPOS>MOLECULE
guest-s10_confgen4.mol2 : confsearch ligand conformer 724
          20          19           1
SMALL
USER_CHARGES
 
@<TRIPOS>ATOM
       1    N1      18.961940   20.421986   22.576279 N.4        1 MOL1        -0.5937
       2    H1      18.245648   20.406372   23.306388 H          1 MOL1         0.3684
       3    H2      18.661407   21.096024   21.867054 H          1 MOL1         0.3684
       4    H3      19.821281   20.780136   22.998473 H          1 MOL1         0.3684
       5    C1      19.172510   19.054695   21.985158 C.3        1 MOL1         0.1270
       6    H4      19.911438   19.159977   21.184761 H          1 MOL1         0.0960
       7    C2      17.860027   18.547271   21.364134 C.3        1 MOL1        -0.2382
       8    H5      17.086126   18.408632   22.129454 H          1 MOL1         0.1009
       9    H6      18.013433   17.587490   20.855280 H          1 MOL1         0.1009
      10    H7      17.481436   19.258786   20.619990 H          1 MOL1         0.1009
      11    C3      19.712762   18.033108   23.014101 C.3        1 MOL1        -0.1392
      12    H8      19.129156   18.092169   23.942266 H          1 MOL1         0.0998
      13    H9      19.549052   17.020737   22.621178 H          1 MOL1         0.0998
      14    C4      21.226891   18.162861   23.325845 C.3        1 MOL1        -0.1302
      15    H10     21.806426   18.055416   22.398144 H          1 MOL1         0.0998
      16    H11     21.518513   17.316838   23.963990 H          1 MOL1         0.0998
      17    C5      21.633183   19.472636   24.039021 C.3        1 MOL1        -0.2317
      18    H12     22.666860   19.401362   24.401951 H          1 MOL1         0.1009
      19    H13     20.989983   19.671588   24.906217 H          1 MOL1         0.1009
      20    H14     21.592320   20.332187   23.360093 H          1 MOL1         0.1009
@<TRIPOS>BOND
    1     1     2    1
    2     1     3    1
    3     1     4    1
    4     1     5    1
    5     5     6    1
    6     5     7    1
    7     7     8    1
    8     7     9    1
    9     7    10    1
   10     5    11    1
   11    11    12    1
   12    11    13    1
   13    11    14    1
   14    14    15    1
   15    14    16    1
   16    14    17    1
   17    17    18    1
   18    17    19    1
   19    17    20    1
@<TRIPOS>SUBSTRUCTURE
       1 MOL1            1 RESIDUE      1      MOL     
@<SCITEGIC>MOL_PROPERTY
VConf Rank
SciTegic.value.IntegerValue
724

@<SCITEGIC>MOL_PROPERTY
Conf_Id
SciTegic.value.IntegerValue
54

@<SCITEGIC>MOL_PROPERTY
Delta U+W
SciTegic.value.DoubleValue
2.752

@<SCITEGIC>MOL_PROPERTY
U+W
SciTegic.value.DoubleValue
-33.525

@<SCITEGIC>MOL_PROPERTY
Grad RMS
SciTegic.value.DoubleValue
0.000000

@<SCITEGIC>MOL_PROPERTY
U
SciTegic.value.DoubleValue
24.337

@<SCITEGIC>MOL_PROPERTY
W
SciTegic.value.DoubleValue
-57.862

@<SCITEGIC>MOL_PROPERTY
W(PB)
SciTegic.value.DoubleValue
-59.764

@<SCITEGIC>MOL_PROPERTY
W(SA)
SciTegic.value.DoubleValue
1.901

@<SCITEGIC>MOL_PROPERTY
Valence
SciTegic.value.DoubleValue
3.593

@<SCITEGIC>MOL_PROPERTY
Coulomb
SciTegic.value.DoubleValue
20.067

@<SCITEGIC>MOL_PROPERTY
VdW
SciTegic.value.DoubleValue
0.677

@<SCITEGIC>MOL_PROPERTY
VdW6
SciTegic.value.DoubleValue
-5.466

@<SCITEGIC>MOL_PROPERTY
VdW12
SciTegic.value.DoubleValue
6.144

@<SCITEGIC>MOL_PROPERTY
Bond
SciTegic.value.DoubleValue
0.191

@<SCITEGIC>MOL_PROPERTY
Angle
SciTegic.value.DoubleValue
1.557

@<SCITEGIC>MOL_PROPERTY
Pdih
SciTegic.value.DoubleValue
1.845

@<SCITEGIC>MOL_PROPERTY
Idih
SciTegic.value.DoubleValue
0.000

@<SCITEGIC>MOL_PROPERTY
Tether
SciTegic.value.DoubleValue
0.000

@<TRIPOS>MOLECULE
guest-s10_confgen4.mol2 : confsearch ligand conformer 725
          20          19           1
SMALL
USER_CHARGES
 
@<TRIPOS>ATOM
       1    N1      20.939465   18.331302   21.122146 N.4        1 MOL1        -0.5937
       2    H1      21.847167   18.454686   20.665519 H          1 MOL1         0.3684
       3    H2      20.267775   18.067346   20.396287 H          1 MOL1         0.3684
       4    H3      21.025557   17.539840   21.763726 H          1 MOL1         0.3684
       5    C1      20.511771   19.580376   21.843795 C.3        1 MOL1         0.1270
       6    H4      20.464833   20.367456   21.084634 H          1 MOL1         0.0960
       7    C2      21.561952   20.003827   22.886221 C.3        1 MOL1        -0.2382
       8    H5      21.245678   20.913637   23.411282 H          1 MOL1         0.1009
       9    H6      22.521004   20.218270   22.399067 H          1 MOL1         0.1009
      10    H7      21.733872   19.218580   23.631790 H          1 MOL1         0.1009
      11    C3      19.097914   19.454205   22.460351 C.3        1 MOL1        -0.1392
      12    H8      18.812640   20.423498   22.890263 H          1 MOL1         0.0998
      13    H9      18.382081   19.261890   21.650410 H          1 MOL1         0.0998
      14    C4      18.951052   18.352030   23.541085 C.3        1 MOL1        -0.1302
      15    H10     19.623353   18.555441   24.385271 H          1 MOL1         0.0998
      16    H11     19.241897   17.376182   23.129637 H          1 MOL1         0.0998
      17    C5      17.502320   18.264213   24.067195 C.3        1 MOL1        -0.2317
      18    H12     17.414385   17.481960   24.832318 H          1 MOL1         0.1009
      19    H13     16.801473   18.022702   23.257437 H          1 MOL1         0.1009
      20    H14     17.187888   19.213861   24.519439 H          1 MOL1         0.1009
@<TRIPOS>BOND
    1     1     2    1
    2     1     3    1
    3     1     4    1
    4     1     5    1
    5     5     6    1
    6     5     7    1
    7     7     8    1
    8     7     9    1
    9     7    10    1
   10     5    11    1
   11    11    12    1
   12    11    13    1
   13    11    14    1
   14    14    15    1
   15    14    16    1
   16    14    17    1
   17    17    18    1
   18    17    19    1
   19    17    20    1
@<TRIPOS>SUBSTRUCTURE
       1 MOL1            1 RESIDUE      1      MOL     
@<SCITEGIC>MOL_PROPERTY
VConf Rank
SciTegic.value.IntegerValue
725

@<SCITEGIC>MOL_PROPERTY
Conf_Id
SciTegic.value.IntegerValue
63

@<SCITEGIC>MOL_PROPERTY
Delta U+W
SciTegic.value.DoubleValue
0.420

@<SCITEGIC>MOL_PROPERTY
U+W
SciTegic.value.DoubleValue
-35.856

@<SCITEGIC>MOL_PROPERTY
Grad RMS
SciTegic.value.DoubleValue
0.000000

@<SCITEGIC>MOL_PROPERTY
U
SciTegic.value.DoubleValue
22.625

@<SCITEGIC>MOL_PROPERTY
W
SciTegic.value.DoubleValue
-58.481

@<SCITEGIC>MOL_PROPERTY
W(PB)
SciTegic.value.DoubleValue
-60.400

@<SCITEGIC>MOL_PROPERTY
W(SA)
SciTegic.value.DoubleValue
1.919

@<SCITEGIC>MOL_PROPERTY
Valence
SciTegic.value.DoubleValue
2.404

@<SCITEGIC>MOL_PROPERTY
Coulomb
SciTegic.value.DoubleValue
19.464

@<SCITEGIC>MOL_PROPERTY
VdW
SciTegic.value.DoubleValue
0.757

@<SCITEGIC>MOL_PROPERTY
VdW6
SciTegic.value.DoubleValue
-5.074

@<SCITEGIC>MOL_PROPERTY
VdW12
SciTegic.value.DoubleValue
5.830

@<SCITEGIC>MOL_PROPERTY
Bond
SciTegic.value.DoubleValue
0.172

@<SCITEGIC>MOL_PROPERTY
Angle
SciTegic.value.DoubleValue
1.207

@<SCITEGIC>MOL_PROPERTY
Pdih
SciTegic.value.DoubleValue
1.025

@<SCITEGIC>MOL_PROPERTY
Idih
SciTegic.value.DoubleValue
0.000

@<SCITEGIC>MOL_PROPERTY
Tether
SciTegic.value.DoubleValue
0.000

@<TRIPOS>MOLECULE
guest-s10_confgen4.mol2 : confsearch ligand conformer 726
          20          19           1
SMALL
USER_CHARGES
 
@<TRIPOS>ATOM
       1    N1      18.723310   17.580992   22.248910 N.4        1 MOL1        -0.5937
       2    H1      18.910108   17.224447   23.189578 H          1 MOL1         0.3684
       3    H2      19.253901   17.005497   21.590351 H          1 MOL1         0.3684
       4    H3      17.729647   17.429246   22.056168 H          1 MOL1         0.3684
       5    C1      19.092558   19.035006   22.131969 C.3        1 MOL1         0.1270
       6    H4      18.482267   19.574423   22.862519 H          1 MOL1         0.0960
       7    C2      18.749241   19.571681   20.732817 C.3        1 MOL1        -0.2382
       8    H5      17.684664   19.426728   20.511682 H          1 MOL1         0.1009
       9    H6      19.332158   19.060243   19.956678 H          1 MOL1         0.1009
      10    H7      18.959340   20.646352   20.665260 H          1 MOL1         0.1009
      11    C3      20.580959   19.294909   22.457692 C.3        1 MOL1        -0.1392
      12    H8      21.210709   18.774161   21.724159 H          1 MOL1         0.0998
      13    H9      20.791350   20.365902   22.336715 H          1 MOL1         0.0998
      14    C4      21.003412   18.863802   23.885130 C.3        1 MOL1        -0.1302
      15    H10     22.072003   19.083702   24.018017 H          1 MOL1         0.0998
      16    H11     20.903116   17.775885   23.998903 H          1 MOL1         0.0998
      17    C5      20.202840   19.580477   24.996359 C.3        1 MOL1        -0.2317
      18    H12     20.288188   20.670993   24.903245 H          1 MOL1         0.1009
      19    H13     20.583102   19.298727   25.986857 H          1 MOL1         0.1009
      20    H14     19.138484   19.315961   24.963591 H          1 MOL1         0.1009
@<TRIPOS>BOND
    1     1     2    1
    2     1     3    1
    3     1     4    1
    4     1     5    1
    5     5     6    1
    6     5     7    1
    7     7     8    1
    8     7     9    1
    9     7    10    1
   10     5    11    1
   11    11    12    1
   12    11    13    1
   13    11    14    1
   14    14    15    1
   15    14    16    1
   16    14    17    1
   17    17    18    1
   18    17    19    1
   19    17    20    1
@<TRIPOS>SUBSTRUCTURE
       1 MOL1            1 RESIDUE      1      MOL     
@<SCITEGIC>MOL_PROPERTY
VConf Rank
SciTegic.value.IntegerValue
726

@<SCITEGIC>MOL_PROPERTY
Conf_Id
SciTegic.value.IntegerValue
50

@<SCITEGIC>MOL_PROPERTY
Delta U+W
SciTegic.value.DoubleValue
0.466

@<SCITEGIC>MOL_PROPERTY
U+W
SciTegic.value.DoubleValue
-35.811

@<SCITEGIC>MOL_PROPERTY
Grad RMS
SciTegic.value.DoubleValue
0.000000

@<SCITEGIC>MOL_PROPERTY
U
SciTegic.value.DoubleValue
22.369

@<SCITEGIC>MOL_PROPERTY
W
SciTegic.value.DoubleValue
-58.180

@<SCITEGIC>MOL_PROPERTY
W(PB)
SciTegic.value.DoubleValue
-60.103

@<SCITEGIC>MOL_PROPERTY
W(SA)
SciTegic.value.DoubleValue
1.923

@<SCITEGIC>MOL_PROPERTY
Valence
SciTegic.value.DoubleValue
2.168

@<SCITEGIC>MOL_PROPERTY
Coulomb
SciTegic.value.DoubleValue
19.636

@<SCITEGIC>MOL_PROPERTY
VdW
SciTegic.value.DoubleValue
0.566

@<SCITEGIC>MOL_PROPERTY
VdW6
SciTegic.value.DoubleValue
-5.263

@<SCITEGIC>MOL_PROPERTY
VdW12
SciTegic.value.DoubleValue
5.829

@<SCITEGIC>MOL_PROPERTY
Bond
SciTegic.value.DoubleValue
0.162

@<SCITEGIC>MOL_PROPERTY
Angle
SciTegic.value.DoubleValue
1.066

@<SCITEGIC>MOL_PROPERTY
Pdih
SciTegic.value.DoubleValue
0.939

@<SCITEGIC>MOL_PROPERTY
Idih
SciTegic.value.DoubleValue
0.000

@<SCITEGIC>MOL_PROPERTY
Tether
SciTegic.value.DoubleValue
0.000

@<TRIPOS>MOLECULE
guest-s10_confgen4.mol2 : confsearch ligand conformer 727
          20          19           1
SMALL
USER_CHARGES
 
@<TRIPOS>ATOM
       1    N1      21.613671   17.640770   23.046735 N.4        1 MOL1        -0.5937
       2    H1      22.146035   17.781902   22.183795 H          1 MOL1         0.3684
       3    H2      21.323602   16.659901   23.071804 H          1 MOL1         0.3684
       4    H3      22.259301   17.787110   23.827429 H          1 MOL1         0.3684
       5    C1      20.431984   18.568993   23.127968 C.3        1 MOL1         0.1270
       6    H4      20.838953   19.584260   23.090924 H          1 MOL1         0.0960
       7    C2      19.703294   18.377848   24.471262 C.3        1 MOL1        -0.2382
       8    H5      19.319089   17.354998   24.570415 H          1 MOL1         0.1009
       9    H6      18.857080   19.065991   24.572111 H          1 MOL1         0.1009
      10    H7      20.384151   18.566586   25.310273 H          1 MOL1         0.1009
      11    C3      19.472681   18.390308   21.925453 C.3        1 MOL1        -0.1392
      12    H8      19.997609   17.854672   21.123445 H          1 MOL1         0.0998
      13    H9      18.624981   17.749629   22.202851 H          1 MOL1         0.0998
      14    C4      18.958935   19.725186   21.328840 C.3        1 MOL1        -0.1302
      15    H10     18.353282   19.501785   20.439340 H          1 MOL1         0.0998
      16    H11     19.811640   20.321746   20.975160 H          1 MOL1         0.0998
      17    C5      18.112725   20.570424   22.306458 C.3        1 MOL1        -0.2317
      18    H12     17.275132   19.987833   22.711493 H          1 MOL1         0.1009
      19    H13     17.693965   21.445631   21.792946 H          1 MOL1         0.1009
      20    H14     18.717572   20.940472   23.143629 H          1 MOL1         0.1009
@<TRIPOS>BOND
    1     1     2    1
    2     1     3    1
    3     1     4    1
    4     1     5    1
    5     5     6    1
    6     5     7    1
    7     7     8    1
    8     7     9    1
    9     7    10    1
   10     5    11    1
   11    11    12    1
   12    11    13    1
   13    11    14    1
   14    14    15    1
   15    14    16    1
   16    14    17    1
   17    17    18    1
   18    17    19    1
   19    17    20    1
@<TRIPOS>SUBSTRUCTURE
       1 MOL1            1 RESIDUE      1      MOL     
@<SCITEGIC>MOL_PROPERTY
VConf Rank
SciTegic.value.IntegerValue
727

@<SCITEGIC>MOL_PROPERTY
Conf_Id
SciTegic.value.IntegerValue
3

@<SCITEGIC>MOL_PROPERTY
Delta U+W
SciTegic.value.DoubleValue
3.093

@<SCITEGIC>MOL_PROPERTY
U+W
SciTegic.value.DoubleValue
-33.184

@<SCITEGIC>MOL_PROPERTY
Grad RMS
SciTegic.value.DoubleValue
0.000000

@<SCITEGIC>MOL_PROPERTY
U
SciTegic.value.DoubleValue
25.256

@<SCITEGIC>MOL_PROPERTY
W
SciTegic.value.DoubleValue
-58.439

@<SCITEGIC>MOL_PROPERTY
W(PB)
SciTegic.value.DoubleValue
-60.337

@<SCITEGIC>MOL_PROPERTY
W(SA)
SciTegic.value.DoubleValue
1.898

@<SCITEGIC>MOL_PROPERTY
Valence
SciTegic.value.DoubleValue
4.963

@<SCITEGIC>MOL_PROPERTY
Coulomb
SciTegic.value.DoubleValue
19.511

@<SCITEGIC>MOL_PROPERTY
VdW
SciTegic.value.DoubleValue
0.782

@<SCITEGIC>MOL_PROPERTY
VdW6
SciTegic.value.DoubleValue
-5.429

@<SCITEGIC>MOL_PROPERTY
VdW12
SciTegic.value.DoubleValue
6.211

@<SCITEGIC>MOL_PROPERTY
Bond
SciTegic.value.DoubleValue
0.174

@<SCITEGIC>MOL_PROPERTY
Angle
SciTegic.value.DoubleValue
1.377

@<SCITEGIC>MOL_PROPERTY
Pdih
SciTegic.value.DoubleValue
3.412

@<SCITEGIC>MOL_PROPERTY
Idih
SciTegic.value.DoubleValue
0.000

@<SCITEGIC>MOL_PROPERTY
Tether
SciTegic.value.DoubleValue
0.000

@<TRIPOS>MOLECULE
guest-s10_confgen4.mol2 : confsearch ligand conformer 728
          20          19           1
SMALL
USER_CHARGES
 
@<TRIPOS>ATOM
       1    N1      19.898633   19.494177   20.562683 N.4        1 MOL1        -0.5937
       2    H1      20.684867   20.041133   20.201696 H          1 MOL1         0.3684
       3    H2      19.045547   20.024316   20.365131 H          1 MOL1         0.3684
       4    H3      19.854752   18.629185   20.018122 H          1 MOL1         0.3684
       5    C1      20.050889   19.214572   22.032724 C.3        1 MOL1         0.1270
       6    H4      20.092384   20.189540   22.527508 H          1 MOL1         0.0960
       7    C2      21.374091   18.475529   22.303006 C.3        1 MOL1        -0.2382
       8    H5      21.567929   18.387405   23.378272 H          1 MOL1         0.1009
       9    H6      22.218508   19.021566   21.864900 H          1 MOL1         0.1009
      10    H7      21.360744   17.466757   21.872089 H          1 MOL1         0.1009
      11    C3      18.829901   18.440873   22.585000 C.3        1 MOL1        -0.1392
      12    H8      17.915166   18.973203   22.292749 H          1 MOL1         0.0998
      13    H9      18.775746   17.455661   22.103169 H          1 MOL1         0.0998
      14    C4      18.814271   18.253412   24.123739 C.3        1 MOL1        -0.1302
      15    H10     19.646642   17.609585   24.438251 H          1 MOL1         0.0998
      16    H11     17.897319   17.715964   24.403360 H          1 MOL1         0.0998
      17    C5      18.866548   19.590440   24.897545 C.3        1 MOL1        -0.2317
      18    H12     18.044252   20.252928   24.597383 H          1 MOL1         0.1009
      19    H13     19.813085   20.118568   24.726629 H          1 MOL1         0.1009
      20    H14     18.777033   19.413650   25.977244 H          1 MOL1         0.1009
@<TRIPOS>BOND
    1     1     2    1
    2     1     3    1
    3     1     4    1
    4     1     5    1
    5     5     6    1
    6     5     7    1
    7     7     8    1
    8     7     9    1
    9     7    10    1
   10     5    11    1
   11    11    12    1
   12    11    13    1
   13    11    14    1
   14    14    15    1
   15    14    16    1
   16    14    17    1
   17    17    18    1
   18    17    19    1
   19    17    20    1
@<TRIPOS>SUBSTRUCTURE
       1 MOL1            1 RESIDUE      1      MOL     
@<SCITEGIC>MOL_PROPERTY
VConf Rank
SciTegic.value.IntegerValue
728

@<SCITEGIC>MOL_PROPERTY
Conf_Id
SciTegic.value.IntegerValue
64

@<SCITEGIC>MOL_PROPERTY
Delta U+W
SciTegic.value.DoubleValue
0.544

@<SCITEGIC>MOL_PROPERTY
U+W
SciTegic.value.DoubleValue
-35.732

@<SCITEGIC>MOL_PROPERTY
Grad RMS
SciTegic.value.DoubleValue
0.000000

@<SCITEGIC>MOL_PROPERTY
U
SciTegic.value.DoubleValue
22.800

@<SCITEGIC>MOL_PROPERTY
W
SciTegic.value.DoubleValue
-58.532

@<SCITEGIC>MOL_PROPERTY
W(PB)
SciTegic.value.DoubleValue
-60.437

@<SCITEGIC>MOL_PROPERTY
W(SA)
SciTegic.value.DoubleValue
1.905

@<SCITEGIC>MOL_PROPERTY
Valence
SciTegic.value.DoubleValue
2.662

@<SCITEGIC>MOL_PROPERTY
Coulomb
SciTegic.value.DoubleValue
19.485

@<SCITEGIC>MOL_PROPERTY
VdW
SciTegic.value.DoubleValue
0.653

@<SCITEGIC>MOL_PROPERTY
VdW6
SciTegic.value.DoubleValue
-5.460

@<SCITEGIC>MOL_PROPERTY
VdW12
SciTegic.value.DoubleValue
6.113

@<SCITEGIC>MOL_PROPERTY
Bond
SciTegic.value.DoubleValue
0.174

@<SCITEGIC>MOL_PROPERTY
Angle
SciTegic.value.DoubleValue
1.378

@<SCITEGIC>MOL_PROPERTY
Pdih
SciTegic.value.DoubleValue
1.109

@<SCITEGIC>MOL_PROPERTY
Idih
SciTegic.value.DoubleValue
0.000

@<SCITEGIC>MOL_PROPERTY
Tether
SciTegic.value.DoubleValue
0.000

@<TRIPOS>MOLECULE
guest-s10_confgen4.mol2 : confsearch ligand conformer 729
          20          19           1
SMALL
USER_CHARGES
 
@<TRIPOS>ATOM
       1    N1      20.183107   17.118569   21.670524 N.4        1 MOL1        -0.5937
       2    H1      20.339665   17.816434   20.939945 H          1 MOL1         0.3684
       3    H2      19.593458   16.383972   21.270157 H          1 MOL1         0.3684
       4    H3      21.088683   16.694926   21.889880 H          1 MOL1         0.3684
       5    C1      19.548074   17.730431   22.890028 C.3        1 MOL1         0.1270
       6    H4      19.412982   16.909225   23.600896 H          1 MOL1         0.0960
       7    C2      18.153178   18.286895   22.560881 C.3        1 MOL1        -0.2382
       8    H5      18.196159   19.025558   21.752031 H          1 MOL1         0.1009
       9    H6      17.702674   18.759351   23.442454 H          1 MOL1         0.1009
      10    H7      17.485026   17.478949   22.238755 H          1 MOL1         0.1009
      11    C3      20.468507   18.772618   23.573833 C.3        1 MOL1        -0.1392
      12    H8      20.039383   19.056745   24.543690 H          1 MOL1         0.0998
      13    H9      21.413518   18.267875   23.813980 H          1 MOL1         0.0998
      14    C4      20.794271   20.048134   22.747903 C.3        1 MOL1        -0.1302
      15    H10     20.805489   19.826491   21.672669 H          1 MOL1         0.0998
      16    H11     21.814997   20.370449   22.997330 H          1 MOL1         0.0998
      17    C5      19.841789   21.232046   23.037521 C.3        1 MOL1        -0.2317
      18    H12     18.804249   21.003056   22.770966 H          1 MOL1         0.1009
      19    H13     20.143370   22.116283   22.461206 H          1 MOL1         0.1009
      20    H14     19.866035   21.504937   24.100529 H          1 MOL1         0.1009
@<TRIPOS>BOND
    1     1     2    1
    2     1     3    1
    3     1     4    1
    4     1     5    1
    5     5     6    1
    6     5     7    1
    7     7     8    1
    8     7     9    1
    9     7    10    1
   10     5    11    1
   11    11    12    1
   12    11    13    1
   13    11    14    1
   14    14    15    1
   15    14    16    1
   16    14    17    1
   17    17    18    1
   18    17    19    1
   19    17    20    1
@<TRIPOS>SUBSTRUCTURE
       1 MOL1            1 RESIDUE      1      MOL     
@<SCITEGIC>MOL_PROPERTY
VConf Rank
SciTegic.value.IntegerValue
729

@<SCITEGIC>MOL_PROPERTY
Conf_Id
SciTegic.value.IntegerValue
35

@<SCITEGIC>MOL_PROPERTY
Delta U+W
SciTegic.value.DoubleValue
3.004

@<SCITEGIC>MOL_PROPERTY
U+W
SciTegic.value.DoubleValue
-33.272

@<SCITEGIC>MOL_PROPERTY
Grad RMS
SciTegic.value.DoubleValue
0.000000

@<SCITEGIC>MOL_PROPERTY
U
SciTegic.value.DoubleValue
25.367

@<SCITEGIC>MOL_PROPERTY
W
SciTegic.value.DoubleValue
-58.639

@<SCITEGIC>MOL_PROPERTY
W(PB)
SciTegic.value.DoubleValue
-60.512

@<SCITEGIC>MOL_PROPERTY
W(SA)
SciTegic.value.DoubleValue
1.873

@<SCITEGIC>MOL_PROPERTY
Valence
SciTegic.value.DoubleValue
4.943

@<SCITEGIC>MOL_PROPERTY
Coulomb
SciTegic.value.DoubleValue
19.661

@<SCITEGIC>MOL_PROPERTY
VdW
SciTegic.value.DoubleValue
0.764

@<SCITEGIC>MOL_PROPERTY
VdW6
SciTegic.value.DoubleValue
-5.871

@<SCITEGIC>MOL_PROPERTY
VdW12
SciTegic.value.DoubleValue
6.636

@<SCITEGIC>MOL_PROPERTY
Bond
SciTegic.value.DoubleValue
0.230

@<SCITEGIC>MOL_PROPERTY
Angle
SciTegic.value.DoubleValue
1.857

@<SCITEGIC>MOL_PROPERTY
Pdih
SciTegic.value.DoubleValue
2.855

@<SCITEGIC>MOL_PROPERTY
Idih
SciTegic.value.DoubleValue
0.000

@<SCITEGIC>MOL_PROPERTY
Tether
SciTegic.value.DoubleValue
0.000

@<TRIPOS>MOLECULE
guest-s10_confgen4.mol2 : confsearch ligand conformer 730
          20          19           1
SMALL
USER_CHARGES
 
@<TRIPOS>ATOM
       1    N1      20.682899   20.372535   22.036505 N.4        1 MOL1        -0.5937
       2    H1      20.487487   21.340643   21.767835 H          1 MOL1         0.3684
       3    H2      21.567001   20.106374   21.594800 H          1 MOL1         0.3684
       4    H3      20.828603   20.354814   23.047670 H          1 MOL1         0.3684
       5    C1      19.565385   19.450914   21.631241 C.3        1 MOL1         0.1270
       6    H4      19.510797   19.524708   20.540598 H          1 MOL1         0.0960
       7    C2      18.213375   19.927839   22.190815 C.3        1 MOL1        -0.2382
       8    H5      18.221208   19.971261   23.286419 H          1 MOL1         0.1009
       9    H6      17.404437   19.255903   21.878498 H          1 MOL1         0.1009
      10    H7      17.975222   20.931130   21.817106 H          1 MOL1         0.1009
      11    C3      19.852333   17.964683   21.966039 C.3        1 MOL1        -0.1392
      12    H8      19.161960   17.351083   21.372387 H          1 MOL1         0.0998
      13    H9      20.855867   17.706078   21.603741 H          1 MOL1         0.0998
      14    C4      19.716132   17.529414   23.452170 C.3        1 MOL1        -0.1302
      15    H10     19.906667   16.448475   23.507775 H          1 MOL1         0.0998
      16    H11     18.681283   17.663787   23.795190 H          1 MOL1         0.0998
      17    C5      20.682834   18.242574   24.424698 C.3        1 MOL1        -0.2317
      18    H12     21.717856   18.198184   24.061519 H          1 MOL1         0.1009
      19    H13     20.655338   17.759208   25.409976 H          1 MOL1         0.1009
      20    H14     20.403924   19.291936   24.574089 H          1 MOL1         0.1009
@<TRIPOS>BOND
    1     1     2    1
    2     1     3    1
    3     1     4    1
    4     1     5    1
    5     5     6    1
    6     5     7    1
    7     7     8    1
    8     7     9    1
    9     7    10    1
   10     5    11    1
   11    11    12    1
   12    11    13    1
   13    11    14    1
   14    14    15    1
   15    14    16    1
   16    14    17    1
   17    17    18    1
   18    17    19    1
   19    17    20    1
@<TRIPOS>SUBSTRUCTURE
       1 MOL1            1 RESIDUE      1      MOL     
@<SCITEGIC>MOL_PROPERTY
VConf Rank
SciTegic.value.IntegerValue
730

@<SCITEGIC>MOL_PROPERTY
Conf_Id
SciTegic.value.IntegerValue
55

@<SCITEGIC>MOL_PROPERTY
Delta U+W
SciTegic.value.DoubleValue
2.767

@<SCITEGIC>MOL_PROPERTY
U+W
SciTegic.value.DoubleValue
-33.509

@<SCITEGIC>MOL_PROPERTY
Grad RMS
SciTegic.value.DoubleValue
0.000000

@<SCITEGIC>MOL_PROPERTY
U
SciTegic.value.DoubleValue
24.552

@<SCITEGIC>MOL_PROPERTY
W
SciTegic.value.DoubleValue
-58.061

@<SCITEGIC>MOL_PROPERTY
W(PB)
SciTegic.value.DoubleValue
-59.930

@<SCITEGIC>MOL_PROPERTY
W(SA)
SciTegic.value.DoubleValue
1.869

@<SCITEGIC>MOL_PROPERTY
Valence
SciTegic.value.DoubleValue
3.726

@<SCITEGIC>MOL_PROPERTY
Coulomb
SciTegic.value.DoubleValue
20.219

@<SCITEGIC>MOL_PROPERTY
VdW
SciTegic.value.DoubleValue
0.606

@<SCITEGIC>MOL_PROPERTY
VdW6
SciTegic.value.DoubleValue
-6.395

@<SCITEGIC>MOL_PROPERTY
VdW12
SciTegic.value.DoubleValue
7.001

@<SCITEGIC>MOL_PROPERTY
Bond
SciTegic.value.DoubleValue
0.241

@<SCITEGIC>MOL_PROPERTY
Angle
SciTegic.value.DoubleValue
2.098

@<SCITEGIC>MOL_PROPERTY
Pdih
SciTegic.value.DoubleValue
1.387

@<SCITEGIC>MOL_PROPERTY
Idih
SciTegic.value.DoubleValue
0.000

@<SCITEGIC>MOL_PROPERTY
Tether
SciTegic.value.DoubleValue
0.000

@<TRIPOS>MOLECULE
guest-s10_confgen4.mol2 : confsearch ligand conformer 731
          20          19           1
SMALL
USER_CHARGES
 
@<TRIPOS>ATOM
       1    N1      17.922327   19.594135   23.111246 N.4        1 MOL1        -0.5937
       2    H1      18.153037   20.581497   23.247013 H          1 MOL1         0.3684
       3    H2      17.056988   19.409413   23.625760 H          1 MOL1         0.3684
       4    H3      17.719437   19.459443   22.117629 H          1 MOL1         0.3684
       5    C1      19.039805   18.698130   23.573284 C.3        1 MOL1         0.1270
       6    H4      18.714716   17.669267   23.389861 H          1 MOL1         0.0960
       7    C2      19.277215   18.865679   25.083096 C.3        1 MOL1        -0.2382
       8    H5      18.358242   18.660915   25.645967 H          1 MOL1         0.1009
       9    H6      19.605112   19.884814   25.323181 H          1 MOL1         0.1009
      10    H7      20.045850   18.167412   25.437023 H          1 MOL1         0.1009
      11    C3      20.352079   18.935892   22.793824 C.3        1 MOL1        -0.1392
      12    H8      20.688068   19.970779   22.942270 H          1 MOL1         0.0998
      13    H9      21.134964   18.289751   23.212943 H          1 MOL1         0.0998
      14    C4      20.219460   18.640977   21.280234 C.3        1 MOL1        -0.1302
      15    H10     19.480878   19.314713   20.825259 H          1 MOL1         0.0998
      16    H11     19.848785   17.616597   21.133643 H          1 MOL1         0.0998
      17    C5      21.568001   18.806138   20.547115 C.3        1 MOL1        -0.2317
      18    H12     21.950459   19.830088   20.649623 H          1 MOL1         0.1009
      19    H13     21.455347   18.594758   19.475802 H          1 MOL1         0.1009
      20    H14     22.323237   18.117530   20.947952 H          1 MOL1         0.1009
@<TRIPOS>BOND
    1     1     2    1
    2     1     3    1
    3     1     4    1
    4     1     5    1
    5     5     6    1
    6     5     7    1
    7     7     8    1
    8     7     9    1
    9     7    10    1
   10     5    11    1
   11    11    12    1
   12    11    13    1
   13    11    14    1
   14    14    15    1
   15    14    16    1
   16    14    17    1
   17    17    18    1
   18    17    19    1
   19    17    20    1
@<TRIPOS>SUBSTRUCTURE
       1 MOL1            1 RESIDUE      1      MOL     
@<SCITEGIC>MOL_PROPERTY
VConf Rank
SciTegic.value.IntegerValue
731

@<SCITEGIC>MOL_PROPERTY
Conf_Id
SciTegic.value.IntegerValue
74

@<SCITEGIC>MOL_PROPERTY
Delta U+W
SciTegic.value.DoubleValue
0.000

@<SCITEGIC>MOL_PROPERTY
U+W
SciTegic.value.DoubleValue
-36.276

@<SCITEGIC>MOL_PROPERTY
Grad RMS
SciTegic.value.DoubleValue
0.000000

@<SCITEGIC>MOL_PROPERTY
U
SciTegic.value.DoubleValue
22.080

@<SCITEGIC>MOL_PROPERTY
W
SciTegic.value.DoubleValue
-58.356

@<SCITEGIC>MOL_PROPERTY
W(PB)
SciTegic.value.DoubleValue
-60.289

@<SCITEGIC>MOL_PROPERTY
W(SA)
SciTegic.value.DoubleValue
1.932

@<SCITEGIC>MOL_PROPERTY
Valence
SciTegic.value.DoubleValue
1.885

@<SCITEGIC>MOL_PROPERTY
Coulomb
SciTegic.value.DoubleValue
19.559

@<SCITEGIC>MOL_PROPERTY
VdW
SciTegic.value.DoubleValue
0.637

@<SCITEGIC>MOL_PROPERTY
VdW6
SciTegic.value.DoubleValue
-4.482

@<SCITEGIC>MOL_PROPERTY
VdW12
SciTegic.value.DoubleValue
5.119

@<SCITEGIC>MOL_PROPERTY
Bond
SciTegic.value.DoubleValue
0.136

@<SCITEGIC>MOL_PROPERTY
Angle
SciTegic.value.DoubleValue
0.867

@<SCITEGIC>MOL_PROPERTY
Pdih
SciTegic.value.DoubleValue
0.882

@<SCITEGIC>MOL_PROPERTY
Idih
SciTegic.value.DoubleValue
0.000

@<SCITEGIC>MOL_PROPERTY
Tether
SciTegic.value.DoubleValue
0.000

@<TRIPOS>MOLECULE
guest-s10_confgen4.mol2 : confsearch ligand conformer 732
          20          19           1
SMALL
USER_CHARGES
 
@<TRIPOS>ATOM
       1    N1      21.945954   18.010921   22.738080 N.4        1 MOL1        -0.5937
       2    H1      21.816228   17.149239   22.200929 H          1 MOL1         0.3684
       3    H2      21.985570   17.752302   23.727157 H          1 MOL1         0.3684
       4    H3      22.863002   18.389046   22.485643 H          1 MOL1         0.3684
       5    C1      20.848107   19.003523   22.469861 C.3        1 MOL1         0.1270
       6    H4      20.884274   19.220687   21.397761 H          1 MOL1         0.0960
       7    C2      21.110577   20.310878   23.239752 C.3        1 MOL1        -0.2382
       8    H5      22.119690   20.686528   23.030468 H          1 MOL1         0.1009
       9    H6      21.022491   20.158683   24.322645 H          1 MOL1         0.1009
      10    H7      20.405817   21.096578   22.944435 H          1 MOL1         0.1009
      11    C3      19.460222   18.403965   22.795124 C.3        1 MOL1        -0.1392
      12    H8      19.380403   17.425721   22.302855 H          1 MOL1         0.0998
      13    H9      19.382371   18.215797   23.874189 H          1 MOL1         0.0998
      14    C4      18.274209   19.285056   22.332294 C.3        1 MOL1        -0.1302
      15    H10     18.385524   19.526012   21.265702 H          1 MOL1         0.0998
      16    H11     18.273065   20.239079   22.876114 H          1 MOL1         0.0998
      17    C5      16.919008   18.580935   22.558851 C.3        1 MOL1        -0.2317
      18    H12     16.862465   17.640368   21.995491 H          1 MOL1         0.1009
      19    H13     16.089933   19.220417   22.229025 H          1 MOL1         0.1009
      20    H14     16.765546   18.352504   23.621643 H          1 MOL1         0.1009
@<TRIPOS>BOND
    1     1     2    1
    2     1     3    1
    3     1     4    1
    4     1     5    1
    5     5     6    1
    6     5     7    1
    7     7     8    1
    8     7     9    1
    9     7    10    1
   10     5    11    1
   11    11    12    1
   12    11    13    1
   13    11    14    1
   14    14    15    1
   15    14    16    1
   16    14    17    1
   17    17    18    1
   18    17    19    1
   19    17    20    1
@<TRIPOS>SUBSTRUCTURE
       1 MOL1            1 RESIDUE      1      MOL     
@<SCITEGIC>MOL_PROPERTY
VConf Rank
SciTegic.value.IntegerValue
732

@<SCITEGIC>MOL_PROPERTY
Conf_Id
SciTegic.value.IntegerValue
80

@<SCITEGIC>MOL_PROPERTY
Delta U+W
SciTegic.value.DoubleValue
0.460

@<SCITEGIC>MOL_PROPERTY
U+W
SciTegic.value.DoubleValue
-35.817

@<SCITEGIC>MOL_PROPERTY
Grad RMS
SciTegic.value.DoubleValue
0.000000

@<SCITEGIC>MOL_PROPERTY
U
SciTegic.value.DoubleValue
22.495

@<SCITEGIC>MOL_PROPERTY
W
SciTegic.value.DoubleValue
-58.311

@<SCITEGIC>MOL_PROPERTY
W(PB)
SciTegic.value.DoubleValue
-60.259

@<SCITEGIC>MOL_PROPERTY
W(SA)
SciTegic.value.DoubleValue
1.948

@<SCITEGIC>MOL_PROPERTY
Valence
SciTegic.value.DoubleValue
2.419

@<SCITEGIC>MOL_PROPERTY
Coulomb
SciTegic.value.DoubleValue
19.304

@<SCITEGIC>MOL_PROPERTY
VdW
SciTegic.value.DoubleValue
0.772

@<SCITEGIC>MOL_PROPERTY
VdW6
SciTegic.value.DoubleValue
-4.635

@<SCITEGIC>MOL_PROPERTY
VdW12
SciTegic.value.DoubleValue
5.407

@<SCITEGIC>MOL_PROPERTY
Bond
SciTegic.value.DoubleValue
0.149

@<SCITEGIC>MOL_PROPERTY
Angle
SciTegic.value.DoubleValue
1.142

@<SCITEGIC>MOL_PROPERTY
Pdih
SciTegic.value.DoubleValue
1.129

@<SCITEGIC>MOL_PROPERTY
Idih
SciTegic.value.DoubleValue
0.000

@<SCITEGIC>MOL_PROPERTY
Tether
SciTegic.value.DoubleValue
0.000

@<TRIPOS>MOLECULE
guest-s10_confgen4.mol2 : confsearch ligand conformer 733
          20          19           1
SMALL
USER_CHARGES
 
@<TRIPOS>ATOM
       1    N1      21.240555   19.083088   20.851885 N.4        1 MOL1        -0.5937
       2    H1      20.754780   19.458697   20.032890 H          1 MOL1         0.3684
       3    H2      21.341275   18.074542   20.712671 H          1 MOL1         0.3684
       4    H3      22.181838   19.485066   20.855645 H          1 MOL1         0.3684
       5    C1      20.503982   19.393705   22.126140 C.3        1 MOL1         0.1270
       6    H4      20.451243   20.484942   22.191103 H          1 MOL1         0.0960
       7    C2      21.298809   18.880576   23.339073 C.3        1 MOL1        -0.2382
       8    H5      22.341121   19.218768   23.290552 H          1 MOL1         0.1009
       9    H6      21.297687   17.784362   23.381125 H          1 MOL1         0.1009
      10    H7      20.879347   19.266547   24.275067 H          1 MOL1         0.1009
      11    C3      19.056871   18.845052   22.079366 C.3        1 MOL1        -0.1392
      12    H8      18.586451   19.234442   21.166801 H          1 MOL1         0.0998
      13    H9      19.068638   17.752913   21.966127 H          1 MOL1         0.0998
      14    C4      18.162898   19.250491   23.281062 C.3        1 MOL1        -0.1302
      15    H10     17.142261   19.428493   22.914001 H          1 MOL1         0.0998
      16    H11     18.501455   20.206872   23.703768 H          1 MOL1         0.0998
      17    C5      18.089126   18.169332   24.385004 C.3        1 MOL1        -0.2317
      18    H12     17.680091   17.231142   23.988008 H          1 MOL1         0.1009
      19    H13     17.433124   18.498256   25.201370 H          1 MOL1         0.1009
      20    H14     19.072284   17.951772   24.816988 H          1 MOL1         0.1009
@<TRIPOS>BOND
    1     1     2    1
    2     1     3    1
    3     1     4    1
    4     1     5    1
    5     5     6    1
    6     5     7    1
    7     7     8    1
    8     7     9    1
    9     7    10    1
   10     5    11    1
   11    11    12    1
   12    11    13    1
   13    11    14    1
   14    14    15    1
   15    14    16    1
   16    14    17    1
   17    17    18    1
   18    17    19    1
   19    17    20    1
@<TRIPOS>SUBSTRUCTURE
       1 MOL1            1 RESIDUE      1      MOL     
@<SCITEGIC>MOL_PROPERTY
VConf Rank
SciTegic.value.IntegerValue
733

@<SCITEGIC>MOL_PROPERTY
Conf_Id
SciTegic.value.IntegerValue
52

@<SCITEGIC>MOL_PROPERTY
Delta U+W
SciTegic.value.DoubleValue
2.995

@<SCITEGIC>MOL_PROPERTY
U+W
SciTegic.value.DoubleValue
-33.282

@<SCITEGIC>MOL_PROPERTY
Grad RMS
SciTegic.value.DoubleValue
0.000000

@<SCITEGIC>MOL_PROPERTY
U
SciTegic.value.DoubleValue
25.224

@<SCITEGIC>MOL_PROPERTY
W
SciTegic.value.DoubleValue
-58.506

@<SCITEGIC>MOL_PROPERTY
W(PB)
SciTegic.value.DoubleValue
-60.411

@<SCITEGIC>MOL_PROPERTY
W(SA)
SciTegic.value.DoubleValue
1.905

@<SCITEGIC>MOL_PROPERTY
Valence
SciTegic.value.DoubleValue
4.945

@<SCITEGIC>MOL_PROPERTY
Coulomb
SciTegic.value.DoubleValue
19.467

@<SCITEGIC>MOL_PROPERTY
VdW
SciTegic.value.DoubleValue
0.813

@<SCITEGIC>MOL_PROPERTY
VdW6
SciTegic.value.DoubleValue
-5.458

@<SCITEGIC>MOL_PROPERTY
VdW12
SciTegic.value.DoubleValue
6.270

@<SCITEGIC>MOL_PROPERTY
Bond
SciTegic.value.DoubleValue
0.200

@<SCITEGIC>MOL_PROPERTY
Angle
SciTegic.value.DoubleValue
1.675

@<SCITEGIC>MOL_PROPERTY
Pdih
SciTegic.value.DoubleValue
3.070

@<SCITEGIC>MOL_PROPERTY
Idih
SciTegic.value.DoubleValue
0.000

@<SCITEGIC>MOL_PROPERTY
Tether
SciTegic.value.DoubleValue
0.000

@<TRIPOS>MOLECULE
guest-s10_confgen4.mol2 : confsearch ligand conformer 734
          20          19           1
SMALL
USER_CHARGES
 
@<TRIPOS>ATOM
       1    N1      20.243512   17.637188   23.448107 N.4        1 MOL1        -0.5937
       2    H1      20.174928   17.820256   24.452178 H          1 MOL1         0.3684
       3    H2      20.895528   16.858188   23.322878 H          1 MOL1         0.3684
       4    H3      19.323562   17.324235   23.130713 H          1 MOL1         0.3684
       5    C1      20.693369   18.860585   22.696989 C.3        1 MOL1         0.1270
       6    H4      20.789491   18.575463   21.644753 H          1 MOL1         0.0960
       7    C2      22.076404   19.304101   23.203217 C.3        1 MOL1        -0.2382
       8    H5      22.033078   19.617091   24.253940 H          1 MOL1         0.1009
       9    H6      22.458320   20.145264   22.611413 H          1 MOL1         0.1009
      10    H7      22.801789   18.485434   23.119944 H          1 MOL1         0.1009
      11    C3      19.683425   20.028875   22.793666 C.3        1 MOL1        -0.1392
      12    H8      19.371891   20.169155   23.837142 H          1 MOL1         0.0998
      13    H9      20.194096   20.957619   22.506032 H          1 MOL1         0.0998
      14    C4      18.438542   19.889730   21.878509 C.3        1 MOL1        -0.1302
      15    H10     18.757698   19.797222   20.830837 H          1 MOL1         0.0998
      16    H11     17.864030   20.824842   21.937914 H          1 MOL1         0.0998
      17    C5      17.497246   18.717087   22.236390 C.3        1 MOL1        -0.2317
      18    H12     16.553224   18.806765   21.683157 H          1 MOL1         0.1009
      19    H13     17.255090   18.711499   23.307205 H          1 MOL1         0.1009
      20    H14     17.935169   17.749670   21.964791 H          1 MOL1         0.1009
@<TRIPOS>BOND
    1     1     2    1
    2     1     3    1
    3     1     4    1
    4     1     5    1
    5     5     6    1
    6     5     7    1
    7     7     8    1
    8     7     9    1
    9     7    10    1
   10     5    11    1
   11    11    12    1
   12    11    13    1
   13    11    14    1
   14    14    15    1
   15    14    16    1
   16    14    17    1
   17    17    18    1
   18    17    19    1
   19    17    20    1
@<TRIPOS>SUBSTRUCTURE
       1 MOL1            1 RESIDUE      1      MOL     
@<SCITEGIC>MOL_PROPERTY
VConf Rank
SciTegic.value.IntegerValue
734

@<SCITEGIC>MOL_PROPERTY
Conf_Id
SciTegic.value.IntegerValue
54

@<SCITEGIC>MOL_PROPERTY
Delta U+W
SciTegic.value.DoubleValue
2.752

@<SCITEGIC>MOL_PROPERTY
U+W
SciTegic.value.DoubleValue
-33.525

@<SCITEGIC>MOL_PROPERTY
Grad RMS
SciTegic.value.DoubleValue
0.000000

@<SCITEGIC>MOL_PROPERTY
U
SciTegic.value.DoubleValue
24.337

@<SCITEGIC>MOL_PROPERTY
W
SciTegic.value.DoubleValue
-57.862

@<SCITEGIC>MOL_PROPERTY
W(PB)
SciTegic.value.DoubleValue
-59.764

@<SCITEGIC>MOL_PROPERTY
W(SA)
SciTegic.value.DoubleValue
1.901

@<SCITEGIC>MOL_PROPERTY
Valence
SciTegic.value.DoubleValue
3.593

@<SCITEGIC>MOL_PROPERTY
Coulomb
SciTegic.value.DoubleValue
20.067

@<SCITEGIC>MOL_PROPERTY
VdW
SciTegic.value.DoubleValue
0.677

@<SCITEGIC>MOL_PROPERTY
VdW6
SciTegic.value.DoubleValue
-5.466

@<SCITEGIC>MOL_PROPERTY
VdW12
SciTegic.value.DoubleValue
6.144

@<SCITEGIC>MOL_PROPERTY
Bond
SciTegic.value.DoubleValue
0.191

@<SCITEGIC>MOL_PROPERTY
Angle
SciTegic.value.DoubleValue
1.557

@<SCITEGIC>MOL_PROPERTY
Pdih
SciTegic.value.DoubleValue
1.845

@<SCITEGIC>MOL_PROPERTY
Idih
SciTegic.value.DoubleValue
0.000

@<SCITEGIC>MOL_PROPERTY
Tether
SciTegic.value.DoubleValue
0.000

@<TRIPOS>MOLECULE
guest-s10_confgen4.mol2 : confsearch ligand conformer 735
          20          19           1
SMALL
USER_CHARGES
 
@<TRIPOS>ATOM
       1    N1      19.451024   19.259831   24.717169 N.4        1 MOL1        -0.5937
       2    H1      19.031323   19.887483   25.408225 H          1 MOL1         0.3684
       3    H2      20.261199   18.818380   25.160394 H          1 MOL1         0.3684
       4    H3      18.769518   18.523597   24.519790 H          1 MOL1         0.3684
       5    C1      19.839681   19.999449   23.465851 C.3        1 MOL1         0.1270
       6    H4      20.551219   20.770154   23.778501 H          1 MOL1         0.0960
       7    C2      18.625415   20.713656   22.845925 C.3        1 MOL1        -0.2382
       8    H5      18.912492   21.250128   21.933096 H          1 MOL1         0.1009
       9    H6      18.213873   21.449382   23.547656 H          1 MOL1         0.1009
      10    H7      17.824838   20.008529   22.593109 H          1 MOL1         0.1009
      11    C3      20.566377   19.093363   22.443122 C.3        1 MOL1        -0.1392
      12    H8      20.900349   19.711228   21.599060 H          1 MOL1         0.0998
      13    H9      21.480098   18.704738   22.911622 H          1 MOL1         0.0998
      14    C4      19.725406   17.906109   21.906896 C.3        1 MOL1        -0.1302
      15    H10     18.831270   18.277185   21.388402 H          1 MOL1         0.0998
      16    H11     19.375103   17.282442   22.740256 H          1 MOL1         0.0998
      17    C5      20.540165   17.030023   20.931207 C.3        1 MOL1        -0.2317
      18    H12     19.931677   16.195756   20.558639 H          1 MOL1         0.1009
      19    H13     21.424958   16.606764   21.424374 H          1 MOL1         0.1009
      20    H14     20.878094   17.613103   20.064579 H          1 MOL1         0.1009
@<TRIPOS>BOND
    1     1     2    1
    2     1     3    1
    3     1     4    1
    4     1     5    1
    5     5     6    1
    6     5     7    1
    7     7     8    1
    8     7     9    1
    9     7    10    1
   10     5    11    1
   11    11    12    1
   12    11    13    1
   13    11    14    1
   14    14    15    1
   15    14    16    1
   16    14    17    1
   17    17    18    1
   18    17    19    1
   19    17    20    1
@<TRIPOS>SUBSTRUCTURE
       1 MOL1            1 RESIDUE      1      MOL     
@<SCITEGIC>MOL_PROPERTY
VConf Rank
SciTegic.value.IntegerValue
735

@<SCITEGIC>MOL_PROPERTY
Conf_Id
SciTegic.value.IntegerValue
63

@<SCITEGIC>MOL_PROPERTY
Delta U+W
SciTegic.value.DoubleValue
0.420

@<SCITEGIC>MOL_PROPERTY
U+W
SciTegic.value.DoubleValue
-35.856

@<SCITEGIC>MOL_PROPERTY
Grad RMS
SciTegic.value.DoubleValue
0.000000

@<SCITEGIC>MOL_PROPERTY
U
SciTegic.value.DoubleValue
22.625

@<SCITEGIC>MOL_PROPERTY
W
SciTegic.value.DoubleValue
-58.481

@<SCITEGIC>MOL_PROPERTY
W(PB)
SciTegic.value.DoubleValue
-60.400

@<SCITEGIC>MOL_PROPERTY
W(SA)
SciTegic.value.DoubleValue
1.919

@<SCITEGIC>MOL_PROPERTY
Valence
SciTegic.value.DoubleValue
2.404

@<SCITEGIC>MOL_PROPERTY
Coulomb
SciTegic.value.DoubleValue
19.464

@<SCITEGIC>MOL_PROPERTY
VdW
SciTegic.value.DoubleValue
0.757

@<SCITEGIC>MOL_PROPERTY
VdW6
SciTegic.value.DoubleValue
-5.074

@<SCITEGIC>MOL_PROPERTY
VdW12
SciTegic.value.DoubleValue
5.830

@<SCITEGIC>MOL_PROPERTY
Bond
SciTegic.value.DoubleValue
0.172

@<SCITEGIC>MOL_PROPERTY
Angle
SciTegic.value.DoubleValue
1.207

@<SCITEGIC>MOL_PROPERTY
Pdih
SciTegic.value.DoubleValue
1.025

@<SCITEGIC>MOL_PROPERTY
Idih
SciTegic.value.DoubleValue
0.000

@<SCITEGIC>MOL_PROPERTY
Tether
SciTegic.value.DoubleValue
0.000

@<TRIPOS>MOLECULE
guest-s10_confgen4.mol2 : confsearch ligand conformer 736
          20          19           1
SMALL
USER_CHARGES
 
@<TRIPOS>ATOM
       1    N1      18.976824   20.373556   21.927417 N.4        1 MOL1        -0.5937
       2    H1      19.729621   20.904818   22.372312 H          1 MOL1         0.3684
       3    H2      18.099260   20.648742   22.375273 H          1 MOL1         0.3684
       4    H3      18.928205   20.672379   20.949724 H          1 MOL1         0.3684
       5    C1      19.212472   18.891727   22.040691 C.3        1 MOL1         0.1270
       6    H4      20.161811   18.684681   21.537683 H          1 MOL1         0.0960
       7    C2      18.106153   18.108849   21.314969 C.3        1 MOL1        -0.2382
       8    H5      18.045252   18.408699   20.261584 H          1 MOL1         0.1009
       9    H6      17.126602   18.283742   21.777185 H          1 MOL1         0.1009
      10    H7      18.309241   17.031064   21.342464 H          1 MOL1         0.1009
      11    C3      19.329413   18.422334   23.508675 C.3        1 MOL1        -0.1392
      12    H8      18.379097   18.606990   24.026975 H          1 MOL1         0.0998
      13    H9      19.481053   17.334829   23.524953 H          1 MOL1         0.0998
      14    C4      20.478242   19.096012   24.301297 C.3        1 MOL1        -0.1302
      15    H10     20.476444   18.702611   25.327521 H          1 MOL1         0.0998
      16    H11     20.295525   20.175349   24.391915 H          1 MOL1         0.0998
      17    C5      21.870275   18.853436   23.674585 C.3        1 MOL1        -0.2317
      18    H12     22.075850   17.779764   23.573847 H          1 MOL1         0.1009
      19    H13     22.656936   19.286666   24.305890 H          1 MOL1         0.1009
      20    H14     21.953082   19.312887   22.681638 H          1 MOL1         0.1009
@<TRIPOS>BOND
    1     1     2    1
    2     1     3    1
    3     1     4    1
    4     1     5    1
    5     5     6    1
    6     5     7    1
    7     7     8    1
    8     7     9    1
    9     7    10    1
   10     5    11    1
   11    11    12    1
   12    11    13    1
   13    11    14    1
   14    14    15    1
   15    14    16    1
   16    14    17    1
   17    17    18    1
   18    17    19    1
   19    17    20    1
@<TRIPOS>SUBSTRUCTURE
       1 MOL1            1 RESIDUE      1      MOL     
@<SCITEGIC>MOL_PROPERTY
VConf Rank
SciTegic.value.IntegerValue
736

@<SCITEGIC>MOL_PROPERTY
Conf_Id
SciTegic.value.IntegerValue
50

@<SCITEGIC>MOL_PROPERTY
Delta U+W
SciTegic.value.DoubleValue
0.466

@<SCITEGIC>MOL_PROPERTY
U+W
SciTegic.value.DoubleValue
-35.811

@<SCITEGIC>MOL_PROPERTY
Grad RMS
SciTegic.value.DoubleValue
0.000000

@<SCITEGIC>MOL_PROPERTY
U
SciTegic.value.DoubleValue
22.369

@<SCITEGIC>MOL_PROPERTY
W
SciTegic.value.DoubleValue
-58.180

@<SCITEGIC>MOL_PROPERTY
W(PB)
SciTegic.value.DoubleValue
-60.103

@<SCITEGIC>MOL_PROPERTY
W(SA)
SciTegic.value.DoubleValue
1.923

@<SCITEGIC>MOL_PROPERTY
Valence
SciTegic.value.DoubleValue
2.168

@<SCITEGIC>MOL_PROPERTY
Coulomb
SciTegic.value.DoubleValue
19.636

@<SCITEGIC>MOL_PROPERTY
VdW
SciTegic.value.DoubleValue
0.566

@<SCITEGIC>MOL_PROPERTY
VdW6
SciTegic.value.DoubleValue
-5.263

@<SCITEGIC>MOL_PROPERTY
VdW12
SciTegic.value.DoubleValue
5.829

@<SCITEGIC>MOL_PROPERTY
Bond
SciTegic.value.DoubleValue
0.162

@<SCITEGIC>MOL_PROPERTY
Angle
SciTegic.value.DoubleValue
1.066

@<SCITEGIC>MOL_PROPERTY
Pdih
SciTegic.value.DoubleValue
0.939

@<SCITEGIC>MOL_PROPERTY
Idih
SciTegic.value.DoubleValue
0.000

@<SCITEGIC>MOL_PROPERTY
Tether
SciTegic.value.DoubleValue
0.000

@<TRIPOS>MOLECULE
guest-s10_confgen4.mol2 : confsearch ligand conformer 737
          20          19           1
SMALL
USER_CHARGES
 
@<TRIPOS>ATOM
       1    N1      21.453514   19.376505   24.178036 N.4        1 MOL1        -0.5937
       2    H1      22.144826   19.842017   23.583575 H          1 MOL1         0.3684
       3    H2      21.852017   18.479998   24.468454 H          1 MOL1         0.3684
       4    H3      21.345128   19.948283   25.020092 H          1 MOL1         0.3684
       5    C1      20.141441   19.193036   23.464324 C.3        1 MOL1         0.1270
       6    H4      19.799281   20.196564   23.192994 H          1 MOL1         0.0960
       7    C2      19.108651   18.559478   24.415067 C.3        1 MOL1        -0.2382
       8    H5      19.436414   17.567601   24.750353 H          1 MOL1         0.1009
       9    H6      18.132583   18.445183   23.931316 H          1 MOL1         0.1009
      10    H7      18.965486   19.186911   25.303302 H          1 MOL1         0.1009
      11    C3      20.301678   18.370191   22.162217 C.3        1 MOL1        -0.1392
      12    H8      21.361396   18.354469   21.875122 H          1 MOL1         0.0998
      13    H9      20.026941   17.321078   22.335113 H          1 MOL1         0.0998
      14    C4      19.506528   18.937999   20.959258 C.3        1 MOL1        -0.1302
      15    H10     19.742439   18.338827   20.068600 H          1 MOL1         0.0998
      16    H11     19.850834   19.958552   20.740157 H          1 MOL1         0.0998
      17    C5      17.975034   18.946237   21.160992 C.3        1 MOL1        -0.2317
      18    H12     17.604472   17.946943   21.423905 H          1 MOL1         0.1009
      19    H13     17.468592   19.258731   20.238547 H          1 MOL1         0.1009
      20    H14     17.678425   19.647441   21.950907 H          1 MOL1         0.1009
@<TRIPOS>BOND
    1     1     2    1
    2     1     3    1
    3     1     4    1
    4     1     5    1
    5     5     6    1
    6     5     7    1
    7     7     8    1
    8     7     9    1
    9     7    10    1
   10     5    11    1
   11    11    12    1
   12    11    13    1
   13    11    14    1
   14    14    15    1
   15    14    16    1
   16    14    17    1
   17    17    18    1
   18    17    19    1
   19    17    20    1
@<TRIPOS>SUBSTRUCTURE
       1 MOL1            1 RESIDUE      1      MOL     
@<SCITEGIC>MOL_PROPERTY
VConf Rank
SciTegic.value.IntegerValue
737

@<SCITEGIC>MOL_PROPERTY
Conf_Id
SciTegic.value.IntegerValue
3

@<SCITEGIC>MOL_PROPERTY
Delta U+W
SciTegic.value.DoubleValue
3.093

@<SCITEGIC>MOL_PROPERTY
U+W
SciTegic.value.DoubleValue
-33.184

@<SCITEGIC>MOL_PROPERTY
Grad RMS
SciTegic.value.DoubleValue
0.000000

@<SCITEGIC>MOL_PROPERTY
U
SciTegic.value.DoubleValue
25.256

@<SCITEGIC>MOL_PROPERTY
W
SciTegic.value.DoubleValue
-58.439

@<SCITEGIC>MOL_PROPERTY
W(PB)
SciTegic.value.DoubleValue
-60.337

@<SCITEGIC>MOL_PROPERTY
W(SA)
SciTegic.value.DoubleValue
1.898

@<SCITEGIC>MOL_PROPERTY
Valence
SciTegic.value.DoubleValue
4.963

@<SCITEGIC>MOL_PROPERTY
Coulomb
SciTegic.value.DoubleValue
19.511

@<SCITEGIC>MOL_PROPERTY
VdW
SciTegic.value.DoubleValue
0.782

@<SCITEGIC>MOL_PROPERTY
VdW6
SciTegic.value.DoubleValue
-5.429

@<SCITEGIC>MOL_PROPERTY
VdW12
SciTegic.value.DoubleValue
6.211

@<SCITEGIC>MOL_PROPERTY
Bond
SciTegic.value.DoubleValue
0.174

@<SCITEGIC>MOL_PROPERTY
Angle
SciTegic.value.DoubleValue
1.377

@<SCITEGIC>MOL_PROPERTY
Pdih
SciTegic.value.DoubleValue
3.412

@<SCITEGIC>MOL_PROPERTY
Idih
SciTegic.value.DoubleValue
0.000

@<SCITEGIC>MOL_PROPERTY
Tether
SciTegic.value.DoubleValue
0.000

@<TRIPOS>MOLECULE
guest-s10_confgen4.mol2 : confsearch ligand conformer 738
          20          19           1
SMALL
USER_CHARGES
 
@<TRIPOS>ATOM
       1    N1      18.789406   17.061259   23.707790 N.4        1 MOL1        -0.5937
       2    H1      18.027523   16.527975   23.280265 H          1 MOL1         0.3684
       3    H2      18.455126   17.389446   24.617944 H          1 MOL1         0.3684
       4    H3      19.557630   16.408160   23.880934 H          1 MOL1         0.3684
       5    C1      19.222384   18.203566   22.830268 C.3        1 MOL1         0.1270
       6    H4      18.342171   18.840049   22.699082 H          1 MOL1         0.0960
       7    C2      19.655892   17.682485   21.448006 C.3        1 MOL1        -0.2382
       8    H5      19.841066   18.508590   20.751733 H          1 MOL1         0.1009
       9    H6      18.870578   17.056452   21.006987 H          1 MOL1         0.1009
      10    H7      20.570634   17.081107   21.519280 H          1 MOL1         0.1009
      11    C3      20.331613   19.042059   23.509215 C.3        1 MOL1        -0.1392
      12    H8      19.996965   19.315879   24.518452 H          1 MOL1         0.0998
      13    H9      21.226449   18.420020   23.643651 H          1 MOL1         0.0998
      14    C4      20.725176   20.339382   22.757440 C.3        1 MOL1        -0.1302
      15    H10     21.189649   20.095386   21.792555 H          1 MOL1         0.0998
      16    H11     21.497866   20.862043   23.338486 H          1 MOL1         0.0998
      17    C5      19.532165   21.296863   22.535845 C.3        1 MOL1        -0.2317
      18    H12     19.049306   21.553175   23.487848 H          1 MOL1         0.1009
      19    H13     18.776219   20.853213   21.875705 H          1 MOL1         0.1009
      20    H14     19.870491   22.231356   22.069717 H          1 MOL1         0.1009
@<TRIPOS>BOND
    1     1     2    1
    2     1     3    1
    3     1     4    1
    4     1     5    1
    5     5     6    1
    6     5     7    1
    7     7     8    1
    8     7     9    1
    9     7    10    1
   10     5    11    1
   11    11    12    1
   12    11    13    1
   13    11    14    1
   14    14    15    1
   15    14    16    1
   16    14    17    1
   17    17    18    1
   18    17    19    1
   19    17    20    1
@<TRIPOS>SUBSTRUCTURE
       1 MOL1            1 RESIDUE      1      MOL     
@<SCITEGIC>MOL_PROPERTY
VConf Rank
SciTegic.value.IntegerValue
738

@<SCITEGIC>MOL_PROPERTY
Conf_Id
SciTegic.value.IntegerValue
64

@<SCITEGIC>MOL_PROPERTY
Delta U+W
SciTegic.value.DoubleValue
0.544

@<SCITEGIC>MOL_PROPERTY
U+W
SciTegic.value.DoubleValue
-35.732

@<SCITEGIC>MOL_PROPERTY
Grad RMS
SciTegic.value.DoubleValue
0.000000

@<SCITEGIC>MOL_PROPERTY
U
SciTegic.value.DoubleValue
22.800

@<SCITEGIC>MOL_PROPERTY
W
SciTegic.value.DoubleValue
-58.532

@<SCITEGIC>MOL_PROPERTY
W(PB)
SciTegic.value.DoubleValue
-60.437

@<SCITEGIC>MOL_PROPERTY
W(SA)
SciTegic.value.DoubleValue
1.905

@<SCITEGIC>MOL_PROPERTY
Valence
SciTegic.value.DoubleValue
2.662

@<SCITEGIC>MOL_PROPERTY
Coulomb
SciTegic.value.DoubleValue
19.485

@<SCITEGIC>MOL_PROPERTY
VdW
SciTegic.value.DoubleValue
0.653

@<SCITEGIC>MOL_PROPERTY
VdW6
SciTegic.value.DoubleValue
-5.460

@<SCITEGIC>MOL_PROPERTY
VdW12
SciTegic.value.DoubleValue
6.113

@<SCITEGIC>MOL_PROPERTY
Bond
SciTegic.value.DoubleValue
0.174

@<SCITEGIC>MOL_PROPERTY
Angle
SciTegic.value.DoubleValue
1.378

@<SCITEGIC>MOL_PROPERTY
Pdih
SciTegic.value.DoubleValue
1.109

@<SCITEGIC>MOL_PROPERTY
Idih
SciTegic.value.DoubleValue
0.000

@<SCITEGIC>MOL_PROPERTY
Tether
SciTegic.value.DoubleValue
0.000

@<TRIPOS>MOLECULE
guest-s10_confgen4.mol2 : confsearch ligand conformer 739
          20          19           1
SMALL
USER_CHARGES
 
@<TRIPOS>ATOM
       1    N1      17.732209   18.499155   22.966292 N.4        1 MOL1        -0.5937
       2    H1      17.724495   19.514454   22.846370 H          1 MOL1         0.3684
       3    H2      17.151809   18.283246   23.781235 H          1 MOL1         0.3684
       4    H3      17.271921   18.089716   22.148885 H          1 MOL1         0.3684
       5    C1      19.132834   17.974690   23.133678 C.3        1 MOL1         0.1270
       6    H4      19.033417   16.892633   23.264948 H          1 MOL1         0.0960
       7    C2      19.778788   18.534763   24.411484 C.3        1 MOL1        -0.2382
       8    H5      19.788466   19.630943   24.409233 H          1 MOL1         0.1009
       9    H6      20.809987   18.176083   24.517856 H          1 MOL1         0.1009
      10    H7      19.220296   18.208569   25.297291 H          1 MOL1         0.1009
      11    C3      20.000925   18.198233   21.869801 C.3        1 MOL1        -0.1392
      12    H8      20.945831   17.649103   21.975178 H          1 MOL1         0.0998
      13    H9      19.482932   17.720810   21.027642 H          1 MOL1         0.0998
      14    C4      20.290515   19.676614   21.488023 C.3        1 MOL1        -0.1302
      15    H10     19.460654   20.329039   21.789768 H          1 MOL1         0.0998
      16    H11     20.343012   19.747067   20.392458 H          1 MOL1         0.0998
      17    C5      21.624170   20.212744   22.059580 C.3        1 MOL1        -0.2317
      18    H12     21.633003   20.216614   23.154972 H          1 MOL1         0.1009
      19    H13     21.797942   21.243443   21.724277 H          1 MOL1         0.1009
      20    H14     22.471410   19.605025   21.716207 H          1 MOL1         0.1009
@<TRIPOS>BOND
    1     1     2    1
    2     1     3    1
    3     1     4    1
    4     1     5    1
    5     5     6    1
    6     5     7    1
    7     7     8    1
    8     7     9    1
    9     7    10    1
   10     5    11    1
   11    11    12    1
   12    11    13    1
   13    11    14    1
   14    14    15    1
   15    14    16    1
   16    14    17    1
   17    17    18    1
   18    17    19    1
   19    17    20    1
@<TRIPOS>SUBSTRUCTURE
       1 MOL1            1 RESIDUE      1      MOL     
@<SCITEGIC>MOL_PROPERTY
VConf Rank
SciTegic.value.IntegerValue
739

@<SCITEGIC>MOL_PROPERTY
Conf_Id
SciTegic.value.IntegerValue
35

@<SCITEGIC>MOL_PROPERTY
Delta U+W
SciTegic.value.DoubleValue
3.004

@<SCITEGIC>MOL_PROPERTY
U+W
SciTegic.value.DoubleValue
-33.272

@<SCITEGIC>MOL_PROPERTY
Grad RMS
SciTegic.value.DoubleValue
0.000000

@<SCITEGIC>MOL_PROPERTY
U
SciTegic.value.DoubleValue
25.367

@<SCITEGIC>MOL_PROPERTY
W
SciTegic.value.DoubleValue
-58.639

@<SCITEGIC>MOL_PROPERTY
W(PB)
SciTegic.value.DoubleValue
-60.512

@<SCITEGIC>MOL_PROPERTY
W(SA)
SciTegic.value.DoubleValue
1.873

@<SCITEGIC>MOL_PROPERTY
Valence
SciTegic.value.DoubleValue
4.943

@<SCITEGIC>MOL_PROPERTY
Coulomb
SciTegic.value.DoubleValue
19.661

@<SCITEGIC>MOL_PROPERTY
VdW
SciTegic.value.DoubleValue
0.764

@<SCITEGIC>MOL_PROPERTY
VdW6
SciTegic.value.DoubleValue
-5.871

@<SCITEGIC>MOL_PROPERTY
VdW12
SciTegic.value.DoubleValue
6.636

@<SCITEGIC>MOL_PROPERTY
Bond
SciTegic.value.DoubleValue
0.230

@<SCITEGIC>MOL_PROPERTY
Angle
SciTegic.value.DoubleValue
1.857

@<SCITEGIC>MOL_PROPERTY
Pdih
SciTegic.value.DoubleValue
2.855

@<SCITEGIC>MOL_PROPERTY
Idih
SciTegic.value.DoubleValue
0.000

@<SCITEGIC>MOL_PROPERTY
Tether
SciTegic.value.DoubleValue
0.000

@<TRIPOS>MOLECULE
guest-s10_confgen4.mol2 : confsearch ligand conformer 740
          20          19           1
SMALL
USER_CHARGES
 
@<TRIPOS>ATOM
       1    N1      20.210138   19.526332   21.053921 N.4        1 MOL1        -0.5937
       2    H1      20.717690   19.184403   20.233508 H          1 MOL1         0.3684
       3    H2      20.108991   20.539430   20.949118 H          1 MOL1         0.3684
       4    H3      19.272475   19.121131   21.029465 H          1 MOL1         0.3684
       5    C1      20.922730   19.173145   22.330609 C.3        1 MOL1         0.1270
       6    H4      21.894797   19.672083   22.266790 H          1 MOL1         0.0960
       7    C2      21.189660   17.660395   22.424661 C.3        1 MOL1        -0.2382
       8    H5      20.258201   17.082463   22.398697 H          1 MOL1         0.1009
       9    H6      21.720770   17.416212   23.352948 H          1 MOL1         0.1009
      10    H7      21.814298   17.327603   21.586780 H          1 MOL1         0.1009
      11    C3      20.216198   19.728200   23.593954 C.3        1 MOL1        -0.1392
      12    H8      20.941284   19.703410   24.418077 H          1 MOL1         0.0998
      13    H9      19.990830   20.791127   23.437070 H          1 MOL1         0.0998
      14    C4      18.930171   18.996711   24.071084 C.3        1 MOL1        -0.1302
      15    H10     18.585607   19.483803   24.994036 H          1 MOL1         0.0998
      16    H11     19.163629   17.961376   24.354298 H          1 MOL1         0.0998
      17    C5      17.766521   19.007540   23.053869 C.3        1 MOL1        -0.2317
      18    H12     17.567251   20.022971   22.687357 H          1 MOL1         0.1009
      19    H13     16.846594   18.637884   23.525312 H          1 MOL1         0.1009
      20    H14     17.972775   18.355326   22.197514 H          1 MOL1         0.1009
@<TRIPOS>BOND
    1     1     2    1
    2     1     3    1
    3     1     4    1
    4     1     5    1
    5     5     6    1
    6     5     7    1
    7     7     8    1
    8     7     9    1
    9     7    10    1
   10     5    11    1
   11    11    12    1
   12    11    13    1
   13    11    14    1
   14    14    15    1
   15    14    16    1
   16    14    17    1
   17    17    18    1
   18    17    19    1
   19    17    20    1
@<TRIPOS>SUBSTRUCTURE
       1 MOL1            1 RESIDUE      1      MOL     
@<SCITEGIC>MOL_PROPERTY
VConf Rank
SciTegic.value.IntegerValue
740

@<SCITEGIC>MOL_PROPERTY
Conf_Id
SciTegic.value.IntegerValue
55

@<SCITEGIC>MOL_PROPERTY
Delta U+W
SciTegic.value.DoubleValue
2.767

@<SCITEGIC>MOL_PROPERTY
U+W
SciTegic.value.DoubleValue
-33.509

@<SCITEGIC>MOL_PROPERTY
Grad RMS
SciTegic.value.DoubleValue
0.000000

@<SCITEGIC>MOL_PROPERTY
U
SciTegic.value.DoubleValue
24.552

@<SCITEGIC>MOL_PROPERTY
W
SciTegic.value.DoubleValue
-58.061

@<SCITEGIC>MOL_PROPERTY
W(PB)
SciTegic.value.DoubleValue
-59.930

@<SCITEGIC>MOL_PROPERTY
W(SA)
SciTegic.value.DoubleValue
1.869

@<SCITEGIC>MOL_PROPERTY
Valence
SciTegic.value.DoubleValue
3.726

@<SCITEGIC>MOL_PROPERTY
Coulomb
SciTegic.value.DoubleValue
20.219

@<SCITEGIC>MOL_PROPERTY
VdW
SciTegic.value.DoubleValue
0.606

@<SCITEGIC>MOL_PROPERTY
VdW6
SciTegic.value.DoubleValue
-6.395

@<SCITEGIC>MOL_PROPERTY
VdW12
SciTegic.value.DoubleValue
7.001

@<SCITEGIC>MOL_PROPERTY
Bond
SciTegic.value.DoubleValue
0.241

@<SCITEGIC>MOL_PROPERTY
Angle
SciTegic.value.DoubleValue
2.098

@<SCITEGIC>MOL_PROPERTY
Pdih
SciTegic.value.DoubleValue
1.387

@<SCITEGIC>MOL_PROPERTY
Idih
SciTegic.value.DoubleValue
0.000

@<SCITEGIC>MOL_PROPERTY
Tether
SciTegic.value.DoubleValue
0.000

@<TRIPOS>MOLECULE
guest-s10_confgen4.mol2 : confsearch ligand conformer 741
          20          19           1
SMALL
USER_CHARGES
 
@<TRIPOS>ATOM
       1    N1      18.166498   17.973236   22.063388 N.4        1 MOL1        -0.5937
       2    H1      18.048672   17.356252   22.870849 H          1 MOL1         0.3684
       3    H2      17.736335   17.508764   21.259098 H          1 MOL1         0.3684
       4    H3      17.629094   18.824448   22.245646 H          1 MOL1         0.3684
       5    C1      19.618140   18.279873   21.810861 C.3        1 MOL1         0.1270
       6    H4      19.653155   18.942709   20.940625 H          1 MOL1         0.0960
       7    C2      20.389851   16.994949   21.468226 C.3        1 MOL1        -0.2382
       8    H5      19.943163   16.492989   20.601178 H          1 MOL1         0.1009
       9    H6      20.384686   16.291703   22.310373 H          1 MOL1         0.1009
      10    H7      21.433968   17.221631   21.219081 H          1 MOL1         0.1009
      11    C3      20.286515   19.006984   22.998604 C.3        1 MOL1        -0.1392
      12    H8      20.243517   18.371222   23.892961 H          1 MOL1         0.0998
      13    H9      21.350622   19.154076   22.770333 H          1 MOL1         0.0998
      14    C4      19.647111   20.383054   23.303752 C.3        1 MOL1        -0.1302
      15    H10     18.594287   20.257494   23.590496 H          1 MOL1         0.0998
      16    H11     19.658303   21.005629   22.397929 H          1 MOL1         0.0998
      17    C5      20.391965   21.118557   24.438447 C.3        1 MOL1        -0.2317
      18    H12     20.372068   20.534200   25.367633 H          1 MOL1         0.1009
      19    H13     19.924834   22.090812   24.642392 H          1 MOL1         0.1009
      20    H14     21.441222   21.299344   24.170853 H          1 MOL1         0.1009
@<TRIPOS>BOND
    1     1     2    1
    2     1     3    1
    3     1     4    1
    4     1     5    1
    5     5     6    1
    6     5     7    1
    7     7     8    1
    8     7     9    1
    9     7    10    1
   10     5    11    1
   11    11    12    1
   12    11    13    1
   13    11    14    1
   14    14    15    1
   15    14    16    1
   16    14    17    1
   17    17    18    1
   18    17    19    1
   19    17    20    1
@<TRIPOS>SUBSTRUCTURE
       1 MOL1            1 RESIDUE      1      MOL     
@<SCITEGIC>MOL_PROPERTY
VConf Rank
SciTegic.value.IntegerValue
741

@<SCITEGIC>MOL_PROPERTY
Conf_Id
SciTegic.value.IntegerValue
74

@<SCITEGIC>MOL_PROPERTY
Delta U+W
SciTegic.value.DoubleValue
0.000

@<SCITEGIC>MOL_PROPERTY
U+W
SciTegic.value.DoubleValue
-36.276

@<SCITEGIC>MOL_PROPERTY
Grad RMS
SciTegic.value.DoubleValue
0.000000

@<SCITEGIC>MOL_PROPERTY
U
SciTegic.value.DoubleValue
22.080

@<SCITEGIC>MOL_PROPERTY
W
SciTegic.value.DoubleValue
-58.356

@<SCITEGIC>MOL_PROPERTY
W(PB)
SciTegic.value.DoubleValue
-60.289

@<SCITEGIC>MOL_PROPERTY
W(SA)
SciTegic.value.DoubleValue
1.932

@<SCITEGIC>MOL_PROPERTY
Valence
SciTegic.value.DoubleValue
1.885

@<SCITEGIC>MOL_PROPERTY
Coulomb
SciTegic.value.DoubleValue
19.559

@<SCITEGIC>MOL_PROPERTY
VdW
SciTegic.value.DoubleValue
0.637

@<SCITEGIC>MOL_PROPERTY
VdW6
SciTegic.value.DoubleValue
-4.482

@<SCITEGIC>MOL_PROPERTY
VdW12
SciTegic.value.DoubleValue
5.119

@<SCITEGIC>MOL_PROPERTY
Bond
SciTegic.value.DoubleValue
0.136

@<SCITEGIC>MOL_PROPERTY
Angle
SciTegic.value.DoubleValue
0.867

@<SCITEGIC>MOL_PROPERTY
Pdih
SciTegic.value.DoubleValue
0.882

@<SCITEGIC>MOL_PROPERTY
Idih
SciTegic.value.DoubleValue
0.000

@<SCITEGIC>MOL_PROPERTY
Tether
SciTegic.value.DoubleValue
0.000

@<TRIPOS>MOLECULE
guest-s10_confgen4.mol2 : confsearch ligand conformer 742
          20          19           1
SMALL
USER_CHARGES
 
@<TRIPOS>ATOM
       1    N1      18.683303   17.372950   24.192709 N.4        1 MOL1        -0.5937
       2    H1      19.365144   17.309323   24.953565 H          1 MOL1         0.3684
       3    H2      18.790031   16.535417   23.614891 H          1 MOL1         0.3684
       4    H3      17.752670   17.333138   24.616993 H          1 MOL1         0.3684
       5    C1      18.867238   18.628618   23.385285 C.3        1 MOL1         0.1270
       6    H4      18.733456   19.463855   24.079796 H          1 MOL1         0.0960
       7    C2      17.784811   18.725301   22.294504 C.3        1 MOL1        -0.2382
       8    H5      16.785003   18.611983   22.731270 H          1 MOL1         0.1009
       9    H6      17.914659   17.943718   21.535658 H          1 MOL1         0.1009
      10    H7      17.809485   19.699358   21.792679 H          1 MOL1         0.1009
      11    C3      20.295524   18.711978   22.798312 C.3        1 MOL1        -0.1392
      12    H8      21.014830   18.528504   23.607384 H          1 MOL1         0.0998
      13    H9      20.441422   17.907826   22.064894 H          1 MOL1         0.0998
      14    C4      20.625675   20.077610   22.147764 C.3        1 MOL1        -0.1302
      15    H10     20.419475   20.887696   22.861425 H          1 MOL1         0.0998
      16    H11     19.981527   20.249905   21.275245 H          1 MOL1         0.0998
      17    C5      22.101354   20.153543   21.700230 C.3        1 MOL1        -0.2317
      18    H12     22.780773   20.028965   22.553523 H          1 MOL1         0.1009
      19    H13     22.316879   21.125824   21.238380 H          1 MOL1         0.1009
      20    H14     22.331201   19.372726   20.963511 H          1 MOL1         0.1009
@<TRIPOS>BOND
    1     1     2    1
    2     1     3    1
    3     1     4    1
    4     1     5    1
    5     5     6    1
    6     5     7    1
    7     7     8    1
    8     7     9    1
    9     7    10    1
   10     5    11    1
   11    11    12    1
   12    11    13    1
   13    11    14    1
   14    14    15    1
   15    14    16    1
   16    14    17    1
   17    17    18    1
   18    17    19    1
   19    17    20    1
@<TRIPOS>SUBSTRUCTURE
       1 MOL1            1 RESIDUE      1      MOL     
@<SCITEGIC>MOL_PROPERTY
VConf Rank
SciTegic.value.IntegerValue
742

@<SCITEGIC>MOL_PROPERTY
Conf_Id
SciTegic.value.IntegerValue
80

@<SCITEGIC>MOL_PROPERTY
Delta U+W
SciTegic.value.DoubleValue
0.460

@<SCITEGIC>MOL_PROPERTY
U+W
SciTegic.value.DoubleValue
-35.817

@<SCITEGIC>MOL_PROPERTY
Grad RMS
SciTegic.value.DoubleValue
0.000000

@<SCITEGIC>MOL_PROPERTY
U
SciTegic.value.DoubleValue
22.495

@<SCITEGIC>MOL_PROPERTY
W
SciTegic.value.DoubleValue
-58.311

@<SCITEGIC>MOL_PROPERTY
W(PB)
SciTegic.value.DoubleValue
-60.259

@<SCITEGIC>MOL_PROPERTY
W(SA)
SciTegic.value.DoubleValue
1.948

@<SCITEGIC>MOL_PROPERTY
Valence
SciTegic.value.DoubleValue
2.419

@<SCITEGIC>MOL_PROPERTY
Coulomb
SciTegic.value.DoubleValue
19.304

@<SCITEGIC>MOL_PROPERTY
VdW
SciTegic.value.DoubleValue
0.772

@<SCITEGIC>MOL_PROPERTY
VdW6
SciTegic.value.DoubleValue
-4.635

@<SCITEGIC>MOL_PROPERTY
VdW12
SciTegic.value.DoubleValue
5.407

@<SCITEGIC>MOL_PROPERTY
Bond
SciTegic.value.DoubleValue
0.149

@<SCITEGIC>MOL_PROPERTY
Angle
SciTegic.value.DoubleValue
1.142

@<SCITEGIC>MOL_PROPERTY
Pdih
SciTegic.value.DoubleValue
1.129

@<SCITEGIC>MOL_PROPERTY
Idih
SciTegic.value.DoubleValue
0.000

@<SCITEGIC>MOL_PROPERTY
Tether
SciTegic.value.DoubleValue
0.000

@<TRIPOS>MOLECULE
guest-s10_confgen4.mol2 : confsearch ligand conformer 743
          20          19           1
SMALL
USER_CHARGES
 
@<TRIPOS>ATOM
       1    N1      18.571640   20.712029   23.743535 N.4        1 MOL1        -0.5937
       2    H1      18.882722   20.864442   24.706763 H          1 MOL1         0.3684
       3    H2      17.673801   20.223311   23.785122 H          1 MOL1         0.3684
       4    H3      18.397701   21.633251   23.332790 H          1 MOL1         0.3684
       5    C1      19.585857   19.936853   22.947787 C.3        1 MOL1         0.1270
       6    H4      20.502224   20.535210   22.954047 H          1 MOL1         0.0960
       7    C2      19.119846   19.791626   21.489020 C.3        1 MOL1        -0.2382
       8    H5      18.826377   20.765005   21.077253 H          1 MOL1         0.1009
       9    H6      18.259701   19.115204   21.411186 H          1 MOL1         0.1009
      10    H7      19.926571   19.405269   20.855829 H          1 MOL1         0.1009
      11    C3      19.896305   18.576273   23.618442 C.3        1 MOL1        -0.1392
      12    H8      20.182439   18.779705   24.658843 H          1 MOL1         0.0998
      13    H9      18.986410   17.964085   23.673638 H          1 MOL1         0.0998
      14    C4      21.047284   17.769120   22.961635 C.3        1 MOL1        -0.1302
      15    H10     21.616874   17.263251   23.753961 H          1 MOL1         0.0998
      16    H11     21.756799   18.447909   22.467873 H          1 MOL1         0.0998
      17    C5      20.553374   16.690541   21.968784 C.3        1 MOL1        -0.2317
      18    H12     19.903084   15.963130   22.471888 H          1 MOL1         0.1009
      19    H13     21.403514   16.139310   21.546420 H          1 MOL1         0.1009
      20    H14     19.991312   17.123535   21.133832 H          1 MOL1         0.1009
@<TRIPOS>BOND
    1     1     2    1
    2     1     3    1
    3     1     4    1
    4     1     5    1
    5     5     6    1
    6     5     7    1
    7     7     8    1
    8     7     9    1
    9     7    10    1
   10     5    11    1
   11    11    12    1
   12    11    13    1
   13    11    14    1
   14    14    15    1
   15    14    16    1
   16    14    17    1
   17    17    18    1
   18    17    19    1
   19    17    20    1
@<TRIPOS>SUBSTRUCTURE
       1 MOL1            1 RESIDUE      1      MOL     
@<SCITEGIC>MOL_PROPERTY
VConf Rank
SciTegic.value.IntegerValue
743

@<SCITEGIC>MOL_PROPERTY
Conf_Id
SciTegic.value.IntegerValue
52

@<SCITEGIC>MOL_PROPERTY
Delta U+W
SciTegic.value.DoubleValue
2.995

@<SCITEGIC>MOL_PROPERTY
U+W
SciTegic.value.DoubleValue
-33.282

@<SCITEGIC>MOL_PROPERTY
Grad RMS
SciTegic.value.DoubleValue
0.000000

@<SCITEGIC>MOL_PROPERTY
U
SciTegic.value.DoubleValue
25.224

@<SCITEGIC>MOL_PROPERTY
W
SciTegic.value.DoubleValue
-58.506

@<SCITEGIC>MOL_PROPERTY
W(PB)
SciTegic.value.DoubleValue
-60.411

@<SCITEGIC>MOL_PROPERTY
W(SA)
SciTegic.value.DoubleValue
1.905

@<SCITEGIC>MOL_PROPERTY
Valence
SciTegic.value.DoubleValue
4.945

@<SCITEGIC>MOL_PROPERTY
Coulomb
SciTegic.value.DoubleValue
19.467

@<SCITEGIC>MOL_PROPERTY
VdW
SciTegic.value.DoubleValue
0.813

@<SCITEGIC>MOL_PROPERTY
VdW6
SciTegic.value.DoubleValue
-5.458

@<SCITEGIC>MOL_PROPERTY
VdW12
SciTegic.value.DoubleValue
6.270

@<SCITEGIC>MOL_PROPERTY
Bond
SciTegic.value.DoubleValue
0.200

@<SCITEGIC>MOL_PROPERTY
Angle
SciTegic.value.DoubleValue
1.675

@<SCITEGIC>MOL_PROPERTY
Pdih
SciTegic.value.DoubleValue
3.070

@<SCITEGIC>MOL_PROPERTY
Idih
SciTegic.value.DoubleValue
0.000

@<SCITEGIC>MOL_PROPERTY
Tether
SciTegic.value.DoubleValue
0.000

@<TRIPOS>MOLECULE
guest-s10_confgen4.mol2 : confsearch ligand conformer 744
          20          19           1
SMALL
USER_CHARGES
 
@<TRIPOS>ATOM
       1    N1      18.363276   18.289351   23.168029 N.4        1 MOL1        -0.5937
       2    H1      17.962514   18.896505   23.887147 H          1 MOL1         0.3684
       3    H2      17.940663   17.363714   23.278679 H          1 MOL1         0.3684
       4    H3      18.070378   18.656222   22.259953 H          1 MOL1         0.3684
       5    C1      19.862670   18.228624   23.274697 C.3        1 MOL1         0.1270
       6    H4      20.211986   17.527732   22.510195 H          1 MOL1         0.0960
       7    C2      20.265519   17.676969   24.652794 C.3        1 MOL1        -0.2382
       8    H5      19.951605   18.352653   25.458255 H          1 MOL1         0.1009
       9    H6      21.352887   17.547328   24.719641 H          1 MOL1         0.1009
      10    H7      19.804662   16.697272   24.829260 H          1 MOL1         0.1009
      11    C3      20.537807   19.598043   23.023464 C.3        1 MOL1        -0.1392
      12    H8      20.026593   20.379204   23.601409 H          1 MOL1         0.0998
      13    H9      21.563558   19.559375   23.413878 H          1 MOL1         0.0998
      14    C4      20.632150   20.012605   21.531537 C.3        1 MOL1        -0.1302
      15    H10     21.186294   19.247968   20.969141 H          1 MOL1         0.0998
      16    H11     21.234618   20.929729   21.468750 H          1 MOL1         0.0998
      17    C5      19.273266   20.275346   20.843345 C.3        1 MOL1        -0.2317
      18    H12     19.429135   20.753093   19.867256 H          1 MOL1         0.1009
      19    H13     18.644032   20.945169   21.443945 H          1 MOL1         0.1009
      20    H14     18.726779   19.343367   20.658399 H          1 MOL1         0.1009
@<TRIPOS>BOND
    1     1     2    1
    2     1     3    1
    3     1     4    1
    4     1     5    1
    5     5     6    1
    6     5     7    1
    7     7     8    1
    8     7     9    1
    9     7    10    1
   10     5    11    1
   11    11    12    1
   12    11    13    1
   13    11    14    1
   14    14    15    1
   15    14    16    1
   16    14    17    1
   17    17    18    1
   18    17    19    1
   19    17    20    1
@<TRIPOS>SUBSTRUCTURE
       1 MOL1            1 RESIDUE      1      MOL     
@<SCITEGIC>MOL_PROPERTY
VConf Rank
SciTegic.value.IntegerValue
744

@<SCITEGIC>MOL_PROPERTY
Conf_Id
SciTegic.value.IntegerValue
54

@<SCITEGIC>MOL_PROPERTY
Delta U+W
SciTegic.value.DoubleValue
2.752

@<SCITEGIC>MOL_PROPERTY
U+W
SciTegic.value.DoubleValue
-33.525

@<SCITEGIC>MOL_PROPERTY
Grad RMS
SciTegic.value.DoubleValue
0.000000

@<SCITEGIC>MOL_PROPERTY
U
SciTegic.value.DoubleValue
24.337

@<SCITEGIC>MOL_PROPERTY
W
SciTegic.value.DoubleValue
-57.862

@<SCITEGIC>MOL_PROPERTY
W(PB)
SciTegic.value.DoubleValue
-59.764

@<SCITEGIC>MOL_PROPERTY
W(SA)
SciTegic.value.DoubleValue
1.901

@<SCITEGIC>MOL_PROPERTY
Valence
SciTegic.value.DoubleValue
3.593

@<SCITEGIC>MOL_PROPERTY
Coulomb
SciTegic.value.DoubleValue
20.067

@<SCITEGIC>MOL_PROPERTY
VdW
SciTegic.value.DoubleValue
0.677

@<SCITEGIC>MOL_PROPERTY
VdW6
SciTegic.value.DoubleValue
-5.466

@<SCITEGIC>MOL_PROPERTY
VdW12
SciTegic.value.DoubleValue
6.144

@<SCITEGIC>MOL_PROPERTY
Bond
SciTegic.value.DoubleValue
0.191

@<SCITEGIC>MOL_PROPERTY
Angle
SciTegic.value.DoubleValue
1.557

@<SCITEGIC>MOL_PROPERTY
Pdih
SciTegic.value.DoubleValue
1.845

@<SCITEGIC>MOL_PROPERTY
Idih
SciTegic.value.DoubleValue
0.000

@<SCITEGIC>MOL_PROPERTY
Tether
SciTegic.value.DoubleValue
0.000

@<TRIPOS>MOLECULE
guest-s10_confgen4.mol2 : confsearch ligand conformer 745
          20          19           1
SMALL
USER_CHARGES
 
@<TRIPOS>ATOM
       1    N1      19.208515   19.837957   24.482342 N.4        1 MOL1        -0.5937
       2    H1      19.098027   19.679829   25.487549 H          1 MOL1         0.3684
       3    H2      18.521289   20.545535   24.208908 H          1 MOL1         0.3684
       4    H3      20.137553   20.239380   24.336753 H          1 MOL1         0.3684
       5    C1      19.031296   18.563932   23.701740 C.3        1 MOL1         0.1270
       6    H4      18.023726   18.204644   23.933555 H          1 MOL1         0.0960
       7    C2      20.026415   17.486518   24.168387 C.3        1 MOL1        -0.2382
       8    H5      19.895215   16.560027   23.595785 H          1 MOL1         0.1009
       9    H6      19.865045   17.248130   25.226790 H          1 MOL1         0.1009
      10    H7      21.065651   17.816850   24.054755 H          1 MOL1         0.1009
      11    C3      19.095382   18.791899   22.172369 C.3        1 MOL1        -0.1392
      12    H8      18.869759   17.844767   21.664658 H          1 MOL1         0.0998
      13    H9      18.290570   19.483495   21.890623 H          1 MOL1         0.0998
      14    C4      20.446555   19.343824   21.648868 C.3        1 MOL1        -0.1302
      15    H10     21.258294   18.639880   21.875928 H          1 MOL1         0.0998
      16    H11     20.692105   20.287558   22.154074 H          1 MOL1         0.0998
      17    C5      20.407355   19.584999   20.124524 C.3        1 MOL1        -0.2317
      18    H12     21.370465   19.973210   19.768465 H          1 MOL1         0.1009
      19    H13     19.631813   20.315428   19.859516 H          1 MOL1         0.1009
      20    H14     20.199048   18.653439   19.582281 H          1 MOL1         0.1009
@<TRIPOS>BOND
    1     1     2    1
    2     1     3    1
    3     1     4    1
    4     1     5    1
    5     5     6    1
    6     5     7    1
    7     7     8    1
    8     7     9    1
    9     7    10    1
   10     5    11    1
   11    11    12    1
   12    11    13    1
   13    11    14    1
   14    14    15    1
   15    14    16    1
   16    14    17    1
   17    17    18    1
   18    17    19    1
   19    17    20    1
@<TRIPOS>SUBSTRUCTURE
       1 MOL1            1 RESIDUE      1      MOL     
@<SCITEGIC>MOL_PROPERTY
VConf Rank
SciTegic.value.IntegerValue
745

@<SCITEGIC>MOL_PROPERTY
Conf_Id
SciTegic.value.IntegerValue
63

@<SCITEGIC>MOL_PROPERTY
Delta U+W
SciTegic.value.DoubleValue
0.420

@<SCITEGIC>MOL_PROPERTY
U+W
SciTegic.value.DoubleValue
-35.856

@<SCITEGIC>MOL_PROPERTY
Grad RMS
SciTegic.value.DoubleValue
0.000000

@<SCITEGIC>MOL_PROPERTY
U
SciTegic.value.DoubleValue
22.625

@<SCITEGIC>MOL_PROPERTY
W
SciTegic.value.DoubleValue
-58.481

@<SCITEGIC>MOL_PROPERTY
W(PB)
SciTegic.value.DoubleValue
-60.400

@<SCITEGIC>MOL_PROPERTY
W(SA)
SciTegic.value.DoubleValue
1.919

@<SCITEGIC>MOL_PROPERTY
Valence
SciTegic.value.DoubleValue
2.404

@<SCITEGIC>MOL_PROPERTY
Coulomb
SciTegic.value.DoubleValue
19.464

@<SCITEGIC>MOL_PROPERTY
VdW
SciTegic.value.DoubleValue
0.757

@<SCITEGIC>MOL_PROPERTY
VdW6
SciTegic.value.DoubleValue
-5.074

@<SCITEGIC>MOL_PROPERTY
VdW12
SciTegic.value.DoubleValue
5.830

@<SCITEGIC>MOL_PROPERTY
Bond
SciTegic.value.DoubleValue
0.172

@<SCITEGIC>MOL_PROPERTY
Angle
SciTegic.value.DoubleValue
1.207

@<SCITEGIC>MOL_PROPERTY
Pdih
SciTegic.value.DoubleValue
1.025

@<SCITEGIC>MOL_PROPERTY
Idih
SciTegic.value.DoubleValue
0.000

@<SCITEGIC>MOL_PROPERTY
Tether
SciTegic.value.DoubleValue
0.000

@<TRIPOS>MOLECULE
guest-s10_confgen4.mol2 : confsearch ligand conformer 746
          20          19           1
SMALL
USER_CHARGES
 
@<TRIPOS>ATOM
       1    N1      19.121505   20.574898   22.235171 N.4        1 MOL1        -0.5937
       2    H1      20.034975   20.902156   22.559746 H          1 MOL1         0.3684
       3    H2      18.416984   20.935557   22.883243 H          1 MOL1         0.3684
       4    H3      18.948249   21.006758   21.323568 H          1 MOL1         0.3684
       5    C1      19.076605   19.073147   22.152067 C.3        1 MOL1         0.1270
       6    H4      19.853157   18.773913   21.441746 H          1 MOL1         0.0960
       7    C2      17.720089   18.599829   21.604940 C.3        1 MOL1        -0.2382
       8    H5      17.520856   19.045039   20.622428 H          1 MOL1         0.1009
       9    H6      16.900381   18.878458   22.278882 H          1 MOL1         0.1009
      10    H7      17.707491   17.509447   21.484398 H          1 MOL1         0.1009
      11    C3      19.374906   18.396867   23.509507 C.3        1 MOL1        -0.1392
      12    H8      18.595890   18.672367   24.232740 H          1 MOL1         0.0998
      13    H9      19.308778   17.307466   23.388015 H          1 MOL1         0.0998
      14    C4      20.763409   18.747244   24.102125 C.3        1 MOL1        -0.1302
      15    H10     20.878689   18.225348   25.062457 H          1 MOL1         0.0998
      16    H11     20.818327   19.819660   24.333367 H          1 MOL1         0.0998
      17    C5      21.935191   18.353036   23.174280 C.3        1 MOL1        -0.2317
      18    H12     21.901455   17.283535   22.928901 H          1 MOL1         0.1009
      19    H13     22.897227   18.553626   23.663481 H          1 MOL1         0.1009
      20    H14     21.917194   18.920781   22.235538 H          1 MOL1         0.1009
@<TRIPOS>BOND
    1     1     2    1
    2     1     3    1
    3     1     4    1
    4     1     5    1
    5     5     6    1
    6     5     7    1
    7     7     8    1
    8     7     9    1
    9     7    10    1
   10     5    11    1
   11    11    12    1
   12    11    13    1
   13    11    14    1
   14    14    15    1
   15    14    16    1
   16    14    17    1
   17    17    18    1
   18    17    19    1
   19    17    20    1
@<TRIPOS>SUBSTRUCTURE
       1 MOL1            1 RESIDUE      1      MOL     
@<SCITEGIC>MOL_PROPERTY
VConf Rank
SciTegic.value.IntegerValue
746

@<SCITEGIC>MOL_PROPERTY
Conf_Id
SciTegic.value.IntegerValue
50

@<SCITEGIC>MOL_PROPERTY
Delta U+W
SciTegic.value.DoubleValue
0.466

@<SCITEGIC>MOL_PROPERTY
U+W
SciTegic.value.DoubleValue
-35.811

@<SCITEGIC>MOL_PROPERTY
Grad RMS
SciTegic.value.DoubleValue
0.000000

@<SCITEGIC>MOL_PROPERTY
U
SciTegic.value.DoubleValue
22.369

@<SCITEGIC>MOL_PROPERTY
W
SciTegic.value.DoubleValue
-58.180

@<SCITEGIC>MOL_PROPERTY
W(PB)
SciTegic.value.DoubleValue
-60.103

@<SCITEGIC>MOL_PROPERTY
W(SA)
SciTegic.value.DoubleValue
1.923

@<SCITEGIC>MOL_PROPERTY
Valence
SciTegic.value.DoubleValue
2.168

@<SCITEGIC>MOL_PROPERTY
Coulomb
SciTegic.value.DoubleValue
19.636

@<SCITEGIC>MOL_PROPERTY
VdW
SciTegic.value.DoubleValue
0.566

@<SCITEGIC>MOL_PROPERTY
VdW6
SciTegic.value.DoubleValue
-5.263

@<SCITEGIC>MOL_PROPERTY
VdW12
SciTegic.value.DoubleValue
5.829

@<SCITEGIC>MOL_PROPERTY
Bond
SciTegic.value.DoubleValue
0.162

@<SCITEGIC>MOL_PROPERTY
Angle
SciTegic.value.DoubleValue
1.066

@<SCITEGIC>MOL_PROPERTY
Pdih
SciTegic.value.DoubleValue
0.939

@<SCITEGIC>MOL_PROPERTY
Idih
SciTegic.value.DoubleValue
0.000

@<SCITEGIC>MOL_PROPERTY
Tether
SciTegic.value.DoubleValue
0.000

@<TRIPOS>MOLECULE
guest-s10_confgen4.mol2 : confsearch ligand conformer 747
          20          19           1
SMALL
USER_CHARGES
 
@<TRIPOS>ATOM
       1    N1      21.583434   19.291760   24.029353 N.4        1 MOL1        -0.5937
       2    H1      21.329485   18.989806   24.973985 H          1 MOL1         0.3684
       3    H2      21.712001   20.306485   24.055355 H          1 MOL1         0.3684
       4    H3      22.493179   18.875300   23.813342 H          1 MOL1         0.3684
       5    C1      20.541265   18.892218   23.019981 C.3        1 MOL1         0.1270
       6    H4      20.473403   17.800948   23.067791 H          1 MOL1         0.0960
       7    C2      20.995571   19.297167   21.605206 C.3        1 MOL1        -0.2382
       8    H5      21.122426   20.384104   21.526828 H          1 MOL1         0.1009
       9    H6      20.270139   18.987764   20.845070 H          1 MOL1         0.1009
      10    H7      21.954516   18.825667   21.357741 H          1 MOL1         0.1009
      11    C3      19.149155   19.477030   23.363863 C.3        1 MOL1        -0.1392
      12    H8      19.143816   19.798699   24.413707 H          1 MOL1         0.0998
      13    H9      18.958462   20.384736   22.775884 H          1 MOL1         0.0998
      14    C4      17.984076   18.471035   23.184007 C.3        1 MOL1        -0.1302
      15    H10     17.053755   18.947298   23.524016 H          1 MOL1         0.0998
      16    H11     18.141568   17.605063   23.842316 H          1 MOL1         0.0998
      17    C5      17.789682   17.981891   21.731704 C.3        1 MOL1        -0.2317
      18    H12     17.672067   18.827081   21.041162 H          1 MOL1         0.1009
      19    H13     16.889096   17.358993   21.654348 H          1 MOL1         0.1009
      20    H14     18.638584   17.373000   21.396670 H          1 MOL1         0.1009
@<TRIPOS>BOND
    1     1     2    1
    2     1     3    1
    3     1     4    1
    4     1     5    1
    5     5     6    1
    6     5     7    1
    7     7     8    1
    8     7     9    1
    9     7    10    1
   10     5    11    1
   11    11    12    1
   12    11    13    1
   13    11    14    1
   14    14    15    1
   15    14    16    1
   16    14    17    1
   17    17    18    1
   18    17    19    1
   19    17    20    1
@<TRIPOS>SUBSTRUCTURE
       1 MOL1            1 RESIDUE      1      MOL     
@<SCITEGIC>MOL_PROPERTY
VConf Rank
SciTegic.value.IntegerValue
747

@<SCITEGIC>MOL_PROPERTY
Conf_Id
SciTegic.value.IntegerValue
3

@<SCITEGIC>MOL_PROPERTY
Delta U+W
SciTegic.value.DoubleValue
3.093

@<SCITEGIC>MOL_PROPERTY
U+W
SciTegic.value.DoubleValue
-33.184

@<SCITEGIC>MOL_PROPERTY
Grad RMS
SciTegic.value.DoubleValue
0.000000

@<SCITEGIC>MOL_PROPERTY
U
SciTegic.value.DoubleValue
25.256

@<SCITEGIC>MOL_PROPERTY
W
SciTegic.value.DoubleValue
-58.439

@<SCITEGIC>MOL_PROPERTY
W(PB)
SciTegic.value.DoubleValue
-60.337

@<SCITEGIC>MOL_PROPERTY
W(SA)
SciTegic.value.DoubleValue
1.898

@<SCITEGIC>MOL_PROPERTY
Valence
SciTegic.value.DoubleValue
4.963

@<SCITEGIC>MOL_PROPERTY
Coulomb
SciTegic.value.DoubleValue
19.511

@<SCITEGIC>MOL_PROPERTY
VdW
SciTegic.value.DoubleValue
0.782

@<SCITEGIC>MOL_PROPERTY
VdW6
SciTegic.value.DoubleValue
-5.429

@<SCITEGIC>MOL_PROPERTY
VdW12
SciTegic.value.DoubleValue
6.211

@<SCITEGIC>MOL_PROPERTY
Bond
SciTegic.value.DoubleValue
0.174

@<SCITEGIC>MOL_PROPERTY
Angle
SciTegic.value.DoubleValue
1.377

@<SCITEGIC>MOL_PROPERTY
Pdih
SciTegic.value.DoubleValue
3.412

@<SCITEGIC>MOL_PROPERTY
Idih
SciTegic.value.DoubleValue
0.000

@<SCITEGIC>MOL_PROPERTY
Tether
SciTegic.value.DoubleValue
0.000

@<TRIPOS>MOLECULE
guest-s10_confgen4.mol2 : confsearch ligand conformer 748
          20          19           1
SMALL
USER_CHARGES
 
@<TRIPOS>ATOM
       1    N1      20.264554   17.292248   24.228586 N.4        1 MOL1        -0.5937
       2    H1      20.359110   16.310169   23.956161 H          1 MOL1         0.3684
       3    H2      19.532932   17.338724   24.943008 H          1 MOL1         0.3684
       4    H3      21.143609   17.570647   24.671804 H          1 MOL1         0.3684
       5    C1      19.941901   18.163489   23.045702 C.3        1 MOL1         0.1270
       6    H4      18.996870   17.790898   22.639268 H          1 MOL1         0.0960
       7    C2      21.026973   18.019899   21.963065 C.3        1 MOL1        -0.2382
       8    H5      20.739201   18.537239   21.040524 H          1 MOL1         0.1009
       9    H6      21.181715   16.964322   21.708223 H          1 MOL1         0.1009
      10    H7      21.984967   18.431713   22.303867 H          1 MOL1         0.1009
      11    C3      19.739622   19.636650   23.473849 C.3        1 MOL1        -0.1392
      12    H8      19.016705   19.666379   24.299702 H          1 MOL1         0.0998
      13    H9      20.681276   20.029756   23.879424 H          1 MOL1         0.0998
      14    C4      19.237694   20.581925   22.352410 C.3        1 MOL1        -0.1302
      15    H10     19.999351   20.680837   21.567319 H          1 MOL1         0.0998
      16    H11     19.108108   21.588984   22.772980 H          1 MOL1         0.0998
      17    C5      17.899888   20.124292   21.727913 C.3        1 MOL1        -0.2317
      18    H12     17.122478   20.015574   22.495358 H          1 MOL1         0.1009
      19    H13     18.005401   19.164119   21.207337 H          1 MOL1         0.1009
      20    H14     17.545954   20.860600   20.994701 H          1 MOL1         0.1009
@<TRIPOS>BOND
    1     1     2    1
    2     1     3    1
    3     1     4    1
    4     1     5    1
    5     5     6    1
    6     5     7    1
    7     7     8    1
    8     7     9    1
    9     7    10    1
   10     5    11    1
   11    11    12    1
   12    11    13    1
   13    11    14    1
   14    14    15    1
   15    14    16    1
   16    14    17    1
   17    17    18    1
   18    17    19    1
   19    17    20    1
@<TRIPOS>SUBSTRUCTURE
       1 MOL1            1 RESIDUE      1      MOL     
@<SCITEGIC>MOL_PROPERTY
VConf Rank
SciTegic.value.IntegerValue
748

@<SCITEGIC>MOL_PROPERTY
Conf_Id
SciTegic.value.IntegerValue
64

@<SCITEGIC>MOL_PROPERTY
Delta U+W
SciTegic.value.DoubleValue
0.544

@<SCITEGIC>MOL_PROPERTY
U+W
SciTegic.value.DoubleValue
-35.732

@<SCITEGIC>MOL_PROPERTY
Grad RMS
SciTegic.value.DoubleValue
0.000000

@<SCITEGIC>MOL_PROPERTY
U
SciTegic.value.DoubleValue
22.800

@<SCITEGIC>MOL_PROPERTY
W
SciTegic.value.DoubleValue
-58.532

@<SCITEGIC>MOL_PROPERTY
W(PB)
SciTegic.value.DoubleValue
-60.437

@<SCITEGIC>MOL_PROPERTY
W(SA)
SciTegic.value.DoubleValue
1.905

@<SCITEGIC>MOL_PROPERTY
Valence
SciTegic.value.DoubleValue
2.662

@<SCITEGIC>MOL_PROPERTY
Coulomb
SciTegic.value.DoubleValue
19.485

@<SCITEGIC>MOL_PROPERTY
VdW
SciTegic.value.DoubleValue
0.653

@<SCITEGIC>MOL_PROPERTY
VdW6
SciTegic.value.DoubleValue
-5.460

@<SCITEGIC>MOL_PROPERTY
VdW12
SciTegic.value.DoubleValue
6.113

@<SCITEGIC>MOL_PROPERTY
Bond
SciTegic.value.DoubleValue
0.174

@<SCITEGIC>MOL_PROPERTY
Angle
SciTegic.value.DoubleValue
1.378

@<SCITEGIC>MOL_PROPERTY
Pdih
SciTegic.value.DoubleValue
1.109

@<SCITEGIC>MOL_PROPERTY
Idih
SciTegic.value.DoubleValue
0.000

@<SCITEGIC>MOL_PROPERTY
Tether
SciTegic.value.DoubleValue
0.000

@<TRIPOS>MOLECULE
guest-s10_confgen4.mol2 : confsearch ligand conformer 749
          20          19           1
SMALL
USER_CHARGES
 
@<TRIPOS>ATOM
       1    N1      20.462942   17.985595   24.467458 N.4        1 MOL1        -0.5937
       2    H1      19.795901   18.668608   24.833276 H          1 MOL1         0.3684
       3    H2      21.315844   18.060694   25.028289 H          1 MOL1         0.3684
       4    H3      20.071570   17.054516   24.633528 H          1 MOL1         0.3684
       5    C1      20.742648   18.216234   23.006841 C.3        1 MOL1         0.1270
       6    H4      21.468059   17.449791   22.716486 H          1 MOL1         0.0960
       7    C2      21.407291   19.584798   22.785470 C.3        1 MOL1        -0.2382
       8    H5      20.789584   20.399746   23.180448 H          1 MOL1         0.1009
       9    H6      21.583984   19.765576   21.718026 H          1 MOL1         0.1009
      10    H7      22.377837   19.625792   23.294715 H          1 MOL1         0.1009
      11    C3      19.485801   18.005218   22.125508 C.3        1 MOL1        -0.1392
      12    H8      19.777848   18.011841   21.067131 H          1 MOL1         0.0998
      13    H9      19.118500   16.988294   22.316391 H          1 MOL1         0.0998
      14    C4      18.311878   18.997581   22.354301 C.3        1 MOL1        -0.1302
      15    H10     18.283582   19.337185   23.397971 H          1 MOL1         0.0998
      16    H11     17.367457   18.460218   22.189102 H          1 MOL1         0.0998
      17    C5      18.335727   20.214024   21.399082 C.3        1 MOL1        -0.2317
      18    H12     19.231672   20.829431   21.535219 H          1 MOL1         0.1009
      19    H13     17.463594   20.856863   21.575462 H          1 MOL1         0.1009
      20    H14     18.302898   19.890939   20.350473 H          1 MOL1         0.1009
@<TRIPOS>BOND
    1     1     2    1
    2     1     3    1
    3     1     4    1
    4     1     5    1
    5     5     6    1
    6     5     7    1
    7     7     8    1
    8     7     9    1
    9     7    10    1
   10     5    11    1
   11    11    12    1
   12    11    13    1
   13    11    14    1
   14    14    15    1
   15    14    16    1
   16    14    17    1
   17    17    18    1
   18    17    19    1
   19    17    20    1
@<TRIPOS>SUBSTRUCTURE
       1 MOL1            1 RESIDUE      1      MOL     
@<SCITEGIC>MOL_PROPERTY
VConf Rank
SciTegic.value.IntegerValue
749

@<SCITEGIC>MOL_PROPERTY
Conf_Id
SciTegic.value.IntegerValue
35

@<SCITEGIC>MOL_PROPERTY
Delta U+W
SciTegic.value.DoubleValue
3.004

@<SCITEGIC>MOL_PROPERTY
U+W
SciTegic.value.DoubleValue
-33.272

@<SCITEGIC>MOL_PROPERTY
Grad RMS
SciTegic.value.DoubleValue
0.000000

@<SCITEGIC>MOL_PROPERTY
U
SciTegic.value.DoubleValue
25.367

@<SCITEGIC>MOL_PROPERTY
W
SciTegic.value.DoubleValue
-58.639

@<SCITEGIC>MOL_PROPERTY
W(PB)
SciTegic.value.DoubleValue
-60.512

@<SCITEGIC>MOL_PROPERTY
W(SA)
SciTegic.value.DoubleValue
1.873

@<SCITEGIC>MOL_PROPERTY
Valence
SciTegic.value.DoubleValue
4.943

@<SCITEGIC>MOL_PROPERTY
Coulomb
SciTegic.value.DoubleValue
19.661

@<SCITEGIC>MOL_PROPERTY
VdW
SciTegic.value.DoubleValue
0.764

@<SCITEGIC>MOL_PROPERTY
VdW6
SciTegic.value.DoubleValue
-5.871

@<SCITEGIC>MOL_PROPERTY
VdW12
SciTegic.value.DoubleValue
6.636

@<SCITEGIC>MOL_PROPERTY
Bond
SciTegic.value.DoubleValue
0.230

@<SCITEGIC>MOL_PROPERTY
Angle
SciTegic.value.DoubleValue
1.857

@<SCITEGIC>MOL_PROPERTY
Pdih
SciTegic.value.DoubleValue
2.855

@<SCITEGIC>MOL_PROPERTY
Idih
SciTegic.value.DoubleValue
0.000

@<SCITEGIC>MOL_PROPERTY
Tether
SciTegic.value.DoubleValue
0.000

@<TRIPOS>MOLECULE
guest-s10_confgen4.mol2 : confsearch ligand conformer 750
          20          19           1
SMALL
USER_CHARGES
 
@<TRIPOS>ATOM
       1    N1      20.599359   17.395292   22.438704 N.4        1 MOL1        -0.5937
       2    H1      20.501860   16.427170   22.756252 H          1 MOL1         0.3684
       3    H2      21.537938   17.492771   22.042285 H          1 MOL1         0.3684
       4    H3      19.930307   17.541711   21.680464 H          1 MOL1         0.3684
       5    C1      20.371739   18.370045   23.561428 C.3        1 MOL1         0.1270
       6    H4      21.147857   18.146698   24.300131 H          1 MOL1         0.0960
       7    C2      19.011163   18.135577   24.241405 C.3        1 MOL1        -0.2382
       8    H5      18.180390   18.249732   23.534950 H          1 MOL1         0.1009
       9    H6      18.861599   18.843163   25.066252 H          1 MOL1         0.1009
      10    H7      18.959688   17.122609   24.658795 H          1 MOL1         0.1009
      11    C3      20.571886   19.846601   23.133602 C.3        1 MOL1        -0.1392
      12    H8      20.698741   20.442852   24.046802 H          1 MOL1         0.0998
      13    H9      21.524203   19.934500   22.594543 H          1 MOL1         0.0998
      14    C4      19.443284   20.503928   22.290528 C.3        1 MOL1        -0.1302
      15    H10     19.719384   21.552846   22.113427 H          1 MOL1         0.0998
      16    H11     18.508624   20.538940   22.866563 H          1 MOL1         0.0998
      17    C5      19.185718   19.832919   20.922197 C.3        1 MOL1        -0.2317
      18    H12     20.119211   19.706529   20.358499 H          1 MOL1         0.1009
      19    H13     18.512705   20.453053   20.315850 H          1 MOL1         0.1009
      20    H14     18.704953   18.854608   21.036393 H          1 MOL1         0.1009
@<TRIPOS>BOND
    1     1     2    1
    2     1     3    1
    3     1     4    1
    4     1     5    1
    5     5     6    1
    6     5     7    1
    7     7     8    1
    8     7     9    1
    9     7    10    1
   10     5    11    1
   11    11    12    1
   12    11    13    1
   13    11    14    1
   14    14    15    1
   15    14    16    1
   16    14    17    1
   17    17    18    1
   18    17    19    1
   19    17    20    1
@<TRIPOS>SUBSTRUCTURE
       1 MOL1            1 RESIDUE      1      MOL     
@<SCITEGIC>MOL_PROPERTY
VConf Rank
SciTegic.value.IntegerValue
750

@<SCITEGIC>MOL_PROPERTY
Conf_Id
SciTegic.value.IntegerValue
55

@<SCITEGIC>MOL_PROPERTY
Delta U+W
SciTegic.value.DoubleValue
2.767

@<SCITEGIC>MOL_PROPERTY
U+W
SciTegic.value.DoubleValue
-33.509

@<SCITEGIC>MOL_PROPERTY
Grad RMS
SciTegic.value.DoubleValue
0.000000

@<SCITEGIC>MOL_PROPERTY
U
SciTegic.value.DoubleValue
24.552

@<SCITEGIC>MOL_PROPERTY
W
SciTegic.value.DoubleValue
-58.061

@<SCITEGIC>MOL_PROPERTY
W(PB)
SciTegic.value.DoubleValue
-59.930

@<SCITEGIC>MOL_PROPERTY
W(SA)
SciTegic.value.DoubleValue
1.869

@<SCITEGIC>MOL_PROPERTY
Valence
SciTegic.value.DoubleValue
3.726

@<SCITEGIC>MOL_PROPERTY
Coulomb
SciTegic.value.DoubleValue
20.219

@<SCITEGIC>MOL_PROPERTY
VdW
SciTegic.value.DoubleValue
0.606

@<SCITEGIC>MOL_PROPERTY
VdW6
SciTegic.value.DoubleValue
-6.395

@<SCITEGIC>MOL_PROPERTY
VdW12
SciTegic.value.DoubleValue
7.001

@<SCITEGIC>MOL_PROPERTY
Bond
SciTegic.value.DoubleValue
0.241

@<SCITEGIC>MOL_PROPERTY
Angle
SciTegic.value.DoubleValue
2.098

@<SCITEGIC>MOL_PROPERTY
Pdih
SciTegic.value.DoubleValue
1.387

@<SCITEGIC>MOL_PROPERTY
Idih
SciTegic.value.DoubleValue
0.000

@<SCITEGIC>MOL_PROPERTY
Tether
SciTegic.value.DoubleValue
0.000

@<TRIPOS>MOLECULE
guest-s10_confgen4.mol2 : confsearch ligand conformer 751
          20          19           1
SMALL
USER_CHARGES
 
@<TRIPOS>ATOM
       1    N1      17.959939   19.514896   22.097467 N.4        1 MOL1        -0.5937
       2    H1      17.491105   19.497711   23.006557 H          1 MOL1         0.3684
       3    H2      17.239922   19.392078   21.380426 H          1 MOL1         0.3684
       4    H3      18.355861   20.449976   21.973159 H          1 MOL1         0.3684
       5    C1      19.018841   18.449607   22.002871 C.3        1 MOL1         0.1270
       6    H4      19.469068   18.540554   21.009437 H          1 MOL1         0.0960
       7    C2      18.390187   17.051373   22.119937 C.3        1 MOL1        -0.2382
       8    H5      17.622870   16.904676   21.349893 H          1 MOL1         0.1009
       9    H6      17.921354   16.907294   23.101379 H          1 MOL1         0.1009
      10    H7      19.148679   16.270120   21.985871 H          1 MOL1         0.1009
      11    C3      20.134543   18.626547   23.056460 C.3        1 MOL1        -0.1392
      12    H8      19.704385   18.563025   24.064848 H          1 MOL1         0.0998
      13    H9      20.842999   17.792344   22.965555 H          1 MOL1         0.0998
      14    C4      20.908895   19.957606   22.900961 C.3        1 MOL1        -0.1302
      15    H10     20.231331   20.810173   23.044004 H          1 MOL1         0.0998
      16    H11     21.308607   20.036394   21.880047 H          1 MOL1         0.0998
      17    C5      22.069374   20.063485   23.913572 C.3        1 MOL1        -0.2317
      18    H12     21.698204   20.018462   24.945784 H          1 MOL1         0.1009
      19    H13     22.606183   21.013065   23.790201 H          1 MOL1         0.1009
      20    H14     22.791660   19.248539   23.774293 H          1 MOL1         0.1009
@<TRIPOS>BOND
    1     1     2    1
    2     1     3    1
    3     1     4    1
    4     1     5    1
    5     5     6    1
    6     5     7    1
    7     7     8    1
    8     7     9    1
    9     7    10    1
   10     5    11    1
   11    11    12    1
   12    11    13    1
   13    11    14    1
   14    14    15    1
   15    14    16    1
   16    14    17    1
   17    17    18    1
   18    17    19    1
   19    17    20    1
@<TRIPOS>SUBSTRUCTURE
       1 MOL1            1 RESIDUE      1      MOL     
@<SCITEGIC>MOL_PROPERTY
VConf Rank
SciTegic.value.IntegerValue
751

@<SCITEGIC>MOL_PROPERTY
Conf_Id
SciTegic.value.IntegerValue
74

@<SCITEGIC>MOL_PROPERTY
Delta U+W
SciTegic.value.DoubleValue
0.000

@<SCITEGIC>MOL_PROPERTY
U+W
SciTegic.value.DoubleValue
-36.276

@<SCITEGIC>MOL_PROPERTY
Grad RMS
SciTegic.value.DoubleValue
0.000000

@<SCITEGIC>MOL_PROPERTY
U
SciTegic.value.DoubleValue
22.080

@<SCITEGIC>MOL_PROPERTY
W
SciTegic.value.DoubleValue
-58.356

@<SCITEGIC>MOL_PROPERTY
W(PB)
SciTegic.value.DoubleValue
-60.289

@<SCITEGIC>MOL_PROPERTY
W(SA)
SciTegic.value.DoubleValue
1.932

@<SCITEGIC>MOL_PROPERTY
Valence
SciTegic.value.DoubleValue
1.885

@<SCITEGIC>MOL_PROPERTY
Coulomb
SciTegic.value.DoubleValue
19.559

@<SCITEGIC>MOL_PROPERTY
VdW
SciTegic.value.DoubleValue
0.637

@<SCITEGIC>MOL_PROPERTY
VdW6
SciTegic.value.DoubleValue
-4.482

@<SCITEGIC>MOL_PROPERTY
VdW12
SciTegic.value.DoubleValue
5.119

@<SCITEGIC>MOL_PROPERTY
Bond
SciTegic.value.DoubleValue
0.136

@<SCITEGIC>MOL_PROPERTY
Angle
SciTegic.value.DoubleValue
0.867

@<SCITEGIC>MOL_PROPERTY
Pdih
SciTegic.value.DoubleValue
0.882

@<SCITEGIC>MOL_PROPERTY
Idih
SciTegic.value.DoubleValue
0.000

@<SCITEGIC>MOL_PROPERTY
Tether
SciTegic.value.DoubleValue
0.000

@<TRIPOS>MOLECULE
guest-s10_confgen4.mol2 : confsearch ligand conformer 752
          20          19           1
SMALL
USER_CHARGES
 
@<TRIPOS>ATOM
       1    N1      21.219820   20.034841   21.198914 N.4        1 MOL1        -0.5937
       2    H1      22.065639   19.464049   21.280423 H          1 MOL1         0.3684
       3    H2      21.373275   20.888983   21.740781 H          1 MOL1         0.3684
       4    H3      21.134078   20.309192   20.216540 H          1 MOL1         0.3684
       5    C1      20.000402   19.291918   21.671725 C.3        1 MOL1         0.1270
       6    H4      19.915983   18.403490   21.038136 H          1 MOL1         0.0960
       7    C2      18.739728   20.153053   21.471856 C.3        1 MOL1        -0.2382
       8    H5      18.676805   20.511534   20.437083 H          1 MOL1         0.1009
       9    H6      18.746750   21.027376   22.134494 H          1 MOL1         0.1009
      10    H7      17.827913   19.578290   21.670509 H          1 MOL1         0.1009
      11    C3      20.162283   18.826684   23.137617 C.3        1 MOL1        -0.1392
      12    H8      21.128410   18.314000   23.234665 H          1 MOL1         0.0998
      13    H9      20.206901   19.701145   23.800321 H          1 MOL1         0.0998
      14    C4      19.046165   17.866088   23.615839 C.3        1 MOL1        -0.1302
      15    H10     18.958829   17.022205   22.917052 H          1 MOL1         0.0998
      16    H11     18.075748   18.380081   23.617681 H          1 MOL1         0.0998
      17    C5      19.327394   17.327761   25.035275 C.3        1 MOL1        -0.2317
      18    H12     20.271330   16.768085   25.066637 H          1 MOL1         0.1009
      19    H13     18.525307   16.652085   25.359630 H          1 MOL1         0.1009
      20    H14     19.391698   18.147377   25.762842 H          1 MOL1         0.1009
@<TRIPOS>BOND
    1     1     2    1
    2     1     3    1
    3     1     4    1
    4     1     5    1
    5     5     6    1
    6     5     7    1
    7     7     8    1
    8     7     9    1
    9     7    10    1
   10     5    11    1
   11    11    12    1
   12    11    13    1
   13    11    14    1
   14    14    15    1
   15    14    16    1
   16    14    17    1
   17    17    18    1
   18    17    19    1
   19    17    20    1
@<TRIPOS>SUBSTRUCTURE
       1 MOL1            1 RESIDUE      1      MOL     
@<SCITEGIC>MOL_PROPERTY
VConf Rank
SciTegic.value.IntegerValue
752

@<SCITEGIC>MOL_PROPERTY
Conf_Id
SciTegic.value.IntegerValue
80

@<SCITEGIC>MOL_PROPERTY
Delta U+W
SciTegic.value.DoubleValue
0.460

@<SCITEGIC>MOL_PROPERTY
U+W
SciTegic.value.DoubleValue
-35.817

@<SCITEGIC>MOL_PROPERTY
Grad RMS
SciTegic.value.DoubleValue
0.000000

@<SCITEGIC>MOL_PROPERTY
U
SciTegic.value.DoubleValue
22.495

@<SCITEGIC>MOL_PROPERTY
W
SciTegic.value.DoubleValue
-58.311

@<SCITEGIC>MOL_PROPERTY
W(PB)
SciTegic.value.DoubleValue
-60.259

@<SCITEGIC>MOL_PROPERTY
W(SA)
SciTegic.value.DoubleValue
1.948

@<SCITEGIC>MOL_PROPERTY
Valence
SciTegic.value.DoubleValue
2.419

@<SCITEGIC>MOL_PROPERTY
Coulomb
SciTegic.value.DoubleValue
19.304

@<SCITEGIC>MOL_PROPERTY
VdW
SciTegic.value.DoubleValue
0.772

@<SCITEGIC>MOL_PROPERTY
VdW6
SciTegic.value.DoubleValue
-4.635

@<SCITEGIC>MOL_PROPERTY
VdW12
SciTegic.value.DoubleValue
5.407

@<SCITEGIC>MOL_PROPERTY
Bond
SciTegic.value.DoubleValue
0.149

@<SCITEGIC>MOL_PROPERTY
Angle
SciTegic.value.DoubleValue
1.142

@<SCITEGIC>MOL_PROPERTY
Pdih
SciTegic.value.DoubleValue
1.129

@<SCITEGIC>MOL_PROPERTY
Idih
SciTegic.value.DoubleValue
0.000

@<SCITEGIC>MOL_PROPERTY
Tether
SciTegic.value.DoubleValue
0.000

@<TRIPOS>MOLECULE
guest-s10_confgen4.mol2 : confsearch ligand conformer 753
          20          19           1
SMALL
USER_CHARGES
 
@<TRIPOS>ATOM
       1    N1      20.533111   18.382491   24.943537 N.4        1 MOL1        -0.5937
       2    H1      20.811544   19.233379   25.439798 H          1 MOL1         0.3684
       3    H2      21.388472   17.915481   24.632172 H          1 MOL1         0.3684
       4    H3      20.082524   17.767884   25.626798 H          1 MOL1         0.3684
       5    C1      19.618346   18.686469   23.788742 C.3        1 MOL1         0.1270
       6    H4      18.737134   19.174658   24.216453 H          1 MOL1         0.0960
       7    C2      19.161558   17.381863   23.113756 C.3        1 MOL1        -0.2382
       8    H5      18.778024   16.673879   23.858608 H          1 MOL1         0.1009
       9    H6      19.988964   16.899242   22.579032 H          1 MOL1         0.1009
      10    H7      18.349330   17.571226   22.402817 H          1 MOL1         0.1009
      11    C3      20.282180   19.675279   22.799341 C.3        1 MOL1        -0.1392
      12    H8      20.604891   20.551810   23.376614 H          1 MOL1         0.0998
      13    H9      21.199509   19.237682   22.383716 H          1 MOL1         0.0998
      14    C4      19.360660   20.176375   21.655949 C.3        1 MOL1        -0.1302
      15    H10     19.593525   21.231687   21.455429 H          1 MOL1         0.0998
      16    H11     18.309311   20.155969   21.975662 H          1 MOL1         0.0998
      17    C5      19.537539   19.391323   20.334797 C.3        1 MOL1        -0.2317
      18    H12     20.569160   19.469359   19.967666 H          1 MOL1         0.1009
      19    H13     18.876897   19.795237   19.556730 H          1 MOL1         0.1009
      20    H14     19.301154   18.327766   20.451032 H          1 MOL1         0.1009
@<TRIPOS>BOND
    1     1     2    1
    2     1     3    1
    3     1     4    1
    4     1     5    1
    5     5     6    1
    6     5     7    1
    7     7     8    1
    8     7     9    1
    9     7    10    1
   10     5    11    1
   11    11    12    1
   12    11    13    1
   13    11    14    1
   14    14    15    1
   15    14    16    1
   16    14    17    1
   17    17    18    1
   18    17    19    1
   19    17    20    1
@<TRIPOS>SUBSTRUCTURE
       1 MOL1            1 RESIDUE      1      MOL     
@<SCITEGIC>MOL_PROPERTY
VConf Rank
SciTegic.value.IntegerValue
753

@<SCITEGIC>MOL_PROPERTY
Conf_Id
SciTegic.value.IntegerValue
52

@<SCITEGIC>MOL_PROPERTY
Delta U+W
SciTegic.value.DoubleValue
2.995

@<SCITEGIC>MOL_PROPERTY
U+W
SciTegic.value.DoubleValue
-33.282

@<SCITEGIC>MOL_PROPERTY
Grad RMS
SciTegic.value.DoubleValue
0.000000

@<SCITEGIC>MOL_PROPERTY
U
SciTegic.value.DoubleValue
25.224

@<SCITEGIC>MOL_PROPERTY
W
SciTegic.value.DoubleValue
-58.506

@<SCITEGIC>MOL_PROPERTY
W(PB)
SciTegic.value.DoubleValue
-60.411

@<SCITEGIC>MOL_PROPERTY
W(SA)
SciTegic.value.DoubleValue
1.905

@<SCITEGIC>MOL_PROPERTY
Valence
SciTegic.value.DoubleValue
4.945

@<SCITEGIC>MOL_PROPERTY
Coulomb
SciTegic.value.DoubleValue
19.467

@<SCITEGIC>MOL_PROPERTY
VdW
SciTegic.value.DoubleValue
0.813

@<SCITEGIC>MOL_PROPERTY
VdW6
SciTegic.value.DoubleValue
-5.458

@<SCITEGIC>MOL_PROPERTY
VdW12
SciTegic.value.DoubleValue
6.270

@<SCITEGIC>MOL_PROPERTY
Bond
SciTegic.value.DoubleValue
0.200

@<SCITEGIC>MOL_PROPERTY
Angle
SciTegic.value.DoubleValue
1.675

@<SCITEGIC>MOL_PROPERTY
Pdih
SciTegic.value.DoubleValue
3.070

@<SCITEGIC>MOL_PROPERTY
Idih
SciTegic.value.DoubleValue
0.000

@<SCITEGIC>MOL_PROPERTY
Tether
SciTegic.value.DoubleValue
0.000

@<TRIPOS>MOLECULE
guest-s10_confgen4.mol2 : confsearch ligand conformer 754
          20          19           1
SMALL
USER_CHARGES
 
@<TRIPOS>ATOM
       1    N1      19.564954   18.594963   24.299847 N.4        1 MOL1        -0.5937
       2    H1      18.570078   18.737940   24.489996 H          1 MOL1         0.3684
       3    H2      20.053108   18.605679   25.199424 H          1 MOL1         0.3684
       4    H3      19.669032   17.658688   23.902930 H          1 MOL1         0.3684
       5    C1      20.101751   19.646311   23.367234 C.3        1 MOL1         0.1270
       6    H4      21.173406   19.457147   23.251011 H          1 MOL1         0.0960
       7    C2      19.924695   21.039442   23.994606 C.3        1 MOL1        -0.2382
       8    H5      18.863030   21.286904   24.119058 H          1 MOL1         0.1009
       9    H6      20.384599   21.812591   23.366613 H          1 MOL1         0.1009
      10    H7      20.404404   21.085881   24.980029 H          1 MOL1         0.1009
      11    C3      19.444996   19.597838   21.967035 C.3        1 MOL1        -0.1392
      12    H8      18.353812   19.528492   22.067452 H          1 MOL1         0.0998
      13    H9      19.638913   20.550575   21.456377 H          1 MOL1         0.0998
      14    C4      19.969223   18.468505   21.041615 C.3        1 MOL1        -0.1302
      15    H10     21.055183   18.573230   20.908353 H          1 MOL1         0.0998
      16    H11     19.527486   18.610027   20.045188 H          1 MOL1         0.0998
      17    C5      19.644016   17.034640   21.518560 C.3        1 MOL1        -0.2317
      18    H12     19.864716   16.311501   20.722540 H          1 MOL1         0.1009
      19    H13     18.581946   16.930477   21.776388 H          1 MOL1         0.1009
      20    H14     20.251043   16.749439   22.385519 H          1 MOL1         0.1009
@<TRIPOS>BOND
    1     1     2    1
    2     1     3    1
    3     1     4    1
    4     1     5    1
    5     5     6    1
    6     5     7    1
    7     7     8    1
    8     7     9    1
    9     7    10    1
   10     5    11    1
   11    11    12    1
   12    11    13    1
   13    11    14    1
   14    14    15    1
   15    14    16    1
   16    14    17    1
   17    17    18    1
   18    17    19    1
   19    17    20    1
@<TRIPOS>SUBSTRUCTURE
       1 MOL1            1 RESIDUE      1      MOL     
@<SCITEGIC>MOL_PROPERTY
VConf Rank
SciTegic.value.IntegerValue
754

@<SCITEGIC>MOL_PROPERTY
Conf_Id
SciTegic.value.IntegerValue
54

@<SCITEGIC>MOL_PROPERTY
Delta U+W
SciTegic.value.DoubleValue
2.752

@<SCITEGIC>MOL_PROPERTY
U+W
SciTegic.value.DoubleValue
-33.525

@<SCITEGIC>MOL_PROPERTY
Grad RMS
SciTegic.value.DoubleValue
0.000000

@<SCITEGIC>MOL_PROPERTY
U
SciTegic.value.DoubleValue
24.337

@<SCITEGIC>MOL_PROPERTY
W
SciTegic.value.DoubleValue
-57.862

@<SCITEGIC>MOL_PROPERTY
W(PB)
SciTegic.value.DoubleValue
-59.764

@<SCITEGIC>MOL_PROPERTY
W(SA)
SciTegic.value.DoubleValue
1.901

@<SCITEGIC>MOL_PROPERTY
Valence
SciTegic.value.DoubleValue
3.593

@<SCITEGIC>MOL_PROPERTY
Coulomb
SciTegic.value.DoubleValue
20.067

@<SCITEGIC>MOL_PROPERTY
VdW
SciTegic.value.DoubleValue
0.677

@<SCITEGIC>MOL_PROPERTY
VdW6
SciTegic.value.DoubleValue
-5.466

@<SCITEGIC>MOL_PROPERTY
VdW12
SciTegic.value.DoubleValue
6.144

@<SCITEGIC>MOL_PROPERTY
Bond
SciTegic.value.DoubleValue
0.191

@<SCITEGIC>MOL_PROPERTY
Angle
SciTegic.value.DoubleValue
1.557

@<SCITEGIC>MOL_PROPERTY
Pdih
SciTegic.value.DoubleValue
1.845

@<SCITEGIC>MOL_PROPERTY
Idih
SciTegic.value.DoubleValue
0.000

@<SCITEGIC>MOL_PROPERTY
Tether
SciTegic.value.DoubleValue
0.000

@<TRIPOS>MOLECULE
guest-s10_confgen4.mol2 : confsearch ligand conformer 755
          20          19           1
SMALL
USER_CHARGES
 
@<TRIPOS>ATOM
       1    N1      18.595540   17.250872   22.820421 N.4        1 MOL1        -0.5937
       2    H1      18.621591   16.227861   22.841019 H          1 MOL1         0.3684
       3    H2      17.707735   17.523423   22.390038 H          1 MOL1         0.3684
       4    H3      18.579579   17.575427   23.789884 H          1 MOL1         0.3684
       5    C1      19.770699   17.816640   22.070226 C.3        1 MOL1         0.1270
       6    H4      19.711770   17.402637   21.058717 H          1 MOL1         0.0960
       7    C2      21.099569   17.345316   22.687319 C.3        1 MOL1        -0.2382
       8    H5      21.953692   17.761280   22.138757 H          1 MOL1         0.1009
       9    H6      21.176857   16.252118   22.642275 H          1 MOL1         0.1009
      10    H7      21.187692   17.643683   23.738629 H          1 MOL1         0.1009
      11    C3      19.704220   19.357217   21.938859 C.3        1 MOL1        -0.1392
      12    H8      20.537353   19.693833   21.307738 H          1 MOL1         0.0998
      13    H9      18.788315   19.619731   21.393321 H          1 MOL1         0.0998
      14    C4      19.735147   20.130689   23.282410 C.3        1 MOL1        -0.1302
      15    H10     20.669365   19.921060   23.820283 H          1 MOL1         0.0998
      16    H11     18.912736   19.798770   23.930200 H          1 MOL1         0.0998
      17    C5      19.617794   21.654117   23.061681 C.3        1 MOL1        -0.2317
      18    H12     19.643300   22.187960   24.020549 H          1 MOL1         0.1009
      19    H13     18.675466   21.909553   22.559693 H          1 MOL1         0.1009
      20    H14     20.445655   22.029115   22.445851 H          1 MOL1         0.1009
@<TRIPOS>BOND
    1     1     2    1
    2     1     3    1
    3     1     4    1
    4     1     5    1
    5     5     6    1
    6     5     7    1
    7     7     8    1
    8     7     9    1
    9     7    10    1
   10     5    11    1
   11    11    12    1
   12    11    13    1
   13    11    14    1
   14    14    15    1
   15    14    16    1
   16    14    17    1
   17    17    18    1
   18    17    19    1
   19    17    20    1
@<TRIPOS>SUBSTRUCTURE
       1 MOL1            1 RESIDUE      1      MOL     
@<SCITEGIC>MOL_PROPERTY
VConf Rank
SciTegic.value.IntegerValue
755

@<SCITEGIC>MOL_PROPERTY
Conf_Id
SciTegic.value.IntegerValue
63

@<SCITEGIC>MOL_PROPERTY
Delta U+W
SciTegic.value.DoubleValue
0.420

@<SCITEGIC>MOL_PROPERTY
U+W
SciTegic.value.DoubleValue
-35.856

@<SCITEGIC>MOL_PROPERTY
Grad RMS
SciTegic.value.DoubleValue
0.000000

@<SCITEGIC>MOL_PROPERTY
U
SciTegic.value.DoubleValue
22.625

@<SCITEGIC>MOL_PROPERTY
W
SciTegic.value.DoubleValue
-58.481

@<SCITEGIC>MOL_PROPERTY
W(PB)
SciTegic.value.DoubleValue
-60.400

@<SCITEGIC>MOL_PROPERTY
W(SA)
SciTegic.value.DoubleValue
1.919

@<SCITEGIC>MOL_PROPERTY
Valence
SciTegic.value.DoubleValue
2.404

@<SCITEGIC>MOL_PROPERTY
Coulomb
SciTegic.value.DoubleValue
19.464

@<SCITEGIC>MOL_PROPERTY
VdW
SciTegic.value.DoubleValue
0.757

@<SCITEGIC>MOL_PROPERTY
VdW6
SciTegic.value.DoubleValue
-5.074

@<SCITEGIC>MOL_PROPERTY
VdW12
SciTegic.value.DoubleValue
5.830

@<SCITEGIC>MOL_PROPERTY
Bond
SciTegic.value.DoubleValue
0.172

@<SCITEGIC>MOL_PROPERTY
Angle
SciTegic.value.DoubleValue
1.207

@<SCITEGIC>MOL_PROPERTY
Pdih
SciTegic.value.DoubleValue
1.025

@<SCITEGIC>MOL_PROPERTY
Idih
SciTegic.value.DoubleValue
0.000

@<SCITEGIC>MOL_PROPERTY
Tether
SciTegic.value.DoubleValue
0.000

@<TRIPOS>MOLECULE
guest-s10_confgen4.mol2 : confsearch ligand conformer 756
          20          19           1
SMALL
USER_CHARGES
 
@<TRIPOS>ATOM
       1    N1      21.347724   19.461621   23.136770 N.4        1 MOL1        -0.5937
       2    H1      21.593393   18.516899   22.830140 H          1 MOL1         0.3684
       3    H2      21.486675   19.502706   24.149403 H          1 MOL1         0.3684
       4    H3      22.018522   20.105852   22.709523 H          1 MOL1         0.3684
       5    C1      19.932729   19.808112   22.760062 C.3        1 MOL1         0.1270
       6    H4      19.872521   19.743253   21.669513 H          1 MOL1         0.0960
       7    C2      19.598768   21.251017   23.172384 C.3        1 MOL1        -0.2382
       8    H5      20.302013   21.958134   22.715581 H          1 MOL1         0.1009
       9    H6      19.648499   21.375023   24.261376 H          1 MOL1         0.1009
      10    H7      18.589260   21.526725   22.842989 H          1 MOL1         0.1009
      11    C3      18.903209   18.824622   23.361575 C.3        1 MOL1        -0.1392
      12    H8      18.936912   18.887049   24.457385 H          1 MOL1         0.0998
      13    H9      17.893404   19.140510   23.067574 H          1 MOL1         0.0998
      14    C4      19.107292   17.349754   22.931444 C.3        1 MOL1        -0.1302
      15    H10     18.334648   16.732558   23.411022 H          1 MOL1         0.0998
      16    H11     20.068947   16.974063   23.306467 H          1 MOL1         0.0998
      17    C5      19.029889   17.148754   21.400766 C.3        1 MOL1        -0.2317
      18    H12     18.075690   17.517370   21.002261 H          1 MOL1         0.1009
      19    H13     19.108306   16.083272   21.148441 H          1 MOL1         0.1009
      20    H14     19.842956   17.671840   20.881922 H          1 MOL1         0.1009
@<TRIPOS>BOND
    1     1     2    1
    2     1     3    1
    3     1     4    1
    4     1     5    1
    5     5     6    1
    6     5     7    1
    7     7     8    1
    8     7     9    1
    9     7    10    1
   10     5    11    1
   11    11    12    1
   12    11    13    1
   13    11    14    1
   14    14    15    1
   15    14    16    1
   16    14    17    1
   17    17    18    1
   18    17    19    1
   19    17    20    1
@<TRIPOS>SUBSTRUCTURE
       1 MOL1            1 RESIDUE      1      MOL     
@<SCITEGIC>MOL_PROPERTY
VConf Rank
SciTegic.value.IntegerValue
756

@<SCITEGIC>MOL_PROPERTY
Conf_Id
SciTegic.value.IntegerValue
50

@<SCITEGIC>MOL_PROPERTY
Delta U+W
SciTegic.value.DoubleValue
0.466

@<SCITEGIC>MOL_PROPERTY
U+W
SciTegic.value.DoubleValue
-35.811

@<SCITEGIC>MOL_PROPERTY
Grad RMS
SciTegic.value.DoubleValue
0.000000

@<SCITEGIC>MOL_PROPERTY
U
SciTegic.value.DoubleValue
22.369

@<SCITEGIC>MOL_PROPERTY
W
SciTegic.value.DoubleValue
-58.180

@<SCITEGIC>MOL_PROPERTY
W(PB)
SciTegic.value.DoubleValue
-60.103

@<SCITEGIC>MOL_PROPERTY
W(SA)
SciTegic.value.DoubleValue
1.923

@<SCITEGIC>MOL_PROPERTY
Valence
SciTegic.value.DoubleValue
2.168

@<SCITEGIC>MOL_PROPERTY
Coulomb
SciTegic.value.DoubleValue
19.636

@<SCITEGIC>MOL_PROPERTY
VdW
SciTegic.value.DoubleValue
0.566

@<SCITEGIC>MOL_PROPERTY
VdW6
SciTegic.value.DoubleValue
-5.263

@<SCITEGIC>MOL_PROPERTY
VdW12
SciTegic.value.DoubleValue
5.829

@<SCITEGIC>MOL_PROPERTY
Bond
SciTegic.value.DoubleValue
0.162

@<SCITEGIC>MOL_PROPERTY
Angle
SciTegic.value.DoubleValue
1.066

@<SCITEGIC>MOL_PROPERTY
Pdih
SciTegic.value.DoubleValue
0.939

@<SCITEGIC>MOL_PROPERTY
Idih
SciTegic.value.DoubleValue
0.000

@<SCITEGIC>MOL_PROPERTY
Tether
SciTegic.value.DoubleValue
0.000

@<TRIPOS>MOLECULE
guest-s10_confgen4.mol2 : confsearch ligand conformer 757
          20          19           1
SMALL
USER_CHARGES
 
@<TRIPOS>ATOM
       1    N1      21.270383   19.462705   21.171264 N.4        1 MOL1        -0.5937
       2    H1      22.013136   18.766987   21.282125 H          1 MOL1         0.3684
       3    H2      21.654717   20.369328   21.449104 H          1 MOL1         0.3684
       4    H3      21.054104   19.517234   20.172272 H          1 MOL1         0.3684
       5    C1      20.051983   19.107477   21.979902 C.3        1 MOL1         0.1270
       6    H4      19.718922   18.130578   21.615895 H          1 MOL1         0.0960
       7    C2      18.933802   20.135985   21.727305 C.3        1 MOL1        -0.2382
       8    H5      19.245067   21.141874   22.035475 H          1 MOL1         0.1009
       9    H6      18.021565   19.882887   22.278263 H          1 MOL1         0.1009
      10    H7      18.676442   20.172817   20.661689 H          1 MOL1         0.1009
      11    C3      20.377654   18.974239   23.488019 C.3        1 MOL1        -0.1392
      12    H8      21.463079   18.865171   23.613041 H          1 MOL1         0.0998
      13    H9      20.110129   19.896287   24.021189 H          1 MOL1         0.0998
      14    C4      19.710125   17.752337   24.168565 C.3        1 MOL1        -0.1302
      15    H10     20.059215   17.696317   25.209204 H          1 MOL1         0.0998
      16    H11     20.052649   16.828268   23.681888 H          1 MOL1         0.0998
      17    C5      18.165887   17.791644   24.164117 C.3        1 MOL1        -0.2317
      18    H12     17.791833   18.724236   24.606139 H          1 MOL1         0.1009
      19    H13     17.759533   16.957175   24.750272 H          1 MOL1         0.1009
      20    H14     17.765455   17.702498   23.146601 H          1 MOL1         0.1009
@<TRIPOS>BOND
    1     1     2    1
    2     1     3    1
    3     1     4    1
    4     1     5    1
    5     5     6    1
    6     5     7    1
    7     7     8    1
    8     7     9    1
    9     7    10    1
   10     5    11    1
   11    11    12    1
   12    11    13    1
   13    11    14    1
   14    14    15    1
   15    14    16    1
   16    14    17    1
   17    17    18    1
   18    17    19    1
   19    17    20    1
@<TRIPOS>SUBSTRUCTURE
       1 MOL1            1 RESIDUE      1      MOL     
@<SCITEGIC>MOL_PROPERTY
VConf Rank
SciTegic.value.IntegerValue
757

@<SCITEGIC>MOL_PROPERTY
Conf_Id
SciTegic.value.IntegerValue
3

@<SCITEGIC>MOL_PROPERTY
Delta U+W
SciTegic.value.DoubleValue
3.093

@<SCITEGIC>MOL_PROPERTY
U+W
SciTegic.value.DoubleValue
-33.184

@<SCITEGIC>MOL_PROPERTY
Grad RMS
SciTegic.value.DoubleValue
0.000000

@<SCITEGIC>MOL_PROPERTY
U
SciTegic.value.DoubleValue
25.256

@<SCITEGIC>MOL_PROPERTY
W
SciTegic.value.DoubleValue
-58.439

@<SCITEGIC>MOL_PROPERTY
W(PB)
SciTegic.value.DoubleValue
-60.337

@<SCITEGIC>MOL_PROPERTY
W(SA)
SciTegic.value.DoubleValue
1.898

@<SCITEGIC>MOL_PROPERTY
Valence
SciTegic.value.DoubleValue
4.963

@<SCITEGIC>MOL_PROPERTY
Coulomb
SciTegic.value.DoubleValue
19.511

@<SCITEGIC>MOL_PROPERTY
VdW
SciTegic.value.DoubleValue
0.782

@<SCITEGIC>MOL_PROPERTY
VdW6
SciTegic.value.DoubleValue
-5.429

@<SCITEGIC>MOL_PROPERTY
VdW12
SciTegic.value.DoubleValue
6.211

@<SCITEGIC>MOL_PROPERTY
Bond
SciTegic.value.DoubleValue
0.174

@<SCITEGIC>MOL_PROPERTY
Angle
SciTegic.value.DoubleValue
1.377

@<SCITEGIC>MOL_PROPERTY
Pdih
SciTegic.value.DoubleValue
3.412

@<SCITEGIC>MOL_PROPERTY
Idih
SciTegic.value.DoubleValue
0.000

@<SCITEGIC>MOL_PROPERTY
Tether
SciTegic.value.DoubleValue
0.000

@<TRIPOS>MOLECULE
guest-s10_confgen4.mol2 : confsearch ligand conformer 758
          20          19           1
SMALL
USER_CHARGES
 
@<TRIPOS>ATOM
       1    N1      17.741464   19.452539   23.856150 N.4        1 MOL1        -0.5937
       2    H1      17.108940   18.742726   24.235246 H          1 MOL1         0.3684
       3    H2      17.213204   19.988723   23.162408 H          1 MOL1         0.3684
       4    H3      17.976849   20.089614   24.621273 H          1 MOL1         0.3684
       5    C1      18.972579   18.829877   23.256958 C.3        1 MOL1         0.1270
       6    H4      18.623812   18.168467   22.458213 H          1 MOL1         0.0960
       7    C2      19.707233   17.977700   24.307758 C.3        1 MOL1        -0.2382
       8    H5      20.525781   17.406418   23.854823 H          1 MOL1         0.1009
       9    H6      19.022144   17.254463   24.766794 H          1 MOL1         0.1009
      10    H7      20.125234   18.604190   25.105425 H          1 MOL1         0.1009
      11    C3      19.895008   19.903158   22.631161 C.3        1 MOL1        -0.1392
      12    H8      19.298030   20.527615   21.953520 H          1 MOL1         0.0998
      13    H9      20.259985   20.573598   23.420489 H          1 MOL1         0.0998
      14    C4      21.106196   19.345783   21.840302 C.3        1 MOL1        -0.1302
      15    H10     21.797224   18.825561   22.517149 H          1 MOL1         0.0998
      16    H11     21.673183   20.190189   21.423957 H          1 MOL1         0.0998
      17    C5      20.694578   18.402170   20.687343 C.3        1 MOL1        -0.2317
      18    H12     20.000417   18.900265   19.997995 H          1 MOL1         0.1009
      19    H13     20.210771   17.492217   21.064146 H          1 MOL1         0.1009
      20    H14     21.575675   18.093192   20.110093 H          1 MOL1         0.1009
@<TRIPOS>BOND
    1     1     2    1
    2     1     3    1
    3     1     4    1
    4     1     5    1
    5     5     6    1
    6     5     7    1
    7     7     8    1
    8     7     9    1
    9     7    10    1
   10     5    11    1
   11    11    12    1
   12    11    13    1
   13    11    14    1
   14    14    15    1
   15    14    16    1
   16    14    17    1
   17    17    18    1
   18    17    19    1
   19    17    20    1
@<TRIPOS>SUBSTRUCTURE
       1 MOL1            1 RESIDUE      1      MOL     
@<SCITEGIC>MOL_PROPERTY
VConf Rank
SciTegic.value.IntegerValue
758

@<SCITEGIC>MOL_PROPERTY
Conf_Id
SciTegic.value.IntegerValue
64

@<SCITEGIC>MOL_PROPERTY
Delta U+W
SciTegic.value.DoubleValue
0.544

@<SCITEGIC>MOL_PROPERTY
U+W
SciTegic.value.DoubleValue
-35.732

@<SCITEGIC>MOL_PROPERTY
Grad RMS
SciTegic.value.DoubleValue
0.000000

@<SCITEGIC>MOL_PROPERTY
U
SciTegic.value.DoubleValue
22.800

@<SCITEGIC>MOL_PROPERTY
W
SciTegic.value.DoubleValue
-58.532

@<SCITEGIC>MOL_PROPERTY
W(PB)
SciTegic.value.DoubleValue
-60.437

@<SCITEGIC>MOL_PROPERTY
W(SA)
SciTegic.value.DoubleValue
1.905

@<SCITEGIC>MOL_PROPERTY
Valence
SciTegic.value.DoubleValue
2.662

@<SCITEGIC>MOL_PROPERTY
Coulomb
SciTegic.value.DoubleValue
19.485

@<SCITEGIC>MOL_PROPERTY
VdW
SciTegic.value.DoubleValue
0.653

@<SCITEGIC>MOL_PROPERTY
VdW6
SciTegic.value.DoubleValue
-5.460

@<SCITEGIC>MOL_PROPERTY
VdW12
SciTegic.value.DoubleValue
6.113

@<SCITEGIC>MOL_PROPERTY
Bond
SciTegic.value.DoubleValue
0.174

@<SCITEGIC>MOL_PROPERTY
Angle
SciTegic.value.DoubleValue
1.378

@<SCITEGIC>MOL_PROPERTY
Pdih
SciTegic.value.DoubleValue
1.109

@<SCITEGIC>MOL_PROPERTY
Idih
SciTegic.value.DoubleValue
0.000

@<SCITEGIC>MOL_PROPERTY
Tether
SciTegic.value.DoubleValue
0.000

@<TRIPOS>MOLECULE
guest-s10_confgen4.mol2 : confsearch ligand conformer 759
          20          19           1
SMALL
USER_CHARGES
 
@<TRIPOS>ATOM
       1    N1      18.382734   17.341919   22.771244 N.4        1 MOL1        -0.5937
       2    H1      17.822512   18.135369   23.090401 H          1 MOL1         0.3684
       3    H2      18.216275   16.569087   23.421348 H          1 MOL1         0.3684
       4    H3      18.017592   17.055123   21.859060 H          1 MOL1         0.3684
       5    C1      19.844125   17.693573   22.697036 C.3        1 MOL1         0.1270
       6    H4      20.353678   16.785275   22.360417 H          1 MOL1         0.0960
       7    C2      20.395865   18.040270   24.089555 C.3        1 MOL1        -0.2382
       8    H5      19.836758   18.863440   24.549446 H          1 MOL1         0.1009
       9    H6      21.453510   18.325433   24.031196 H          1 MOL1         0.1009
      10    H7      20.321629   17.173387   24.757367 H          1 MOL1         0.1009
      11    C3      20.133509   18.790896   21.642010 C.3        1 MOL1        -0.1392
      12    H8      21.218509   18.885187   21.502792 H          1 MOL1         0.0998
      13    H9      19.750114   18.428992   20.678934 H          1 MOL1         0.0998
      14    C4      19.514260   20.189357   21.917803 C.3        1 MOL1        -0.1302
      15    H10     18.569391   20.097680   22.469344 H          1 MOL1         0.0998
      16    H11     19.254297   20.648797   20.953792 H          1 MOL1         0.0998
      17    C5      20.470938   21.154044   22.657326 C.3        1 MOL1        -0.2317
      18    H12     20.742786   20.785083   23.652284 H          1 MOL1         0.1009
      19    H13     19.999298   22.136746   22.787009 H          1 MOL1         0.1009
      20    H14     21.396836   21.303286   22.086814 H          1 MOL1         0.1009
@<TRIPOS>BOND
    1     1     2    1
    2     1     3    1
    3     1     4    1
    4     1     5    1
    5     5     6    1
    6     5     7    1
    7     7     8    1
    8     7     9    1
    9     7    10    1
   10     5    11    1
   11    11    12    1
   12    11    13    1
   13    11    14    1
   14    14    15    1
   15    14    16    1
   16    14    17    1
   17    17    18    1
   18    17    19    1
   19    17    20    1
@<TRIPOS>SUBSTRUCTURE
       1 MOL1            1 RESIDUE      1      MOL     
@<SCITEGIC>MOL_PROPERTY
VConf Rank
SciTegic.value.IntegerValue
759

@<SCITEGIC>MOL_PROPERTY
Conf_Id
SciTegic.value.IntegerValue
35

@<SCITEGIC>MOL_PROPERTY
Delta U+W
SciTegic.value.DoubleValue
3.004

@<SCITEGIC>MOL_PROPERTY
U+W
SciTegic.value.DoubleValue
-33.272

@<SCITEGIC>MOL_PROPERTY
Grad RMS
SciTegic.value.DoubleValue
0.000000

@<SCITEGIC>MOL_PROPERTY
U
SciTegic.value.DoubleValue
25.367

@<SCITEGIC>MOL_PROPERTY
W
SciTegic.value.DoubleValue
-58.639

@<SCITEGIC>MOL_PROPERTY
W(PB)
SciTegic.value.DoubleValue
-60.512

@<SCITEGIC>MOL_PROPERTY
W(SA)
SciTegic.value.DoubleValue
1.873

@<SCITEGIC>MOL_PROPERTY
Valence
SciTegic.value.DoubleValue
4.943

@<SCITEGIC>MOL_PROPERTY
Coulomb
SciTegic.value.DoubleValue
19.661

@<SCITEGIC>MOL_PROPERTY
VdW
SciTegic.value.DoubleValue
0.764

@<SCITEGIC>MOL_PROPERTY
VdW6
SciTegic.value.DoubleValue
-5.871

@<SCITEGIC>MOL_PROPERTY
VdW12
SciTegic.value.DoubleValue
6.636

@<SCITEGIC>MOL_PROPERTY
Bond
SciTegic.value.DoubleValue
0.230

@<SCITEGIC>MOL_PROPERTY
Angle
SciTegic.value.DoubleValue
1.857

@<SCITEGIC>MOL_PROPERTY
Pdih
SciTegic.value.DoubleValue
2.855

@<SCITEGIC>MOL_PROPERTY
Idih
SciTegic.value.DoubleValue
0.000

@<SCITEGIC>MOL_PROPERTY
Tether
SciTegic.value.DoubleValue
0.000

@<TRIPOS>MOLECULE
guest-s10_confgen4.mol2 : confsearch ligand conformer 760
          20          19           1
SMALL
USER_CHARGES
 
@<TRIPOS>ATOM
       1    N1      19.572358   18.027940   21.202376 N.4        1 MOL1        -0.5937
       2    H1      19.430558   18.200519   20.203521 H          1 MOL1         0.3684
       3    H2      19.282277   17.064335   21.389190 H          1 MOL1         0.3684
       4    H3      20.575421   18.086862   21.387821 H          1 MOL1         0.3684
       5    C1      18.804186   19.007788   22.046338 C.3        1 MOL1         0.1270
       6    H4      17.752011   18.845783   21.792156 H          1 MOL1         0.0960
       7    C2      19.147241   20.460724   21.672436 C.3        1 MOL1        -0.2382
       8    H5      20.213754   20.673735   21.811977 H          1 MOL1         0.1009
       9    H6      18.572098   21.166043   22.284935 H          1 MOL1         0.1009
      10    H7      18.901053   20.655414   20.621506 H          1 MOL1         0.1009
      11    C3      18.944237   18.740090   23.566876 C.3        1 MOL1        -0.1392
      12    H8      18.131024   19.275163   24.074739 H          1 MOL1         0.0998
      13    H9      18.756326   17.675699   23.759174 H          1 MOL1         0.0998
      14    C4      20.280763   19.154938   24.243778 C.3        1 MOL1        -0.1302
      15    H10     20.197509   18.940448   25.318434 H          1 MOL1         0.0998
      16    H11     20.423508   20.241647   24.170844 H          1 MOL1         0.0998
      17    C5      21.532135   18.428673   23.700152 C.3        1 MOL1        -0.2317
      18    H12     21.384584   17.341014   23.681002 H          1 MOL1         0.1009
      19    H13     22.399334   18.635179   24.340848 H          1 MOL1         0.1009
      20    H14     21.790232   18.769550   22.690966 H          1 MOL1         0.1009
@<TRIPOS>BOND
    1     1     2    1
    2     1     3    1
    3     1     4    1
    4     1     5    1
    5     5     6    1
    6     5     7    1
    7     7     8    1
    8     7     9    1
    9     7    10    1
   10     5    11    1
   11    11    12    1
   12    11    13    1
   13    11    14    1
   14    14    15    1
   15    14    16    1
   16    14    17    1
   17    17    18    1
   18    17    19    1
   19    17    20    1
@<TRIPOS>SUBSTRUCTURE
       1 MOL1            1 RESIDUE      1      MOL     
@<SCITEGIC>MOL_PROPERTY
VConf Rank
SciTegic.value.IntegerValue
760

@<SCITEGIC>MOL_PROPERTY
Conf_Id
SciTegic.value.IntegerValue
55

@<SCITEGIC>MOL_PROPERTY
Delta U+W
SciTegic.value.DoubleValue
2.767

@<SCITEGIC>MOL_PROPERTY
U+W
SciTegic.value.DoubleValue
-33.509

@<SCITEGIC>MOL_PROPERTY
Grad RMS
SciTegic.value.DoubleValue
0.000000

@<SCITEGIC>MOL_PROPERTY
U
SciTegic.value.DoubleValue
24.552

@<SCITEGIC>MOL_PROPERTY
W
SciTegic.value.DoubleValue
-58.061

@<SCITEGIC>MOL_PROPERTY
W(PB)
SciTegic.value.DoubleValue
-59.930

@<SCITEGIC>MOL_PROPERTY
W(SA)
SciTegic.value.DoubleValue
1.869

@<SCITEGIC>MOL_PROPERTY
Valence
SciTegic.value.DoubleValue
3.726

@<SCITEGIC>MOL_PROPERTY
Coulomb
SciTegic.value.DoubleValue
20.219

@<SCITEGIC>MOL_PROPERTY
VdW
SciTegic.value.DoubleValue
0.606

@<SCITEGIC>MOL_PROPERTY
VdW6
SciTegic.value.DoubleValue
-6.395

@<SCITEGIC>MOL_PROPERTY
VdW12
SciTegic.value.DoubleValue
7.001

@<SCITEGIC>MOL_PROPERTY
Bond
SciTegic.value.DoubleValue
0.241

@<SCITEGIC>MOL_PROPERTY
Angle
SciTegic.value.DoubleValue
2.098

@<SCITEGIC>MOL_PROPERTY
Pdih
SciTegic.value.DoubleValue
1.387

@<SCITEGIC>MOL_PROPERTY
Idih
SciTegic.value.DoubleValue
0.000

@<SCITEGIC>MOL_PROPERTY
Tether
SciTegic.value.DoubleValue
0.000

@<TRIPOS>MOLECULE
guest-s10_confgen4.mol2 : confsearch ligand conformer 761
          20          19           1
SMALL
USER_CHARGES
 
@<TRIPOS>ATOM
       1    N1      19.452266   17.077869   22.192780 N.4        1 MOL1        -0.5937
       2    H1      18.660762   17.237094   21.564518 H          1 MOL1         0.3684
       3    H2      19.391516   16.110266   22.520975 H          1 MOL1         0.3684
       4    H3      20.307235   17.156712   21.636549 H          1 MOL1         0.3684
       5    C1      19.448887   18.050320   23.341426 C.3        1 MOL1         0.1270
       6    H4      20.323059   17.814369   23.956274 H          1 MOL1         0.0960
       7    C2      18.189689   17.863302   24.203640 C.3        1 MOL1        -0.2382
       8    H5      18.118787   16.831468   24.569091 H          1 MOL1         0.1009
       9    H6      17.280026   18.086783   23.632357 H          1 MOL1         0.1009
      10    H7      18.214349   18.524485   25.078779 H          1 MOL1         0.1009
      11    C3      19.567954   19.518564   22.876417 C.3        1 MOL1        -0.1392
      12    H8      18.712858   19.774364   22.236657 H          1 MOL1         0.0998
      13    H9      19.508193   20.174348   23.755304 H          1 MOL1         0.0998
      14    C4      20.889226   19.810726   22.125150 C.3        1 MOL1        -0.1302
      15    H10     20.947230   19.206597   21.209678 H          1 MOL1         0.0998
      16    H11     21.743893   19.520783   22.752620 H          1 MOL1         0.0998
      17    C5      21.013667   21.303131   21.750257 C.3        1 MOL1        -0.2317
      18    H12     20.188687   21.616420   21.097177 H          1 MOL1         0.1009
      19    H13     21.954768   21.491920   21.217554 H          1 MOL1         0.1009
      20    H14     21.000952   21.938405   22.645521 H          1 MOL1         0.1009
@<TRIPOS>BOND
    1     1     2    1
    2     1     3    1
    3     1     4    1
    4     1     5    1
    5     5     6    1
    6     5     7    1
    7     7     8    1
    8     7     9    1
    9     7    10    1
   10     5    11    1
   11    11    12    1
   12    11    13    1
   13    11    14    1
   14    14    15    1
   15    14    16    1
   16    14    17    1
   17    17    18    1
   18    17    19    1
   19    17    20    1
@<TRIPOS>SUBSTRUCTURE
       1 MOL1            1 RESIDUE      1      MOL     
@<SCITEGIC>MOL_PROPERTY
VConf Rank
SciTegic.value.IntegerValue
761

@<SCITEGIC>MOL_PROPERTY
Conf_Id
SciTegic.value.IntegerValue
74

@<SCITEGIC>MOL_PROPERTY
Delta U+W
SciTegic.value.DoubleValue
0.000

@<SCITEGIC>MOL_PROPERTY
U+W
SciTegic.value.DoubleValue
-36.276

@<SCITEGIC>MOL_PROPERTY
Grad RMS
SciTegic.value.DoubleValue
0.000000

@<SCITEGIC>MOL_PROPERTY
U
SciTegic.value.DoubleValue
22.080

@<SCITEGIC>MOL_PROPERTY
W
SciTegic.value.DoubleValue
-58.356

@<SCITEGIC>MOL_PROPERTY
W(PB)
SciTegic.value.DoubleValue
-60.289

@<SCITEGIC>MOL_PROPERTY
W(SA)
SciTegic.value.DoubleValue
1.932

@<SCITEGIC>MOL_PROPERTY
Valence
SciTegic.value.DoubleValue
1.885

@<SCITEGIC>MOL_PROPERTY
Coulomb
SciTegic.value.DoubleValue
19.559

@<SCITEGIC>MOL_PROPERTY
VdW
SciTegic.value.DoubleValue
0.637

@<SCITEGIC>MOL_PROPERTY
VdW6
SciTegic.value.DoubleValue
-4.482

@<SCITEGIC>MOL_PROPERTY
VdW12
SciTegic.value.DoubleValue
5.119

@<SCITEGIC>MOL_PROPERTY
Bond
SciTegic.value.DoubleValue
0.136

@<SCITEGIC>MOL_PROPERTY
Angle
SciTegic.value.DoubleValue
0.867

@<SCITEGIC>MOL_PROPERTY
Pdih
SciTegic.value.DoubleValue
0.882

@<SCITEGIC>MOL_PROPERTY
Idih
SciTegic.value.DoubleValue
0.000

@<SCITEGIC>MOL_PROPERTY
Tether
SciTegic.value.DoubleValue
0.000

@<TRIPOS>MOLECULE
guest-s10_confgen4.mol2 : confsearch ligand conformer 762
          20          19           1
SMALL
USER_CHARGES
 
@<TRIPOS>ATOM
       1    N1      20.582333   20.717887   24.071109 N.4        1 MOL1        -0.5937
       2    H1      20.226705   20.464719   24.997010 H          1 MOL1         0.3684
       3    H2      19.986581   21.466316   23.708259 H          1 MOL1         0.3684
       4    H3      21.517863   21.111312   24.204074 H          1 MOL1         0.3684
       5    C1      20.609391   19.534137   23.143494 C.3        1 MOL1         0.1270
       6    H4      21.267351   18.793349   23.608453 H          1 MOL1         0.0960
       7    C2      21.212115   19.934568   21.784384 C.3        1 MOL1        -0.2382
       8    H5      22.184844   20.422545   21.921858 H          1 MOL1         0.1009
       9    H6      20.555400   20.630932   21.248305 H          1 MOL1         0.1009
      10    H7      21.377593   19.058300   21.147206 H          1 MOL1         0.1009
      11    C3      19.203545   18.907027   22.995783 C.3        1 MOL1        -0.1392
      12    H8      18.787883   18.745905   23.999241 H          1 MOL1         0.0998
      13    H9      18.533283   19.616326   22.492302 H          1 MOL1         0.0998
      14    C4      19.197539   17.556395   22.238868 C.3        1 MOL1        -0.1302
      15    H10     19.915502   16.867004   22.705062 H          1 MOL1         0.0998
      16    H11     19.522462   17.700241   21.199813 H          1 MOL1         0.0998
      17    C5      17.795256   16.910422   22.237363 C.3        1 MOL1        -0.2317
      18    H12     17.450754   16.709612   23.260218 H          1 MOL1         0.1009
      19    H13     17.808343   15.956665   21.693980 H          1 MOL1         0.1009
      20    H14     17.059716   17.564580   21.751238 H          1 MOL1         0.1009
@<TRIPOS>BOND
    1     1     2    1
    2     1     3    1
    3     1     4    1
    4     1     5    1
    5     5     6    1
    6     5     7    1
    7     7     8    1
    8     7     9    1
    9     7    10    1
   10     5    11    1
   11    11    12    1
   12    11    13    1
   13    11    14    1
   14    14    15    1
   15    14    16    1
   16    14    17    1
   17    17    18    1
   18    17    19    1
   19    17    20    1
@<TRIPOS>SUBSTRUCTURE
       1 MOL1            1 RESIDUE      1      MOL     
@<SCITEGIC>MOL_PROPERTY
VConf Rank
SciTegic.value.IntegerValue
762

@<SCITEGIC>MOL_PROPERTY
Conf_Id
SciTegic.value.IntegerValue
80

@<SCITEGIC>MOL_PROPERTY
Delta U+W
SciTegic.value.DoubleValue
0.460

@<SCITEGIC>MOL_PROPERTY
U+W
SciTegic.value.DoubleValue
-35.817

@<SCITEGIC>MOL_PROPERTY
Grad RMS
SciTegic.value.DoubleValue
0.000000

@<SCITEGIC>MOL_PROPERTY
U
SciTegic.value.DoubleValue
22.495

@<SCITEGIC>MOL_PROPERTY
W
SciTegic.value.DoubleValue
-58.311

@<SCITEGIC>MOL_PROPERTY
W(PB)
SciTegic.value.DoubleValue
-60.259

@<SCITEGIC>MOL_PROPERTY
W(SA)
SciTegic.value.DoubleValue
1.948

@<SCITEGIC>MOL_PROPERTY
Valence
SciTegic.value.DoubleValue
2.419

@<SCITEGIC>MOL_PROPERTY
Coulomb
SciTegic.value.DoubleValue
19.304

@<SCITEGIC>MOL_PROPERTY
VdW
SciTegic.value.DoubleValue
0.772

@<SCITEGIC>MOL_PROPERTY
VdW6
SciTegic.value.DoubleValue
-4.635

@<SCITEGIC>MOL_PROPERTY
VdW12
SciTegic.value.DoubleValue
5.407

@<SCITEGIC>MOL_PROPERTY
Bond
SciTegic.value.DoubleValue
0.149

@<SCITEGIC>MOL_PROPERTY
Angle
SciTegic.value.DoubleValue
1.142

@<SCITEGIC>MOL_PROPERTY
Pdih
SciTegic.value.DoubleValue
1.129

@<SCITEGIC>MOL_PROPERTY
Idih
SciTegic.value.DoubleValue
0.000

@<SCITEGIC>MOL_PROPERTY
Tether
SciTegic.value.DoubleValue
0.000

@<TRIPOS>MOLECULE
guest-s10_confgen4.mol2 : confsearch ligand conformer 763
          20          19           1
SMALL
USER_CHARGES
 
@<TRIPOS>ATOM
       1    N1      20.706281   19.996592   24.632104 N.4        1 MOL1        -0.5937
       2    H1      21.423206   19.417970   25.078229 H          1 MOL1         0.3684
       3    H2      19.860382   19.931543   25.203866 H          1 MOL1         0.3684
       4    H3      21.029796   20.966614   24.676928 H          1 MOL1         0.3684
       5    C1      20.448369   19.567058   23.213749 C.3        1 MOL1         0.1270
       6    H4      21.399425   19.675671   22.683188 H          1 MOL1         0.0960
       7    C2      19.422461   20.503115   22.552260 C.3        1 MOL1        -0.2382
       8    H5      19.708185   21.552697   22.693266 H          1 MOL1         0.1009
       9    H6      18.421613   20.362008   22.978693 H          1 MOL1         0.1009
      10    H7      19.369900   20.327110   21.471859 H          1 MOL1         0.1009
      11    C3      20.031273   18.077265   23.151432 C.3        1 MOL1        -0.1392
      12    H8      20.801364   17.497476   23.677262 H          1 MOL1         0.0998
      13    H9      19.102288   17.919438   23.715175 H          1 MOL1         0.0998
      14    C4      19.896281   17.493611   21.720080 C.3        1 MOL1        -0.1302
      15    H10     20.256128   16.455088   21.729907 H          1 MOL1         0.0998
      16    H11     20.553691   18.033022   21.023794 H          1 MOL1         0.0998
      17    C5      18.441908   17.487677   21.193014 C.3        1 MOL1        -0.2317
      18    H12     17.792048   16.887148   21.842755 H          1 MOL1         0.1009
      19    H13     18.399945   17.051075   20.186733 H          1 MOL1         0.1009
      20    H14     18.019290   18.496882   21.134353 H          1 MOL1         0.1009
@<TRIPOS>BOND
    1     1     2    1
    2     1     3    1
    3     1     4    1
    4     1     5    1
    5     5     6    1
    6     5     7    1
    7     7     8    1
    8     7     9    1
    9     7    10    1
   10     5    11    1
   11    11    12    1
   12    11    13    1
   13    11    14    1
   14    14    15    1
   15    14    16    1
   16    14    17    1
   17    17    18    1
   18    17    19    1
   19    17    20    1
@<TRIPOS>SUBSTRUCTURE
       1 MOL1            1 RESIDUE      1      MOL     
@<SCITEGIC>MOL_PROPERTY
VConf Rank
SciTegic.value.IntegerValue
763

@<SCITEGIC>MOL_PROPERTY
Conf_Id
SciTegic.value.IntegerValue
52

@<SCITEGIC>MOL_PROPERTY
Delta U+W
SciTegic.value.DoubleValue
2.995

@<SCITEGIC>MOL_PROPERTY
U+W
SciTegic.value.DoubleValue
-33.282

@<SCITEGIC>MOL_PROPERTY
Grad RMS
SciTegic.value.DoubleValue
0.000000

@<SCITEGIC>MOL_PROPERTY
U
SciTegic.value.DoubleValue
25.224

@<SCITEGIC>MOL_PROPERTY
W
SciTegic.value.DoubleValue
-58.506

@<SCITEGIC>MOL_PROPERTY
W(PB)
SciTegic.value.DoubleValue
-60.411

@<SCITEGIC>MOL_PROPERTY
W(SA)
SciTegic.value.DoubleValue
1.905

@<SCITEGIC>MOL_PROPERTY
Valence
SciTegic.value.DoubleValue
4.945

@<SCITEGIC>MOL_PROPERTY
Coulomb
SciTegic.value.DoubleValue
19.467

@<SCITEGIC>MOL_PROPERTY
VdW
SciTegic.value.DoubleValue
0.813

@<SCITEGIC>MOL_PROPERTY
VdW6
SciTegic.value.DoubleValue
-5.458

@<SCITEGIC>MOL_PROPERTY
VdW12
SciTegic.value.DoubleValue
6.270

@<SCITEGIC>MOL_PROPERTY
Bond
SciTegic.value.DoubleValue
0.200

@<SCITEGIC>MOL_PROPERTY
Angle
SciTegic.value.DoubleValue
1.675

@<SCITEGIC>MOL_PROPERTY
Pdih
SciTegic.value.DoubleValue
3.070

@<SCITEGIC>MOL_PROPERTY
Idih
SciTegic.value.DoubleValue
0.000

@<SCITEGIC>MOL_PROPERTY
Tether
SciTegic.value.DoubleValue
0.000

@<TRIPOS>MOLECULE
guest-s10_confgen4.mol2 : confsearch ligand conformer 764
          20          19           1
SMALL
USER_CHARGES
 
@<TRIPOS>ATOM
       1    N1      20.985886   18.467027   21.841443 N.4        1 MOL1        -0.5937
       2    H1      21.826317   18.757664   22.346995 H          1 MOL1         0.3684
       3    H2      21.257242   18.295877   20.869475 H          1 MOL1         0.3684
       4    H3      20.682653   17.575488   22.239181 H          1 MOL1         0.3684
       5    C1      19.901322   19.505141   21.937820 C.3        1 MOL1         0.1270
       6    H4      19.059152   19.148045   21.337014 H          1 MOL1         0.0960
       7    C2      20.393961   20.831538   21.334714 C.3        1 MOL1        -0.2382
       8    H5      21.231742   21.243101   21.911427 H          1 MOL1         0.1009
       9    H6      19.589574   21.577464   21.320515 H          1 MOL1         0.1009
      10    H7      20.729080   20.687503   20.300168 H          1 MOL1         0.1009
      11    C3      19.406383   19.722666   23.387632 C.3        1 MOL1        -0.1392
      12    H8      20.264519   19.831740   24.063856 H          1 MOL1         0.0998
      13    H9      18.865717   20.677486   23.433287 H          1 MOL1         0.0998
      14    C4      18.444365   18.627115   23.917628 C.3        1 MOL1        -0.1302
      15    H10     17.565475   18.557143   23.261357 H          1 MOL1         0.0998
      16    H11     18.064949   18.949833   24.897385 H          1 MOL1         0.0998
      17    C5      19.080087   17.227496   24.079279 C.3        1 MOL1        -0.2317
      18    H12     18.405882   16.567856   24.641071 H          1 MOL1         0.1009
      19    H13     20.028044   17.280390   24.630547 H          1 MOL1         0.1009
      20    H14     19.258042   16.749695   23.108982 H          1 MOL1         0.1009
@<TRIPOS>BOND
    1     1     2    1
    2     1     3    1
    3     1     4    1
    4     1     5    1
    5     5     6    1
    6     5     7    1
    7     7     8    1
    8     7     9    1
    9     7    10    1
   10     5    11    1
   11    11    12    1
   12    11    13    1
   13    11    14    1
   14    14    15    1
   15    14    16    1
   16    14    17    1
   17    17    18    1
   18    17    19    1
   19    17    20    1
@<TRIPOS>SUBSTRUCTURE
       1 MOL1            1 RESIDUE      1      MOL     
@<SCITEGIC>MOL_PROPERTY
VConf Rank
SciTegic.value.IntegerValue
764

@<SCITEGIC>MOL_PROPERTY
Conf_Id
SciTegic.value.IntegerValue
54

@<SCITEGIC>MOL_PROPERTY
Delta U+W
SciTegic.value.DoubleValue
2.752

@<SCITEGIC>MOL_PROPERTY
U+W
SciTegic.value.DoubleValue
-33.525

@<SCITEGIC>MOL_PROPERTY
Grad RMS
SciTegic.value.DoubleValue
0.000000

@<SCITEGIC>MOL_PROPERTY
U
SciTegic.value.DoubleValue
24.337

@<SCITEGIC>MOL_PROPERTY
W
SciTegic.value.DoubleValue
-57.862

@<SCITEGIC>MOL_PROPERTY
W(PB)
SciTegic.value.DoubleValue
-59.764

@<SCITEGIC>MOL_PROPERTY
W(SA)
SciTegic.value.DoubleValue
1.901

@<SCITEGIC>MOL_PROPERTY
Valence
SciTegic.value.DoubleValue
3.593

@<SCITEGIC>MOL_PROPERTY
Coulomb
SciTegic.value.DoubleValue
20.067

@<SCITEGIC>MOL_PROPERTY
VdW
SciTegic.value.DoubleValue
0.677

@<SCITEGIC>MOL_PROPERTY
VdW6
SciTegic.value.DoubleValue
-5.466

@<SCITEGIC>MOL_PROPERTY
VdW12
SciTegic.value.DoubleValue
6.144

@<SCITEGIC>MOL_PROPERTY
Bond
SciTegic.value.DoubleValue
0.191

@<SCITEGIC>MOL_PROPERTY
Angle
SciTegic.value.DoubleValue
1.557

@<SCITEGIC>MOL_PROPERTY
Pdih
SciTegic.value.DoubleValue
1.845

@<SCITEGIC>MOL_PROPERTY
Idih
SciTegic.value.DoubleValue
0.000

@<SCITEGIC>MOL_PROPERTY
Tether
SciTegic.value.DoubleValue
0.000

@<TRIPOS>MOLECULE
guest-s10_confgen4.mol2 : confsearch ligand conformer 765
          20          19           1
SMALL
USER_CHARGES
 
@<TRIPOS>ATOM
       1    N1      21.534735   17.912846   22.554695 N.4        1 MOL1        -0.5937
       2    H1      22.549152   17.981128   22.672806 H          1 MOL1         0.3684
       3    H2      21.360471   17.223569   21.818325 H          1 MOL1         0.3684
       4    H3      21.150716   17.537031   23.424603 H          1 MOL1         0.3684
       5    C1      20.928525   19.247987   22.217361 C.3        1 MOL1         0.1270
       6    H4      21.410077   19.573338   21.289850 H          1 MOL1         0.0960
       7    C2      21.254151   20.292513   23.299847 C.3        1 MOL1        -0.2382
       8    H5      20.809032   21.263852   23.051165 H          1 MOL1         0.1009
       9    H6      22.338626   20.435472   23.380867 H          1 MOL1         0.1009
      10    H7      20.882807   19.986059   24.284850 H          1 MOL1         0.1009
      11    C3      19.409470   19.155400   21.936373 C.3        1 MOL1        -0.1392
      12    H8      19.050239   20.140477   21.610315 H          1 MOL1         0.0998
      13    H9      19.254791   18.481338   21.083660 H          1 MOL1         0.0998
      14    C4      18.551111   18.667851   23.132141 C.3        1 MOL1        -0.1302
      15    H10     18.652242   19.359078   23.979483 H          1 MOL1         0.0998
      16    H11     18.903761   17.686621   23.477087 H          1 MOL1         0.0998
      17    C5      17.058832   18.560410   22.751502 C.3        1 MOL1        -0.2317
      18    H12     16.464046   18.216571   23.607697 H          1 MOL1         0.1009
      19    H13     16.910452   17.846559   21.930758 H          1 MOL1         0.1009
      20    H14     16.660843   19.533205   22.434487 H          1 MOL1         0.1009
@<TRIPOS>BOND
    1     1     2    1
    2     1     3    1
    3     1     4    1
    4     1     5    1
    5     5     6    1
    6     5     7    1
    7     7     8    1
    8     7     9    1
    9     7    10    1
   10     5    11    1
   11    11    12    1
   12    11    13    1
   13    11    14    1
   14    14    15    1
   15    14    16    1
   16    14    17    1
   17    17    18    1
   18    17    19    1
   19    17    20    1
@<TRIPOS>SUBSTRUCTURE
       1 MOL1            1 RESIDUE      1      MOL     
@<SCITEGIC>MOL_PROPERTY
VConf Rank
SciTegic.value.IntegerValue
765

@<SCITEGIC>MOL_PROPERTY
Conf_Id
SciTegic.value.IntegerValue
63

@<SCITEGIC>MOL_PROPERTY
Delta U+W
SciTegic.value.DoubleValue
0.420

@<SCITEGIC>MOL_PROPERTY
U+W
SciTegic.value.DoubleValue
-35.856

@<SCITEGIC>MOL_PROPERTY
Grad RMS
SciTegic.value.DoubleValue
0.000000

@<SCITEGIC>MOL_PROPERTY
U
SciTegic.value.DoubleValue
22.625

@<SCITEGIC>MOL_PROPERTY
W
SciTegic.value.DoubleValue
-58.481

@<SCITEGIC>MOL_PROPERTY
W(PB)
SciTegic.value.DoubleValue
-60.400

@<SCITEGIC>MOL_PROPERTY
W(SA)
SciTegic.value.DoubleValue
1.919

@<SCITEGIC>MOL_PROPERTY
Valence
SciTegic.value.DoubleValue
2.404

@<SCITEGIC>MOL_PROPERTY
Coulomb
SciTegic.value.DoubleValue
19.464

@<SCITEGIC>MOL_PROPERTY
VdW
SciTegic.value.DoubleValue
0.757

@<SCITEGIC>MOL_PROPERTY
VdW6
SciTegic.value.DoubleValue
-5.074

@<SCITEGIC>MOL_PROPERTY
VdW12
SciTegic.value.DoubleValue
5.830

@<SCITEGIC>MOL_PROPERTY
Bond
SciTegic.value.DoubleValue
0.172

@<SCITEGIC>MOL_PROPERTY
Angle
SciTegic.value.DoubleValue
1.207

@<SCITEGIC>MOL_PROPERTY
Pdih
SciTegic.value.DoubleValue
1.025

@<SCITEGIC>MOL_PROPERTY
Idih
SciTegic.value.DoubleValue
0.000

@<SCITEGIC>MOL_PROPERTY
Tether
SciTegic.value.DoubleValue
0.000

@<TRIPOS>MOLECULE
guest-s10_confgen4.mol2 : confsearch ligand conformer 766
          20          19           1
SMALL
USER_CHARGES
 
@<TRIPOS>ATOM
       1    N1      20.339312   19.957154   21.436132 N.4        1 MOL1        -0.5937
       2    H1      21.047464   19.221978   21.366065 H          1 MOL1         0.3684
       3    H2      20.799010   20.793593   21.804194 H          1 MOL1         0.3684
       4    H3      20.027346   20.172759   20.485482 H          1 MOL1         0.3684
       5    C1      19.191565   19.529277   22.310075 C.3        1 MOL1         0.1270
       6    H4      18.758233   18.637983   21.846451 H          1 MOL1         0.0960
       7    C2      18.108190   20.619097   22.355904 C.3        1 MOL1        -0.2382
       8    H5      17.753694   20.857072   21.345489 H          1 MOL1         0.1009
       9    H6      18.491146   21.541655   22.809760 H          1 MOL1         0.1009
      10    H7      17.242926   20.284093   22.941322 H          1 MOL1         0.1009
      11    C3      19.644017   19.159810   23.741076 C.3        1 MOL1        -0.1392
      12    H8      20.067625   20.047278   24.229739 H          1 MOL1         0.0998
      13    H9      18.763129   18.875720   24.332056 H          1 MOL1         0.0998
      14    C4      20.676745   18.005869   23.802628 C.3        1 MOL1        -0.1302
      15    H10     20.937368   17.821777   24.854335 H          1 MOL1         0.0998
      16    H11     21.610997   18.305166   23.308500 H          1 MOL1         0.0998
      17    C5      20.154582   16.691509   23.178791 C.3        1 MOL1        -0.2317
      18    H12     19.219784   16.371785   23.657445 H          1 MOL1         0.1009
      19    H13     20.889067   15.886026   23.308396 H          1 MOL1         0.1009
      20    H14     19.969156   16.799533   22.102759 H          1 MOL1         0.1009
@<TRIPOS>BOND
    1     1     2    1
    2     1     3    1
    3     1     4    1
    4     1     5    1
    5     5     6    1
    6     5     7    1
    7     7     8    1
    8     7     9    1
    9     7    10    1
   10     5    11    1
   11    11    12    1
   12    11    13    1
   13    11    14    1
   14    14    15    1
   15    14    16    1
   16    14    17    1
   17    17    18    1
   18    17    19    1
   19    17    20    1
@<TRIPOS>SUBSTRUCTURE
       1 MOL1            1 RESIDUE      1      MOL     
@<SCITEGIC>MOL_PROPERTY
VConf Rank
SciTegic.value.IntegerValue
766

@<SCITEGIC>MOL_PROPERTY
Conf_Id
SciTegic.value.IntegerValue
50

@<SCITEGIC>MOL_PROPERTY
Delta U+W
SciTegic.value.DoubleValue
0.466

@<SCITEGIC>MOL_PROPERTY
U+W
SciTegic.value.DoubleValue
-35.811

@<SCITEGIC>MOL_PROPERTY
Grad RMS
SciTegic.value.DoubleValue
0.000000

@<SCITEGIC>MOL_PROPERTY
U
SciTegic.value.DoubleValue
22.369

@<SCITEGIC>MOL_PROPERTY
W
SciTegic.value.DoubleValue
-58.180

@<SCITEGIC>MOL_PROPERTY
W(PB)
SciTegic.value.DoubleValue
-60.103

@<SCITEGIC>MOL_PROPERTY
W(SA)
SciTegic.value.DoubleValue
1.923

@<SCITEGIC>MOL_PROPERTY
Valence
SciTegic.value.DoubleValue
2.168

@<SCITEGIC>MOL_PROPERTY
Coulomb
SciTegic.value.DoubleValue
19.636

@<SCITEGIC>MOL_PROPERTY
VdW
SciTegic.value.DoubleValue
0.566

@<SCITEGIC>MOL_PROPERTY
VdW6
SciTegic.value.DoubleValue
-5.263

@<SCITEGIC>MOL_PROPERTY
VdW12
SciTegic.value.DoubleValue
5.829

@<SCITEGIC>MOL_PROPERTY
Bond
SciTegic.value.DoubleValue
0.162

@<SCITEGIC>MOL_PROPERTY
Angle
SciTegic.value.DoubleValue
1.066

@<SCITEGIC>MOL_PROPERTY
Pdih
SciTegic.value.DoubleValue
0.939

@<SCITEGIC>MOL_PROPERTY
Idih
SciTegic.value.DoubleValue
0.000

@<SCITEGIC>MOL_PROPERTY
Tether
SciTegic.value.DoubleValue
0.000

@<TRIPOS>MOLECULE
guest-s10_confgen4.mol2 : confsearch ligand conformer 767
          20          19           1
SMALL
USER_CHARGES
 
@<TRIPOS>ATOM
       1    N1      19.194778   16.676095   23.168010 N.4        1 MOL1        -0.5937
       2    H1      20.094647   16.245691   23.398194 H          1 MOL1         0.3684
       3    H2      18.881810   16.277156   22.279320 H          1 MOL1         0.3684
       4    H3      18.526751   16.381867   23.885579 H          1 MOL1         0.3684
       5    C1      19.299316   18.175516   23.094605 C.3        1 MOL1         0.1270
       6    H4      19.640569   18.505764   24.080629 H          1 MOL1         0.0960
       7    C2      17.912667   18.787542   22.821487 C.3        1 MOL1        -0.2382
       8    H5      17.511172   18.443436   21.860207 H          1 MOL1         0.1009
       9    H6      17.953064   19.881860   22.796486 H          1 MOL1         0.1009
      10    H7      17.202613   18.501212   23.606960 H          1 MOL1         0.1009
      11    C3      20.343386   18.631637   22.045747 C.3        1 MOL1        -0.1392
      12    H8      20.997505   17.785180   21.798133 H          1 MOL1         0.0998
      13    H9      19.847495   18.906650   21.105283 H          1 MOL1         0.0998
      14    C4      21.252045   19.790810   22.527866 C.3        1 MOL1        -0.1302
      15    H10     22.005650   19.991178   21.753358 H          1 MOL1         0.0998
      16    H11     21.809231   19.473802   23.420688 H          1 MOL1         0.0998
      17    C5      20.494905   21.101745   22.835150 C.3        1 MOL1        -0.2317
      18    H12     19.893265   21.422971   21.974992 H          1 MOL1         0.1009
      19    H13     21.202886   21.907778   23.067778 H          1 MOL1         0.1009
      20    H14     19.831924   20.988155   23.701858 H          1 MOL1         0.1009
@<TRIPOS>BOND
    1     1     2    1
    2     1     3    1
    3     1     4    1
    4     1     5    1
    5     5     6    1
    6     5     7    1
    7     7     8    1
    8     7     9    1
    9     7    10    1
   10     5    11    1
   11    11    12    1
   12    11    13    1
   13    11    14    1
   14    14    15    1
   15    14    16    1
   16    14    17    1
   17    17    18    1
   18    17    19    1
   19    17    20    1
@<TRIPOS>SUBSTRUCTURE
       1 MOL1            1 RESIDUE      1      MOL     
@<SCITEGIC>MOL_PROPERTY
VConf Rank
SciTegic.value.IntegerValue
767

@<SCITEGIC>MOL_PROPERTY
Conf_Id
SciTegic.value.IntegerValue
3

@<SCITEGIC>MOL_PROPERTY
Delta U+W
SciTegic.value.DoubleValue
3.093

@<SCITEGIC>MOL_PROPERTY
U+W
SciTegic.value.DoubleValue
-33.184

@<SCITEGIC>MOL_PROPERTY
Grad RMS
SciTegic.value.DoubleValue
0.000000

@<SCITEGIC>MOL_PROPERTY
U
SciTegic.value.DoubleValue
25.256

@<SCITEGIC>MOL_PROPERTY
W
SciTegic.value.DoubleValue
-58.439

@<SCITEGIC>MOL_PROPERTY
W(PB)
SciTegic.value.DoubleValue
-60.337

@<SCITEGIC>MOL_PROPERTY
W(SA)
SciTegic.value.DoubleValue
1.898

@<SCITEGIC>MOL_PROPERTY
Valence
SciTegic.value.DoubleValue
4.963

@<SCITEGIC>MOL_PROPERTY
Coulomb
SciTegic.value.DoubleValue
19.511

@<SCITEGIC>MOL_PROPERTY
VdW
SciTegic.value.DoubleValue
0.782

@<SCITEGIC>MOL_PROPERTY
VdW6
SciTegic.value.DoubleValue
-5.429

@<SCITEGIC>MOL_PROPERTY
VdW12
SciTegic.value.DoubleValue
6.211

@<SCITEGIC>MOL_PROPERTY
Bond
SciTegic.value.DoubleValue
0.174

@<SCITEGIC>MOL_PROPERTY
Angle
SciTegic.value.DoubleValue
1.377

@<SCITEGIC>MOL_PROPERTY
Pdih
SciTegic.value.DoubleValue
3.412

@<SCITEGIC>MOL_PROPERTY
Idih
SciTegic.value.DoubleValue
0.000

@<SCITEGIC>MOL_PROPERTY
Tether
SciTegic.value.DoubleValue
0.000

@<TRIPOS>MOLECULE
guest-s10_confgen4.mol2 : confsearch ligand conformer 768
          20          19           1
SMALL
USER_CHARGES
 
@<TRIPOS>ATOM
       1    N1      19.529795   16.781461   23.490276 N.4        1 MOL1        -0.5937
       2    H1      20.112339   16.026380   23.118616 H          1 MOL1         0.3684
       3    H2      18.555188   16.533204   23.299646 H          1 MOL1         0.3684
       4    H3      19.651370   16.787182   24.506087 H          1 MOL1         0.3684
       5    C1      19.893999   18.108314   22.882660 C.3        1 MOL1         0.1270
       6    H4      19.737391   18.005164   21.804732 H          1 MOL1         0.0960
       7    C2      21.381065   18.420508   23.130188 C.3        1 MOL1        -0.2382
       8    H5      21.697462   19.312693   22.577527 H          1 MOL1         0.1009
       9    H6      22.012123   17.589217   22.792762 H          1 MOL1         0.1009
      10    H7      21.579686   18.587717   24.196058 H          1 MOL1         0.1009
      11    C3      18.969395   19.234957   23.402478 C.3        1 MOL1        -0.1392
      12    H8      17.925426   18.920871   23.272084 H          1 MOL1         0.0998
      13    H9      19.117700   19.356915   24.483620 H          1 MOL1         0.0998
      14    C4      19.155639   20.608246   22.707860 C.3        1 MOL1        -0.1302
      15    H10     20.150704   21.016545   22.930143 H          1 MOL1         0.0998
      16    H11     18.436744   21.320041   23.137253 H          1 MOL1         0.0998
      17    C5      18.945955   20.546645   21.177700 C.3        1 MOL1        -0.2317
      18    H12     17.957313   20.138356   20.930630 H          1 MOL1         0.1009
      19    H13     19.706553   19.923047   20.691202 H          1 MOL1         0.1009
      20    H14     19.012461   21.551002   20.739681 H          1 MOL1         0.1009
@<TRIPOS>BOND
    1     1     2    1
    2     1     3    1
    3     1     4    1
    4     1     5    1
    5     5     6    1
    6     5     7    1
    7     7     8    1
    8     7     9    1
    9     7    10    1
   10     5    11    1
   11    11    12    1
   12    11    13    1
   13    11    14    1
   14    14    15    1
   15    14    16    1
   16    14    17    1
   17    17    18    1
   18    17    19    1
   19    17    20    1
@<TRIPOS>SUBSTRUCTURE
       1 MOL1            1 RESIDUE      1      MOL     
@<SCITEGIC>MOL_PROPERTY
VConf Rank
SciTegic.value.IntegerValue
768

@<SCITEGIC>MOL_PROPERTY
Conf_Id
SciTegic.value.IntegerValue
64

@<SCITEGIC>MOL_PROPERTY
Delta U+W
SciTegic.value.DoubleValue
0.544

@<SCITEGIC>MOL_PROPERTY
U+W
SciTegic.value.DoubleValue
-35.732

@<SCITEGIC>MOL_PROPERTY
Grad RMS
SciTegic.value.DoubleValue
0.000000

@<SCITEGIC>MOL_PROPERTY
U
SciTegic.value.DoubleValue
22.800

@<SCITEGIC>MOL_PROPERTY
W
SciTegic.value.DoubleValue
-58.532

@<SCITEGIC>MOL_PROPERTY
W(PB)
SciTegic.value.DoubleValue
-60.437

@<SCITEGIC>MOL_PROPERTY
W(SA)
SciTegic.value.DoubleValue
1.905

@<SCITEGIC>MOL_PROPERTY
Valence
SciTegic.value.DoubleValue
2.662

@<SCITEGIC>MOL_PROPERTY
Coulomb
SciTegic.value.DoubleValue
19.485

@<SCITEGIC>MOL_PROPERTY
VdW
SciTegic.value.DoubleValue
0.653

@<SCITEGIC>MOL_PROPERTY
VdW6
SciTegic.value.DoubleValue
-5.460

@<SCITEGIC>MOL_PROPERTY
VdW12
SciTegic.value.DoubleValue
6.113

@<SCITEGIC>MOL_PROPERTY
Bond
SciTegic.value.DoubleValue
0.174

@<SCITEGIC>MOL_PROPERTY
Angle
SciTegic.value.DoubleValue
1.378

@<SCITEGIC>MOL_PROPERTY
Pdih
SciTegic.value.DoubleValue
1.109

@<SCITEGIC>MOL_PROPERTY
Idih
SciTegic.value.DoubleValue
0.000

@<SCITEGIC>MOL_PROPERTY
Tether
SciTegic.value.DoubleValue
0.000

@<TRIPOS>MOLECULE
guest-s10_confgen4.mol2 : confsearch ligand conformer 769
          20          19           1
SMALL
USER_CHARGES
 
@<TRIPOS>ATOM
       1    N1      21.264516   18.873410   24.205313 N.4        1 MOL1        -0.5937
       2    H1      20.490585   18.379983   24.655684 H          1 MOL1         0.3684
       3    H2      21.618672   19.562062   24.874599 H          1 MOL1         0.3684
       4    H3      22.012007   18.192497   24.046332 H          1 MOL1         0.3684
       5    C1      20.828728   19.527086   22.921713 C.3        1 MOL1         0.1270
       6    H4      21.715738   20.032650   22.527274 H          1 MOL1         0.0960
       7    C2      19.766305   20.605741   23.189083 C.3        1 MOL1        -0.2382
       8    H5      18.895988   20.191409   23.711180 H          1 MOL1         0.1009
       9    H6      19.427004   21.061451   22.250712 H          1 MOL1         0.1009
      10    H7      20.181214   21.404622   23.815669 H          1 MOL1         0.1009
      11    C3      20.386024   18.494177   21.854919 C.3        1 MOL1        -0.1392
      12    H8      20.247600   19.002214   20.891470 H          1 MOL1         0.0998
      13    H9      21.225574   17.804137   21.698451 H          1 MOL1         0.0998
      14    C4      19.122884   17.654746   22.194121 C.3        1 MOL1        -0.1302
      15    H10     19.035113   17.499039   23.277372 H          1 MOL1         0.0998
      16    H11     19.245184   16.653692   21.757181 H          1 MOL1         0.0998
      17    C5      17.812250   18.256581   21.634855 C.3        1 MOL1        -0.2317
      18    H12     17.595517   19.242726   22.059734 H          1 MOL1         0.1009
      19    H13     16.961195   17.603015   21.866205 H          1 MOL1         0.1009
      20    H14     17.862516   18.361709   20.543313 H          1 MOL1         0.1009
@<TRIPOS>BOND
    1     1     2    1
    2     1     3    1
    3     1     4    1
    4     1     5    1
    5     5     6    1
    6     5     7    1
    7     7     8    1
    8     7     9    1
    9     7    10    1
   10     5    11    1
   11    11    12    1
   12    11    13    1
   13    11    14    1
   14    14    15    1
   15    14    16    1
   16    14    17    1
   17    17    18    1
   18    17    19    1
   19    17    20    1
@<TRIPOS>SUBSTRUCTURE
       1 MOL1            1 RESIDUE      1      MOL     
@<SCITEGIC>MOL_PROPERTY
VConf Rank
SciTegic.value.IntegerValue
769

@<SCITEGIC>MOL_PROPERTY
Conf_Id
SciTegic.value.IntegerValue
35

@<SCITEGIC>MOL_PROPERTY
Delta U+W
SciTegic.value.DoubleValue
3.004

@<SCITEGIC>MOL_PROPERTY
U+W
SciTegic.value.DoubleValue
-33.272

@<SCITEGIC>MOL_PROPERTY
Grad RMS
SciTegic.value.DoubleValue
0.000000

@<SCITEGIC>MOL_PROPERTY
U
SciTegic.value.DoubleValue
25.367

@<SCITEGIC>MOL_PROPERTY
W
SciTegic.value.DoubleValue
-58.639

@<SCITEGIC>MOL_PROPERTY
W(PB)
SciTegic.value.DoubleValue
-60.512

@<SCITEGIC>MOL_PROPERTY
W(SA)
SciTegic.value.DoubleValue
1.873

@<SCITEGIC>MOL_PROPERTY
Valence
SciTegic.value.DoubleValue
4.943

@<SCITEGIC>MOL_PROPERTY
Coulomb
SciTegic.value.DoubleValue
19.661

@<SCITEGIC>MOL_PROPERTY
VdW
SciTegic.value.DoubleValue
0.764

@<SCITEGIC>MOL_PROPERTY
VdW6
SciTegic.value.DoubleValue
-5.871

@<SCITEGIC>MOL_PROPERTY
VdW12
SciTegic.value.DoubleValue
6.636

@<SCITEGIC>MOL_PROPERTY
Bond
SciTegic.value.DoubleValue
0.230

@<SCITEGIC>MOL_PROPERTY
Angle
SciTegic.value.DoubleValue
1.857

@<SCITEGIC>MOL_PROPERTY
Pdih
SciTegic.value.DoubleValue
2.855

@<SCITEGIC>MOL_PROPERTY
Idih
SciTegic.value.DoubleValue
0.000

@<SCITEGIC>MOL_PROPERTY
Tether
SciTegic.value.DoubleValue
0.000

@<TRIPOS>MOLECULE
guest-s10_confgen4.mol2 : confsearch ligand conformer 770
          20          19           1
SMALL
USER_CHARGES
 
@<TRIPOS>ATOM
       1    N1      19.389512   20.609365   23.260264 N.4        1 MOL1        -0.5937
       2    H1      18.733602   21.052945   23.908816 H          1 MOL1         0.3684
       3    H2      19.729729   21.337019   22.625951 H          1 MOL1         0.3684
       4    H3      20.188896   20.279972   23.804766 H          1 MOL1         0.3684
       5    C1      18.741896   19.480324   22.506391 C.3        1 MOL1         0.1270
       6    H4      17.924025   19.940350   21.943017 H          1 MOL1         0.0960
       7    C2      18.116048   18.451439   23.464630 C.3        1 MOL1        -0.2382
       8    H5      18.866133   18.011619   24.132631 H          1 MOL1         0.1009
       9    H6      17.635816   17.639875   22.904128 H          1 MOL1         0.1009
      10    H7      17.347915   18.924737   24.088271 H          1 MOL1         0.1009
      11    C3      19.686777   18.822563   21.468191 C.3        1 MOL1        -0.1392
      12    H8      19.064197   18.249637   20.768410 H          1 MOL1         0.0998
      13    H9      20.153912   19.610661   20.863291 H          1 MOL1         0.0998
      14    C4      20.790020   17.871016   22.010419 C.3        1 MOL1        -0.1302
      15    H10     21.335432   17.458968   21.149858 H          1 MOL1         0.0998
      16    H11     20.334556   17.006149   22.511607 H          1 MOL1         0.0998
      17    C5      21.812301   18.541038   22.956429 C.3        1 MOL1        -0.2317
      18    H12     22.221578   19.458989   22.514842 H          1 MOL1         0.1009
      19    H13     22.652814   17.861790   23.149643 H          1 MOL1         0.1009
      20    H14     21.365451   18.783086   23.927513 H          1 MOL1         0.1009
@<TRIPOS>BOND
    1     1     2    1
    2     1     3    1
    3     1     4    1
    4     1     5    1
    5     5     6    1
    6     5     7    1
    7     7     8    1
    8     7     9    1
    9     7    10    1
   10     5    11    1
   11    11    12    1
   12    11    13    1
   13    11    14    1
   14    14    15    1
   15    14    16    1
   16    14    17    1
   17    17    18    1
   18    17    19    1
   19    17    20    1
@<TRIPOS>SUBSTRUCTURE
       1 MOL1            1 RESIDUE      1      MOL     
@<SCITEGIC>MOL_PROPERTY
VConf Rank
SciTegic.value.IntegerValue
770

@<SCITEGIC>MOL_PROPERTY
Conf_Id
SciTegic.value.IntegerValue
55

@<SCITEGIC>MOL_PROPERTY
Delta U+W
SciTegic.value.DoubleValue
2.767

@<SCITEGIC>MOL_PROPERTY
U+W
SciTegic.value.DoubleValue
-33.509

@<SCITEGIC>MOL_PROPERTY
Grad RMS
SciTegic.value.DoubleValue
0.000000

@<SCITEGIC>MOL_PROPERTY
U
SciTegic.value.DoubleValue
24.552

@<SCITEGIC>MOL_PROPERTY
W
SciTegic.value.DoubleValue
-58.061

@<SCITEGIC>MOL_PROPERTY
W(PB)
SciTegic.value.DoubleValue
-59.930

@<SCITEGIC>MOL_PROPERTY
W(SA)
SciTegic.value.DoubleValue
1.869

@<SCITEGIC>MOL_PROPERTY
Valence
SciTegic.value.DoubleValue
3.726

@<SCITEGIC>MOL_PROPERTY
Coulomb
SciTegic.value.DoubleValue
20.219

@<SCITEGIC>MOL_PROPERTY
VdW
SciTegic.value.DoubleValue
0.606

@<SCITEGIC>MOL_PROPERTY
VdW6
SciTegic.value.DoubleValue
-6.395

@<SCITEGIC>MOL_PROPERTY
VdW12
SciTegic.value.DoubleValue
7.001

@<SCITEGIC>MOL_PROPERTY
Bond
SciTegic.value.DoubleValue
0.241

@<SCITEGIC>MOL_PROPERTY
Angle
SciTegic.value.DoubleValue
2.098

@<SCITEGIC>MOL_PROPERTY
Pdih
SciTegic.value.DoubleValue
1.387

@<SCITEGIC>MOL_PROPERTY
Idih
SciTegic.value.DoubleValue
0.000

@<SCITEGIC>MOL_PROPERTY
Tether
SciTegic.value.DoubleValue
0.000

@<TRIPOS>MOLECULE
guest-s10_confgen4.mol2 : confsearch ligand conformer 771
          20          19           1
SMALL
USER_CHARGES
 
@<TRIPOS>ATOM
       1    N1      20.850714   20.206615   21.669037 N.4        1 MOL1        -0.5937
       2    H1      21.536143   19.527227   21.329679 H          1 MOL1         0.3684
       3    H2      21.299688   21.126326   21.654524 H          1 MOL1         0.3684
       4    H3      20.083019   20.232807   20.993360 H          1 MOL1         0.3684
       5    C1      20.361213   19.854355   23.047936 C.3        1 MOL1         0.1270
       6    H4      19.635158   20.623149   23.330224 H          1 MOL1         0.0960
       7    C2      21.519527   19.892453   24.058295 C.3        1 MOL1        -0.2382
       8    H5      22.002809   20.877188   24.058333 H          1 MOL1         0.1009
       9    H6      22.280068   19.138524   23.819628 H          1 MOL1         0.1009
      10    H7      21.156295   19.700874   25.075644 H          1 MOL1         0.1009
      11    C3      19.653574   18.482030   23.093956 C.3        1 MOL1        -0.1392
      12    H8      20.355545   17.693640   22.791311 H          1 MOL1         0.0998
      13    H9      19.368453   18.265240   24.132116 H          1 MOL1         0.0998
      14    C4      18.386958   18.423610   22.206380 C.3        1 MOL1        -0.1302
      15    H10     18.653855   18.581767   21.152730 H          1 MOL1         0.0998
      16    H11     17.700840   19.235467   22.486332 H          1 MOL1         0.0998
      17    C5      17.658229   17.069371   22.341629 C.3        1 MOL1        -0.2317
      18    H12     18.309247   16.238637   22.039451 H          1 MOL1         0.1009
      19    H13     16.764195   17.044890   21.705083 H          1 MOL1         0.1009
      20    H14     17.338479   16.893758   23.377077 H          1 MOL1         0.1009
@<TRIPOS>BOND
    1     1     2    1
    2     1     3    1
    3     1     4    1
    4     1     5    1
    5     5     6    1
    6     5     7    1
    7     7     8    1
    8     7     9    1
    9     7    10    1
   10     5    11    1
   11    11    12    1
   12    11    13    1
   13    11    14    1
   14    14    15    1
   15    14    16    1
   16    14    17    1
   17    17    18    1
   18    17    19    1
   19    17    20    1
@<TRIPOS>SUBSTRUCTURE
       1 MOL1            1 RESIDUE      1      MOL     
@<SCITEGIC>MOL_PROPERTY
VConf Rank
SciTegic.value.IntegerValue
771

@<SCITEGIC>MOL_PROPERTY
Conf_Id
SciTegic.value.IntegerValue
74

@<SCITEGIC>MOL_PROPERTY
Delta U+W
SciTegic.value.DoubleValue
0.000

@<SCITEGIC>MOL_PROPERTY
U+W
SciTegic.value.DoubleValue
-36.276

@<SCITEGIC>MOL_PROPERTY
Grad RMS
SciTegic.value.DoubleValue
0.000000

@<SCITEGIC>MOL_PROPERTY
U
SciTegic.value.DoubleValue
22.080

@<SCITEGIC>MOL_PROPERTY
W
SciTegic.value.DoubleValue
-58.356

@<SCITEGIC>MOL_PROPERTY
W(PB)
SciTegic.value.DoubleValue
-60.289

@<SCITEGIC>MOL_PROPERTY
W(SA)
SciTegic.value.DoubleValue
1.932

@<SCITEGIC>MOL_PROPERTY
Valence
SciTegic.value.DoubleValue
1.885

@<SCITEGIC>MOL_PROPERTY
Coulomb
SciTegic.value.DoubleValue
19.559

@<SCITEGIC>MOL_PROPERTY
VdW
SciTegic.value.DoubleValue
0.637

@<SCITEGIC>MOL_PROPERTY
VdW6
SciTegic.value.DoubleValue
-4.482

@<SCITEGIC>MOL_PROPERTY
VdW12
SciTegic.value.DoubleValue
5.119

@<SCITEGIC>MOL_PROPERTY
Bond
SciTegic.value.DoubleValue
0.136

@<SCITEGIC>MOL_PROPERTY
Angle
SciTegic.value.DoubleValue
0.867

@<SCITEGIC>MOL_PROPERTY
Pdih
SciTegic.value.DoubleValue
0.882

@<SCITEGIC>MOL_PROPERTY
Idih
SciTegic.value.DoubleValue
0.000

@<SCITEGIC>MOL_PROPERTY
Tether
SciTegic.value.DoubleValue
0.000

@<TRIPOS>MOLECULE
guest-s10_confgen4.mol2 : confsearch ligand conformer 772
          20          19           1
SMALL
USER_CHARGES
 
@<TRIPOS>ATOM
       1    N1      19.910602   20.644498   21.058552 N.4        1 MOL1        -0.5937
       2    H1      20.882633   20.543335   20.753956 H          1 MOL1         0.3684
       3    H2      19.867610   21.454763   21.681729 H          1 MOL1         0.3684
       4    H3      19.355790   20.869561   20.228366 H          1 MOL1         0.3684
       5    C1      19.408032   19.399032   21.735830 C.3        1 MOL1         0.1270
       6    H4      19.488429   18.593799   20.998944 H          1 MOL1         0.0960
       7    C2      17.925580   19.560913   22.119146 C.3        1 MOL1        -0.2382
       8    H5      17.333509   19.872113   21.249762 H          1 MOL1         0.1009
       9    H6      17.798591   20.316172   22.904663 H          1 MOL1         0.1009
      10    H7      17.500514   18.616599   22.478053 H          1 MOL1         0.1009
      11    C3      20.287996   19.030255   22.952857 C.3        1 MOL1        -0.1392
      12    H8      21.339331   19.037053   22.636140 H          1 MOL1         0.0998
      13    H9      20.191825   19.803532   23.726578 H          1 MOL1         0.0998
      14    C4      19.966630   17.642482   23.559463 C.3        1 MOL1        -0.1302
      15    H10     20.001058   16.876658   22.771809 H          1 MOL1         0.0998
      16    H11     18.947993   17.632305   23.969553 H          1 MOL1         0.0998
      17    C5      20.958960   17.267434   24.681204 C.3        1 MOL1        -0.2317
      18    H12     21.988035   17.224012   24.301260 H          1 MOL1         0.1009
      19    H13     20.714477   16.283486   25.102110 H          1 MOL1         0.1009
      20    H14     20.926864   18.000238   25.498044 H          1 MOL1         0.1009
@<TRIPOS>BOND
    1     1     2    1
    2     1     3    1
    3     1     4    1
    4     1     5    1
    5     5     6    1
    6     5     7    1
    7     7     8    1
    8     7     9    1
    9     7    10    1
   10     5    11    1
   11    11    12    1
   12    11    13    1
   13    11    14    1
   14    14    15    1
   15    14    16    1
   16    14    17    1
   17    17    18    1
   18    17    19    1
   19    17    20    1
@<TRIPOS>SUBSTRUCTURE
       1 MOL1            1 RESIDUE      1      MOL     
@<SCITEGIC>MOL_PROPERTY
VConf Rank
SciTegic.value.IntegerValue
772

@<SCITEGIC>MOL_PROPERTY
Conf_Id
SciTegic.value.IntegerValue
80

@<SCITEGIC>MOL_PROPERTY
Delta U+W
SciTegic.value.DoubleValue
0.460

@<SCITEGIC>MOL_PROPERTY
U+W
SciTegic.value.DoubleValue
-35.817

@<SCITEGIC>MOL_PROPERTY
Grad RMS
SciTegic.value.DoubleValue
0.000000

@<SCITEGIC>MOL_PROPERTY
U
SciTegic.value.DoubleValue
22.495

@<SCITEGIC>MOL_PROPERTY
W
SciTegic.value.DoubleValue
-58.311

@<SCITEGIC>MOL_PROPERTY
W(PB)
SciTegic.value.DoubleValue
-60.259

@<SCITEGIC>MOL_PROPERTY
W(SA)
SciTegic.value.DoubleValue
1.948

@<SCITEGIC>MOL_PROPERTY
Valence
SciTegic.value.DoubleValue
2.419

@<SCITEGIC>MOL_PROPERTY
Coulomb
SciTegic.value.DoubleValue
19.304

@<SCITEGIC>MOL_PROPERTY
VdW
SciTegic.value.DoubleValue
0.772

@<SCITEGIC>MOL_PROPERTY
VdW6
SciTegic.value.DoubleValue
-4.635

@<SCITEGIC>MOL_PROPERTY
VdW12
SciTegic.value.DoubleValue
5.407

@<SCITEGIC>MOL_PROPERTY
Bond
SciTegic.value.DoubleValue
0.149

@<SCITEGIC>MOL_PROPERTY
Angle
SciTegic.value.DoubleValue
1.142

@<SCITEGIC>MOL_PROPERTY
Pdih
SciTegic.value.DoubleValue
1.129

@<SCITEGIC>MOL_PROPERTY
Idih
SciTegic.value.DoubleValue
0.000

@<SCITEGIC>MOL_PROPERTY
Tether
SciTegic.value.DoubleValue
0.000

@<TRIPOS>MOLECULE
guest-s10_confgen4.mol2 : confsearch ligand conformer 773
          20          19           1
SMALL
USER_CHARGES
 
@<TRIPOS>ATOM
       1    N1      19.809725   18.421939   20.371957 N.4        1 MOL1        -0.5937
       2    H1      19.842986   17.414548   20.193444 H          1 MOL1         0.3684
       3    H2      20.754336   18.789277   20.232450 H          1 MOL1         0.3684
       4    H3      19.212589   18.836936   19.651664 H          1 MOL1         0.3684
       5    C1      19.297876   18.725169   21.753554 C.3        1 MOL1         0.1270
       6    H4      18.289457   18.303100   21.805963 H          1 MOL1         0.0960
       7    C2      19.190843   20.245790   21.959743 C.3        1 MOL1        -0.2382
       8    H5      18.644402   20.711742   21.130627 H          1 MOL1         0.1009
       9    H6      20.182825   20.710561   22.018168 H          1 MOL1         0.1009
      10    H7      18.640808   20.479624   22.878323 H          1 MOL1         0.1009
      11    C3      20.165353   18.031396   22.832210 C.3        1 MOL1        -0.1392
      12    H8      20.212009   16.963608   22.580527 H          1 MOL1         0.0998
      13    H9      21.199841   18.395758   22.779240 H          1 MOL1         0.0998
      14    C4      19.627650   18.151307   24.282776 C.3        1 MOL1        -0.1302
      15    H10     19.827659   17.207609   24.809604 H          1 MOL1         0.0998
      16    H11     18.534652   18.266576   24.276934 H          1 MOL1         0.0998
      17    C5      20.285885   19.295016   25.090049 C.3        1 MOL1        -0.2317
      18    H12     21.371059   19.147290   25.165492 H          1 MOL1         0.1009
      19    H13     19.883316   19.325562   26.110827 H          1 MOL1         0.1009
      20    H14     20.110565   20.276251   24.635094 H          1 MOL1         0.1009
@<TRIPOS>BOND
    1     1     2    1
    2     1     3    1
    3     1     4    1
    4     1     5    1
    5     5     6    1
    6     5     7    1
    7     7     8    1
    8     7     9    1
    9     7    10    1
   10     5    11    1
   11    11    12    1
   12    11    13    1
   13    11    14    1
   14    14    15    1
   15    14    16    1
   16    14    17    1
   17    17    18    1
   18    17    19    1
   19    17    20    1
@<TRIPOS>SUBSTRUCTURE
       1 MOL1            1 RESIDUE      1      MOL     
@<SCITEGIC>MOL_PROPERTY
VConf Rank
SciTegic.value.IntegerValue
773

@<SCITEGIC>MOL_PROPERTY
Conf_Id
SciTegic.value.IntegerValue
52

@<SCITEGIC>MOL_PROPERTY
Delta U+W
SciTegic.value.DoubleValue
2.995

@<SCITEGIC>MOL_PROPERTY
U+W
SciTegic.value.DoubleValue
-33.282

@<SCITEGIC>MOL_PROPERTY
Grad RMS
SciTegic.value.DoubleValue
0.000000

@<SCITEGIC>MOL_PROPERTY
U
SciTegic.value.DoubleValue
25.224

@<SCITEGIC>MOL_PROPERTY
W
SciTegic.value.DoubleValue
-58.506

@<SCITEGIC>MOL_PROPERTY
W(PB)
SciTegic.value.DoubleValue
-60.411

@<SCITEGIC>MOL_PROPERTY
W(SA)
SciTegic.value.DoubleValue
1.905

@<SCITEGIC>MOL_PROPERTY
Valence
SciTegic.value.DoubleValue
4.945

@<SCITEGIC>MOL_PROPERTY
Coulomb
SciTegic.value.DoubleValue
19.467

@<SCITEGIC>MOL_PROPERTY
VdW
SciTegic.value.DoubleValue
0.813

@<SCITEGIC>MOL_PROPERTY
VdW6
SciTegic.value.DoubleValue
-5.458

@<SCITEGIC>MOL_PROPERTY
VdW12
SciTegic.value.DoubleValue
6.270

@<SCITEGIC>MOL_PROPERTY
Bond
SciTegic.value.DoubleValue
0.200

@<SCITEGIC>MOL_PROPERTY
Angle
SciTegic.value.DoubleValue
1.675

@<SCITEGIC>MOL_PROPERTY
Pdih
SciTegic.value.DoubleValue
3.070

@<SCITEGIC>MOL_PROPERTY
Idih
SciTegic.value.DoubleValue
0.000

@<SCITEGIC>MOL_PROPERTY
Tether
SciTegic.value.DoubleValue
0.000

@<TRIPOS>MOLECULE
guest-s10_confgen4.mol2 : confsearch ligand conformer 774
          20          19           1
SMALL
USER_CHARGES
 
@<TRIPOS>ATOM
       1    N1      20.114652   17.938824   21.582441 N.4        1 MOL1        -0.5937
       2    H1      20.094845   17.031017   22.053473 H          1 MOL1         0.3684
       3    H2      20.676391   17.831009   20.733635 H          1 MOL1         0.3684
       4    H3      19.157915   18.154927   21.294449 H          1 MOL1         0.3684
       5    C1      20.670039   19.010601   22.480266 C.3        1 MOL1         0.1270
       6    H4      20.704994   19.934866   21.895248 H          1 MOL1         0.0960
       7    C2      22.106352   18.650085   22.895948 C.3        1 MOL1        -0.2382
       8    H5      22.126788   17.735170   23.501233 H          1 MOL1         0.1009
       9    H6      22.558215   19.458901   23.483556 H          1 MOL1         0.1009
      10    H7      22.738012   18.490391   22.013429 H          1 MOL1         0.1009
      11    C3      19.793056   19.259624   23.730516 C.3        1 MOL1        -0.1392
      12    H8      19.528366   18.302486   24.198918 H          1 MOL1         0.0998
      13    H9      20.390955   19.802256   24.474930 H          1 MOL1         0.0998
      14    C4      18.514595   20.099246   23.471329 C.3        1 MOL1        -0.1302
      15    H10     18.791813   21.074209   23.046322 H          1 MOL1         0.0998
      16    H11     18.044569   20.315025   24.441144 H          1 MOL1         0.0998
      17    C5      17.464813   19.420122   22.562507 C.3        1 MOL1        -0.2317
      18    H12     16.520107   19.978634   22.592197 H          1 MOL1         0.1009
      19    H13     17.254379   18.394353   22.892402 H          1 MOL1         0.1009
      20    H14     17.789536   19.398525   21.515832 H          1 MOL1         0.1009
@<TRIPOS>BOND
    1     1     2    1
    2     1     3    1
    3     1     4    1
    4     1     5    1
    5     5     6    1
    6     5     7    1
    7     7     8    1
    8     7     9    1
    9     7    10    1
   10     5    11    1
   11    11    12    1
   12    11    13    1
   13    11    14    1
   14    14    15    1
   15    14    16    1
   16    14    17    1
   17    17    18    1
   18    17    19    1
   19    17    20    1
@<TRIPOS>SUBSTRUCTURE
       1 MOL1            1 RESIDUE      1      MOL     
@<SCITEGIC>MOL_PROPERTY
VConf Rank
SciTegic.value.IntegerValue
774

@<SCITEGIC>MOL_PROPERTY
Conf_Id
SciTegic.value.IntegerValue
54

@<SCITEGIC>MOL_PROPERTY
Delta U+W
SciTegic.value.DoubleValue
2.752

@<SCITEGIC>MOL_PROPERTY
U+W
SciTegic.value.DoubleValue
-33.525

@<SCITEGIC>MOL_PROPERTY
Grad RMS
SciTegic.value.DoubleValue
0.000000

@<SCITEGIC>MOL_PROPERTY
U
SciTegic.value.DoubleValue
24.337

@<SCITEGIC>MOL_PROPERTY
W
SciTegic.value.DoubleValue
-57.862

@<SCITEGIC>MOL_PROPERTY
W(PB)
SciTegic.value.DoubleValue
-59.764

@<SCITEGIC>MOL_PROPERTY
W(SA)
SciTegic.value.DoubleValue
1.901

@<SCITEGIC>MOL_PROPERTY
Valence
SciTegic.value.DoubleValue
3.593

@<SCITEGIC>MOL_PROPERTY
Coulomb
SciTegic.value.DoubleValue
20.067

@<SCITEGIC>MOL_PROPERTY
VdW
SciTegic.value.DoubleValue
0.677

@<SCITEGIC>MOL_PROPERTY
VdW6
SciTegic.value.DoubleValue
-5.466

@<SCITEGIC>MOL_PROPERTY
VdW12
SciTegic.value.DoubleValue
6.144

@<SCITEGIC>MOL_PROPERTY
Bond
SciTegic.value.DoubleValue
0.191

@<SCITEGIC>MOL_PROPERTY
Angle
SciTegic.value.DoubleValue
1.557

@<SCITEGIC>MOL_PROPERTY
Pdih
SciTegic.value.DoubleValue
1.845

@<SCITEGIC>MOL_PROPERTY
Idih
SciTegic.value.DoubleValue
0.000

@<SCITEGIC>MOL_PROPERTY
Tether
SciTegic.value.DoubleValue
0.000

@<TRIPOS>MOLECULE
guest-s10_confgen4.mol2 : confsearch ligand conformer 775
          20          19           1
SMALL
USER_CHARGES
 
@<TRIPOS>ATOM
       1    N1      19.677711   17.453865   24.113930 N.4        1 MOL1        -0.5937
       2    H1      19.111793   16.680815   24.474187 H          1 MOL1         0.3684
       3    H2      20.220691   17.824132   24.898651 H          1 MOL1         0.3684
       4    H3      20.339258   17.060185   23.441012 H          1 MOL1         0.3684
       5    C1      18.819831   18.517463   23.484098 C.3        1 MOL1         0.1270
       6    H4      18.139924   18.862274   24.269499 H          1 MOL1         0.0960
       7    C2      17.959276   17.933705   22.349411 C.3        1 MOL1        -0.2382
       8    H5      17.336733   18.712452   21.891736 H          1 MOL1         0.1009
       9    H6      17.288106   17.157812   22.737493 H          1 MOL1         0.1009
      10    H7      18.575645   17.480398   21.564145 H          1 MOL1         0.1009
      11    C3      19.641594   19.743699   23.019232 C.3        1 MOL1        -0.1392
      12    H8      18.949715   20.514532   22.654736 H          1 MOL1         0.0998
      13    H9      20.141977   20.178131   23.894613 H          1 MOL1         0.0998
      14    C4      20.698922   19.446334   21.924711 C.3        1 MOL1        -0.1302
      15    H10     20.211184   19.058711   21.020348 H          1 MOL1         0.0998
      16    H11     21.394206   18.669490   22.270046 H          1 MOL1         0.0998
      17    C5      21.502314   20.711642   21.554733 C.3        1 MOL1        -0.2317
      18    H12     22.244657   20.486309   20.778062 H          1 MOL1         0.1009
      19    H13     22.038100   21.108928   22.426696 H          1 MOL1         0.1009
      20    H14     20.842439   21.500425   21.170531 H          1 MOL1         0.1009
@<TRIPOS>BOND
    1     1     2    1
    2     1     3    1
    3     1     4    1
    4     1     5    1
    5     5     6    1
    6     5     7    1
    7     7     8    1
    8     7     9    1
    9     7    10    1
   10     5    11    1
   11    11    12    1
   12    11    13    1
   13    11    14    1
   14    14    15    1
   15    14    16    1
   16    14    17    1
   17    17    18    1
   18    17    19    1
   19    17    20    1
@<TRIPOS>SUBSTRUCTURE
       1 MOL1            1 RESIDUE      1      MOL     
@<SCITEGIC>MOL_PROPERTY
VConf Rank
SciTegic.value.IntegerValue
775

@<SCITEGIC>MOL_PROPERTY
Conf_Id
SciTegic.value.IntegerValue
63

@<SCITEGIC>MOL_PROPERTY
Delta U+W
SciTegic.value.DoubleValue
0.420

@<SCITEGIC>MOL_PROPERTY
U+W
SciTegic.value.DoubleValue
-35.856

@<SCITEGIC>MOL_PROPERTY
Grad RMS
SciTegic.value.DoubleValue
0.000000

@<SCITEGIC>MOL_PROPERTY
U
SciTegic.value.DoubleValue
22.625

@<SCITEGIC>MOL_PROPERTY
W
SciTegic.value.DoubleValue
-58.481

@<SCITEGIC>MOL_PROPERTY
W(PB)
SciTegic.value.DoubleValue
-60.400

@<SCITEGIC>MOL_PROPERTY
W(SA)
SciTegic.value.DoubleValue
1.919

@<SCITEGIC>MOL_PROPERTY
Valence
SciTegic.value.DoubleValue
2.404

@<SCITEGIC>MOL_PROPERTY
Coulomb
SciTegic.value.DoubleValue
19.464

@<SCITEGIC>MOL_PROPERTY
VdW
SciTegic.value.DoubleValue
0.757

@<SCITEGIC>MOL_PROPERTY
VdW6
SciTegic.value.DoubleValue
-5.074

@<SCITEGIC>MOL_PROPERTY
VdW12
SciTegic.value.DoubleValue
5.830

@<SCITEGIC>MOL_PROPERTY
Bond
SciTegic.value.DoubleValue
0.172

@<SCITEGIC>MOL_PROPERTY
Angle
SciTegic.value.DoubleValue
1.207

@<SCITEGIC>MOL_PROPERTY
Pdih
SciTegic.value.DoubleValue
1.025

@<SCITEGIC>MOL_PROPERTY
Idih
SciTegic.value.DoubleValue
0.000

@<SCITEGIC>MOL_PROPERTY
Tether
SciTegic.value.DoubleValue
0.000

@<TRIPOS>MOLECULE
guest-s10_confgen4.mol2 : confsearch ligand conformer 776
          20          19           1
SMALL
USER_CHARGES
 
@<TRIPOS>ATOM
       1    N1      20.717382   18.571697   24.142069 N.4        1 MOL1        -0.5937
       2    H1      20.138283   17.730872   24.209396 H          1 MOL1         0.3684
       3    H2      20.491690   19.166151   24.943386 H          1 MOL1         0.3684
       4    H3      21.693162   18.279761   24.242903 H          1 MOL1         0.3684
       5    C1      20.488007   19.290798   22.840355 C.3        1 MOL1         0.1270
       6    H4      20.754220   18.590610   22.042862 H          1 MOL1         0.0960
       7    C2      21.408936   20.516630   22.727486 C.3        1 MOL1        -0.2382
       8    H5      22.461197   20.222020   22.823345 H          1 MOL1         0.1009
       9    H6      21.187803   21.253496   23.509715 H          1 MOL1         0.1009
      10    H7      21.288379   21.006249   21.753134 H          1 MOL1         0.1009
      11    C3      19.012061   19.706991   22.647094 C.3        1 MOL1        -0.1392
      12    H8      18.730188   20.423713   23.429839 H          1 MOL1         0.0998
      13    H9      18.913591   20.241133   21.692671 H          1 MOL1         0.0998
      14    C4      18.011574   18.523450   22.659518 C.3        1 MOL1        -0.1302
      15    H10     16.995720   18.919128   22.520294 H          1 MOL1         0.0998
      16    H11     18.012656   18.035170   23.643462 H          1 MOL1         0.0998
      17    C5      18.296756   17.477392   21.557791 C.3        1 MOL1        -0.2317
      18    H12     18.300621   17.942748   20.563502 H          1 MOL1         0.1009
      19    H13     17.524238   16.697467   21.558896 H          1 MOL1         0.1009
      20    H14     19.264896   16.983658   21.708882 H          1 MOL1         0.1009
@<TRIPOS>BOND
    1     1     2    1
    2     1     3    1
    3     1     4    1
    4     1     5    1
    5     5     6    1
    6     5     7    1
    7     7     8    1
    8     7     9    1
    9     7    10    1
   10     5    11    1
   11    11    12    1
   12    11    13    1
   13    11    14    1
   14    14    15    1
   15    14    16    1
   16    14    17    1
   17    17    18    1
   18    17    19    1
   19    17    20    1
@<TRIPOS>SUBSTRUCTURE
       1 MOL1            1 RESIDUE      1      MOL     
@<SCITEGIC>MOL_PROPERTY
VConf Rank
SciTegic.value.IntegerValue
776

@<SCITEGIC>MOL_PROPERTY
Conf_Id
SciTegic.value.IntegerValue
50

@<SCITEGIC>MOL_PROPERTY
Delta U+W
SciTegic.value.DoubleValue
0.466

@<SCITEGIC>MOL_PROPERTY
U+W
SciTegic.value.DoubleValue
-35.811

@<SCITEGIC>MOL_PROPERTY
Grad RMS
SciTegic.value.DoubleValue
0.000000

@<SCITEGIC>MOL_PROPERTY
U
SciTegic.value.DoubleValue
22.369

@<SCITEGIC>MOL_PROPERTY
W
SciTegic.value.DoubleValue
-58.180

@<SCITEGIC>MOL_PROPERTY
W(PB)
SciTegic.value.DoubleValue
-60.103

@<SCITEGIC>MOL_PROPERTY
W(SA)
SciTegic.value.DoubleValue
1.923

@<SCITEGIC>MOL_PROPERTY
Valence
SciTegic.value.DoubleValue
2.168

@<SCITEGIC>MOL_PROPERTY
Coulomb
SciTegic.value.DoubleValue
19.636

@<SCITEGIC>MOL_PROPERTY
VdW
SciTegic.value.DoubleValue
0.566

@<SCITEGIC>MOL_PROPERTY
VdW6
SciTegic.value.DoubleValue
-5.263

@<SCITEGIC>MOL_PROPERTY
VdW12
SciTegic.value.DoubleValue
5.829

@<SCITEGIC>MOL_PROPERTY
Bond
SciTegic.value.DoubleValue
0.162

@<SCITEGIC>MOL_PROPERTY
Angle
SciTegic.value.DoubleValue
1.066

@<SCITEGIC>MOL_PROPERTY
Pdih
SciTegic.value.DoubleValue
0.939

@<SCITEGIC>MOL_PROPERTY
Idih
SciTegic.value.DoubleValue
0.000

@<SCITEGIC>MOL_PROPERTY
Tether
SciTegic.value.DoubleValue
0.000

@<TRIPOS>MOLECULE
guest-s10_confgen4.mol2 : confsearch ligand conformer 777
          20          19           1
SMALL
USER_CHARGES
 
@<TRIPOS>ATOM
       1    N1      20.211692   21.126283   23.048573 N.4        1 MOL1        -0.5937
       2    H1      19.523761   21.466285   23.726176 H          1 MOL1         0.3684
       3    H2      20.019745   21.589956   22.156925 H          1 MOL1         0.3684
       4    H3      21.131213   21.445244   23.365560 H          1 MOL1         0.3684
       5    C1      20.164707   19.628191   22.914050 C.3        1 MOL1         0.1270
       6    H4      20.376869   19.226104   23.909577 H          1 MOL1         0.0960
       7    C2      21.262588   19.151604   21.944778 C.3        1 MOL1        -0.2382
       8    H5      21.114159   19.571615   20.942169 H          1 MOL1         0.1009
       9    H6      21.273588   18.060105   21.853689 H          1 MOL1         0.1009
      10    H7      22.252679   19.463339   22.299277 H          1 MOL1         0.1009
      11    C3      18.763480   19.130171   22.481881 C.3        1 MOL1        -0.1392
      12    H8      18.028700   19.926796   22.658402 H          1 MOL1         0.0998
      13    H9      18.740203   18.941286   21.400311 H          1 MOL1         0.0998
      14    C4      18.278009   17.876222   23.252407 C.3        1 MOL1        -0.1302
      15    H10     17.251058   17.645771   22.935866 H          1 MOL1         0.0998
      16    H11     18.222278   18.103696   24.326293 H          1 MOL1         0.0998
      17    C5      19.156466   16.623627   23.038971 C.3        1 MOL1        -0.2317
      18    H12     19.267158   16.394364   21.971163 H          1 MOL1         0.1009
      19    H13     18.701942   15.749637   23.523317 H          1 MOL1         0.1009
      20    H14     20.155385   16.755751   23.472944 H          1 MOL1         0.1009
@<TRIPOS>BOND
    1     1     2    1
    2     1     3    1
    3     1     4    1
    4     1     5    1
    5     5     6    1
    6     5     7    1
    7     7     8    1
    8     7     9    1
    9     7    10    1
   10     5    11    1
   11    11    12    1
   12    11    13    1
   13    11    14    1
   14    14    15    1
   15    14    16    1
   16    14    17    1
   17    17    18    1
   18    17    19    1
   19    17    20    1
@<TRIPOS>SUBSTRUCTURE
       1 MOL1            1 RESIDUE      1      MOL     
@<SCITEGIC>MOL_PROPERTY
VConf Rank
SciTegic.value.IntegerValue
777

@<SCITEGIC>MOL_PROPERTY
Conf_Id
SciTegic.value.IntegerValue
3

@<SCITEGIC>MOL_PROPERTY
Delta U+W
SciTegic.value.DoubleValue
3.093

@<SCITEGIC>MOL_PROPERTY
U+W
SciTegic.value.DoubleValue
-33.184

@<SCITEGIC>MOL_PROPERTY
Grad RMS
SciTegic.value.DoubleValue
0.000000

@<SCITEGIC>MOL_PROPERTY
U
SciTegic.value.DoubleValue
25.256

@<SCITEGIC>MOL_PROPERTY
W
SciTegic.value.DoubleValue
-58.439

@<SCITEGIC>MOL_PROPERTY
W(PB)
SciTegic.value.DoubleValue
-60.337

@<SCITEGIC>MOL_PROPERTY
W(SA)
SciTegic.value.DoubleValue
1.898

@<SCITEGIC>MOL_PROPERTY
Valence
SciTegic.value.DoubleValue
4.963

@<SCITEGIC>MOL_PROPERTY
Coulomb
SciTegic.value.DoubleValue
19.511

@<SCITEGIC>MOL_PROPERTY
VdW
SciTegic.value.DoubleValue
0.782

@<SCITEGIC>MOL_PROPERTY
VdW6
SciTegic.value.DoubleValue
-5.429

@<SCITEGIC>MOL_PROPERTY
VdW12
SciTegic.value.DoubleValue
6.211

@<SCITEGIC>MOL_PROPERTY
Bond
SciTegic.value.DoubleValue
0.174

@<SCITEGIC>MOL_PROPERTY
Angle
SciTegic.value.DoubleValue
1.377

@<SCITEGIC>MOL_PROPERTY
Pdih
SciTegic.value.DoubleValue
3.412

@<SCITEGIC>MOL_PROPERTY
Idih
SciTegic.value.DoubleValue
0.000

@<SCITEGIC>MOL_PROPERTY
Tether
SciTegic.value.DoubleValue
0.000

@<TRIPOS>MOLECULE
guest-s10_confgen4.mol2 : confsearch ligand conformer 778
          20          19           1
SMALL
USER_CHARGES
 
@<TRIPOS>ATOM
       1    N1      19.294494   19.527416   20.593462 N.4        1 MOL1        -0.5937
       2    H1      18.356971   19.580617   20.186208 H          1 MOL1         0.3684
       3    H2      19.815444   18.824413   20.062210 H          1 MOL1         0.3684
       4    H3      19.747376   20.430584   20.432619 H          1 MOL1         0.3684
       5    C1      19.240546   19.189336   22.058103 C.3        1 MOL1         0.1270
       6    H4      18.740955   18.218628   22.130431 H          1 MOL1         0.0960
       7    C2      18.395504   20.228739   22.816817 C.3        1 MOL1        -0.2382
       8    H5      18.229438   19.923823   23.856521 H          1 MOL1         0.1009
       9    H6      17.409186   20.340364   22.350073 H          1 MOL1         0.1009
      10    H7      18.883554   21.211227   22.820265 H          1 MOL1         0.1009
      11    C3      20.662042   19.049879   22.653359 C.3        1 MOL1        -0.1392
      12    H8      21.239762   18.359138   22.025153 H          1 MOL1         0.0998
      13    H9      21.177159   20.017834   22.594608 H          1 MOL1         0.0998
      14    C4      20.712770   18.537349   24.115495 C.3        1 MOL1        -0.1302
      15    H10     20.258604   19.272374   24.793541 H          1 MOL1         0.0998
      16    H11     21.764629   18.455402   24.423256 H          1 MOL1         0.0998
      17    C5      20.028724   17.163606   24.300050 C.3        1 MOL1        -0.2317
      18    H12     20.464929   16.411886   23.629379 H          1 MOL1         0.1009
      19    H13     18.951393   17.219320   24.099257 H          1 MOL1         0.1009
      20    H14     20.154827   16.806531   25.330397 H          1 MOL1         0.1009
@<TRIPOS>BOND
    1     1     2    1
    2     1     3    1
    3     1     4    1
    4     1     5    1
    5     5     6    1
    6     5     7    1
    7     7     8    1
    8     7     9    1
    9     7    10    1
   10     5    11    1
   11    11    12    1
   12    11    13    1
   13    11    14    1
   14    14    15    1
   15    14    16    1
   16    14    17    1
   17    17    18    1
   18    17    19    1
   19    17    20    1
@<TRIPOS>SUBSTRUCTURE
       1 MOL1            1 RESIDUE      1      MOL     
@<SCITEGIC>MOL_PROPERTY
VConf Rank
SciTegic.value.IntegerValue
778

@<SCITEGIC>MOL_PROPERTY
Conf_Id
SciTegic.value.IntegerValue
64

@<SCITEGIC>MOL_PROPERTY
Delta U+W
SciTegic.value.DoubleValue
0.544

@<SCITEGIC>MOL_PROPERTY
U+W
SciTegic.value.DoubleValue
-35.732

@<SCITEGIC>MOL_PROPERTY
Grad RMS
SciTegic.value.DoubleValue
0.000000

@<SCITEGIC>MOL_PROPERTY
U
SciTegic.value.DoubleValue
22.800

@<SCITEGIC>MOL_PROPERTY
W
SciTegic.value.DoubleValue
-58.532

@<SCITEGIC>MOL_PROPERTY
W(PB)
SciTegic.value.DoubleValue
-60.437

@<SCITEGIC>MOL_PROPERTY
W(SA)
SciTegic.value.DoubleValue
1.905

@<SCITEGIC>MOL_PROPERTY
Valence
SciTegic.value.DoubleValue
2.662

@<SCITEGIC>MOL_PROPERTY
Coulomb
SciTegic.value.DoubleValue
19.485

@<SCITEGIC>MOL_PROPERTY
VdW
SciTegic.value.DoubleValue
0.653

@<SCITEGIC>MOL_PROPERTY
VdW6
SciTegic.value.DoubleValue
-5.460

@<SCITEGIC>MOL_PROPERTY
VdW12
SciTegic.value.DoubleValue
6.113

@<SCITEGIC>MOL_PROPERTY
Bond
SciTegic.value.DoubleValue
0.174

@<SCITEGIC>MOL_PROPERTY
Angle
SciTegic.value.DoubleValue
1.378

@<SCITEGIC>MOL_PROPERTY
Pdih
SciTegic.value.DoubleValue
1.109

@<SCITEGIC>MOL_PROPERTY
Idih
SciTegic.value.DoubleValue
0.000

@<SCITEGIC>MOL_PROPERTY
Tether
SciTegic.value.DoubleValue
0.000

@<TRIPOS>MOLECULE
guest-s10_confgen4.mol2 : confsearch ligand conformer 779
          20          19           1
SMALL
USER_CHARGES
 
@<TRIPOS>ATOM
       1    N1      19.752266   20.220379   21.034428 N.4        1 MOL1        -0.5937
       2    H1      19.643793   19.306468   20.589149 H          1 MOL1         0.3684
       3    H2      20.473703   20.729060   20.516369 H          1 MOL1         0.3684
       4    H3      18.873085   20.729366   20.909397 H          1 MOL1         0.3684
       5    C1      20.111726   20.085186   22.489538 C.3        1 MOL1         0.1270
       6    H4      20.215417   21.106843   22.868256 H          1 MOL1         0.0960
       7    C2      21.474718   19.393487   22.655459 C.3        1 MOL1        -0.2382
       8    H5      21.486088   18.408193   22.175067 H          1 MOL1         0.1009
       9    H6      21.722983   19.268147   23.716587 H          1 MOL1         0.1009
      10    H7      22.268185   19.996411   22.197351 H          1 MOL1         0.1009
      11    C3      18.987058   19.409989   23.314262 C.3        1 MOL1        -0.1392
      12    H8      19.219915   19.492991   24.384021 H          1 MOL1         0.0998
      13    H9      18.074397   20.003401   23.171457 H          1 MOL1         0.0998
      14    C4      18.666956   17.931542   22.957953 C.3        1 MOL1        -0.1302
      15    H10     18.854589   17.735370   21.894144 H          1 MOL1         0.0998
      16    H11     17.590914   17.764862   23.107395 H          1 MOL1         0.0998
      17    C5      19.428710   16.906520   23.830768 C.3        1 MOL1        -0.2317
      18    H12     20.514151   16.979674   23.702540 H          1 MOL1         0.1009
      19    H13     19.133109   15.883079   23.565904 H          1 MOL1         0.1009
      20    H14     19.202853   17.051976   24.895134 H          1 MOL1         0.1009
@<TRIPOS>BOND
    1     1     2    1
    2     1     3    1
    3     1     4    1
    4     1     5    1
    5     5     6    1
    6     5     7    1
    7     7     8    1
    8     7     9    1
    9     7    10    1
   10     5    11    1
   11    11    12    1
   12    11    13    1
   13    11    14    1
   14    14    15    1
   15    14    16    1
   16    14    17    1
   17    17    18    1
   18    17    19    1
   19    17    20    1
@<TRIPOS>SUBSTRUCTURE
       1 MOL1            1 RESIDUE      1      MOL     
@<SCITEGIC>MOL_PROPERTY
VConf Rank
SciTegic.value.IntegerValue
779

@<SCITEGIC>MOL_PROPERTY
Conf_Id
SciTegic.value.IntegerValue
35

@<SCITEGIC>MOL_PROPERTY
Delta U+W
SciTegic.value.DoubleValue
3.004

@<SCITEGIC>MOL_PROPERTY
U+W
SciTegic.value.DoubleValue
-33.272

@<SCITEGIC>MOL_PROPERTY
Grad RMS
SciTegic.value.DoubleValue
0.000000

@<SCITEGIC>MOL_PROPERTY
U
SciTegic.value.DoubleValue
25.367

@<SCITEGIC>MOL_PROPERTY
W
SciTegic.value.DoubleValue
-58.639

@<SCITEGIC>MOL_PROPERTY
W(PB)
SciTegic.value.DoubleValue
-60.512

@<SCITEGIC>MOL_PROPERTY
W(SA)
SciTegic.value.DoubleValue
1.873

@<SCITEGIC>MOL_PROPERTY
Valence
SciTegic.value.DoubleValue
4.943

@<SCITEGIC>MOL_PROPERTY
Coulomb
SciTegic.value.DoubleValue
19.661

@<SCITEGIC>MOL_PROPERTY
VdW
SciTegic.value.DoubleValue
0.764

@<SCITEGIC>MOL_PROPERTY
VdW6
SciTegic.value.DoubleValue
-5.871

@<SCITEGIC>MOL_PROPERTY
VdW12
SciTegic.value.DoubleValue
6.636

@<SCITEGIC>MOL_PROPERTY
Bond
SciTegic.value.DoubleValue
0.230

@<SCITEGIC>MOL_PROPERTY
Angle
SciTegic.value.DoubleValue
1.857

@<SCITEGIC>MOL_PROPERTY
Pdih
SciTegic.value.DoubleValue
2.855

@<SCITEGIC>MOL_PROPERTY
Idih
SciTegic.value.DoubleValue
0.000

@<SCITEGIC>MOL_PROPERTY
Tether
SciTegic.value.DoubleValue
0.000

@<TRIPOS>MOLECULE
guest-s10_confgen4.mol2 : confsearch ligand conformer 780
          20          19           1
SMALL
USER_CHARGES
 
@<TRIPOS>ATOM
       1    N1      21.196191   17.930179   23.098289 N.4        1 MOL1        -0.5937
       2    H1      21.371323   16.966425   23.395121 H          1 MOL1         0.3684
       3    H2      22.039981   18.470973   23.305995 H          1 MOL1         0.3684
       4    H3      21.078039   17.925356   22.083393 H          1 MOL1         0.3684
       5    C1      19.988802   18.508255   23.784221 C.3        1 MOL1         0.1270
       6    H4      20.227203   18.491303   24.852305 H          1 MOL1         0.0960
       7    C2      18.747693   17.621934   23.577832 C.3        1 MOL1        -0.2382
       8    H5      18.500029   17.513053   22.515240 H          1 MOL1         0.1009
       9    H6      17.876897   18.046175   24.092763 H          1 MOL1         0.1009
      10    H7      18.919615   16.618791   23.986628 H          1 MOL1         0.1009
      11    C3      19.726896   19.988928   23.406962 C.3        1 MOL1        -0.1392
      12    H8      19.051698   20.410117   24.163434 H          1 MOL1         0.0998
      13    H9      20.663686   20.552410   23.507604 H          1 MOL1         0.0998
      14    C4      19.107665   20.269752   22.009004 C.3        1 MOL1        -0.1302
      15    H10     18.946369   21.353295   21.921004 H          1 MOL1         0.0998
      16    H11     18.109533   19.816862   21.936511 H          1 MOL1         0.0998
      17    C5      19.974881   19.810321   20.814943 C.3        1 MOL1        -0.2317
      18    H12     21.005027   20.178692   20.905742 H          1 MOL1         0.1009
      19    H13     19.563984   20.200731   19.874776 H          1 MOL1         0.1009
      20    H14     19.995096   18.717994   20.727304 H          1 MOL1         0.1009
@<TRIPOS>BOND
    1     1     2    1
    2     1     3    1
    3     1     4    1
    4     1     5    1
    5     5     6    1
    6     5     7    1
    7     7     8    1
    8     7     9    1
    9     7    10    1
   10     5    11    1
   11    11    12    1
   12    11    13    1
   13    11    14    1
   14    14    15    1
   15    14    16    1
   16    14    17    1
   17    17    18    1
   18    17    19    1
   19    17    20    1
@<TRIPOS>SUBSTRUCTURE
       1 MOL1            1 RESIDUE      1      MOL     
@<SCITEGIC>MOL_PROPERTY
VConf Rank
SciTegic.value.IntegerValue
780

@<SCITEGIC>MOL_PROPERTY
Conf_Id
SciTegic.value.IntegerValue
55

@<SCITEGIC>MOL_PROPERTY
Delta U+W
SciTegic.value.DoubleValue
2.767

@<SCITEGIC>MOL_PROPERTY
U+W
SciTegic.value.DoubleValue
-33.509

@<SCITEGIC>MOL_PROPERTY
Grad RMS
SciTegic.value.DoubleValue
0.000000

@<SCITEGIC>MOL_PROPERTY
U
SciTegic.value.DoubleValue
24.552

@<SCITEGIC>MOL_PROPERTY
W
SciTegic.value.DoubleValue
-58.061

@<SCITEGIC>MOL_PROPERTY
W(PB)
SciTegic.value.DoubleValue
-59.930

@<SCITEGIC>MOL_PROPERTY
W(SA)
SciTegic.value.DoubleValue
1.869

@<SCITEGIC>MOL_PROPERTY
Valence
SciTegic.value.DoubleValue
3.726

@<SCITEGIC>MOL_PROPERTY
Coulomb
SciTegic.value.DoubleValue
20.219

@<SCITEGIC>MOL_PROPERTY
VdW
SciTegic.value.DoubleValue
0.606

@<SCITEGIC>MOL_PROPERTY
VdW6
SciTegic.value.DoubleValue
-6.395

@<SCITEGIC>MOL_PROPERTY
VdW12
SciTegic.value.DoubleValue
7.001

@<SCITEGIC>MOL_PROPERTY
Bond
SciTegic.value.DoubleValue
0.241

@<SCITEGIC>MOL_PROPERTY
Angle
SciTegic.value.DoubleValue
2.098

@<SCITEGIC>MOL_PROPERTY
Pdih
SciTegic.value.DoubleValue
1.387

@<SCITEGIC>MOL_PROPERTY
Idih
SciTegic.value.DoubleValue
0.000

@<SCITEGIC>MOL_PROPERTY
Tether
SciTegic.value.DoubleValue
0.000

@<TRIPOS>MOLECULE
guest-s10_confgen4.mol2 : confsearch ligand conformer 781
          20          19           1
SMALL
USER_CHARGES
 
@<TRIPOS>ATOM
       1    N1      19.746888   16.986716   22.825427 N.4        1 MOL1        -0.5937
       2    H1      20.636582   16.880378   23.319070 H          1 MOL1         0.3684
       3    H2      19.573090   16.114706   22.318428 H          1 MOL1         0.3684
       4    H3      19.012407   17.078950   23.531551 H          1 MOL1         0.3684
       5    C1      19.770387   18.169473   21.895053 C.3        1 MOL1         0.1270
       6    H4      18.787685   18.212068   21.415086 H          1 MOL1         0.0960
       7    C2      20.832337   17.974501   20.800422 C.3        1 MOL1        -0.2382
       8    H5      20.650706   17.046948   20.243719 H          1 MOL1         0.1009
       9    H6      21.840807   17.923596   21.229596 H          1 MOL1         0.1009
      10    H7      20.808533   18.803102   20.081747 H          1 MOL1         0.1009
      11    C3      20.003240   19.503986   22.637349 C.3        1 MOL1        -0.1392
      12    H8      20.974827   19.478208   23.148495 H          1 MOL1         0.0998
      13    H9      20.059815   20.314823   21.898830 H          1 MOL1         0.0998
      14    C4      18.885132   19.833888   23.655444 C.3        1 MOL1        -0.1302
      15    H10     18.845444   19.064730   24.438545 H          1 MOL1         0.0998
      16    H11     17.909197   19.824056   23.149778 H          1 MOL1         0.0998
      17    C5      19.104368   21.211837   24.316122 C.3        1 MOL1        -0.2317
      18    H12     20.059655   21.243387   24.856202 H          1 MOL1         0.1009
      19    H13     18.303929   21.428718   25.035388 H          1 MOL1         0.1009
      20    H14     19.108976   22.013857   23.566472 H          1 MOL1         0.1009
@<TRIPOS>BOND
    1     1     2    1
    2     1     3    1
    3     1     4    1
    4     1     5    1
    5     5     6    1
    6     5     7    1
    7     7     8    1
    8     7     9    1
    9     7    10    1
   10     5    11    1
   11    11    12    1
   12    11    13    1
   13    11    14    1
   14    14    15    1
   15    14    16    1
   16    14    17    1
   17    17    18    1
   18    17    19    1
   19    17    20    1
@<TRIPOS>SUBSTRUCTURE
       1 MOL1            1 RESIDUE      1      MOL     
@<SCITEGIC>MOL_PROPERTY
VConf Rank
SciTegic.value.IntegerValue
781

@<SCITEGIC>MOL_PROPERTY
Conf_Id
SciTegic.value.IntegerValue
74

@<SCITEGIC>MOL_PROPERTY
Delta U+W
SciTegic.value.DoubleValue
0.000

@<SCITEGIC>MOL_PROPERTY
U+W
SciTegic.value.DoubleValue
-36.276

@<SCITEGIC>MOL_PROPERTY
Grad RMS
SciTegic.value.DoubleValue
0.000000

@<SCITEGIC>MOL_PROPERTY
U
SciTegic.value.DoubleValue
22.080

@<SCITEGIC>MOL_PROPERTY
W
SciTegic.value.DoubleValue
-58.356

@<SCITEGIC>MOL_PROPERTY
W(PB)
SciTegic.value.DoubleValue
-60.289

@<SCITEGIC>MOL_PROPERTY
W(SA)
SciTegic.value.DoubleValue
1.932

@<SCITEGIC>MOL_PROPERTY
Valence
SciTegic.value.DoubleValue
1.885

@<SCITEGIC>MOL_PROPERTY
Coulomb
SciTegic.value.DoubleValue
19.559

@<SCITEGIC>MOL_PROPERTY
VdW
SciTegic.value.DoubleValue
0.637

@<SCITEGIC>MOL_PROPERTY
VdW6
SciTegic.value.DoubleValue
-4.482

@<SCITEGIC>MOL_PROPERTY
VdW12
SciTegic.value.DoubleValue
5.119

@<SCITEGIC>MOL_PROPERTY
Bond
SciTegic.value.DoubleValue
0.136

@<SCITEGIC>MOL_PROPERTY
Angle
SciTegic.value.DoubleValue
0.867

@<SCITEGIC>MOL_PROPERTY
Pdih
SciTegic.value.DoubleValue
0.882

@<SCITEGIC>MOL_PROPERTY
Idih
SciTegic.value.DoubleValue
0.000

@<SCITEGIC>MOL_PROPERTY
Tether
SciTegic.value.DoubleValue
0.000

@<TRIPOS>MOLECULE
guest-s10_confgen4.mol2 : confsearch ligand conformer 782
          20          19           1
SMALL
USER_CHARGES
 
@<TRIPOS>ATOM
       1    N1      19.593361   21.222614   22.044467 N.4        1 MOL1        -0.5937
       2    H1      19.313450   21.680212   22.916311 H          1 MOL1         0.3684
       3    H2      18.759109   21.145913   21.457213 H          1 MOL1         0.3684
       4    H3      20.243877   21.852957   21.567836 H          1 MOL1         0.3684
       5    C1      20.216300   19.877235   22.298177 C.3        1 MOL1         0.1270
       6    H4      21.094510   20.057792   22.925880 H          1 MOL1         0.0960
       7    C2      20.686487   19.248299   20.973729 C.3        1 MOL1        -0.2382
       8    H5      21.327988   19.945701   20.421165 H          1 MOL1         0.1009
       9    H6      19.834778   18.989324   20.332555 H          1 MOL1         0.1009
      10    H7      21.273521   18.339592   21.149414 H          1 MOL1         0.1009
      11    C3      19.250461   18.950808   23.073017 C.3        1 MOL1        -0.1392
      12    H8      18.869943   19.497676   23.945831 H          1 MOL1         0.0998
      13    H9      18.378306   18.719393   22.447204 H          1 MOL1         0.0998
      14    C4      19.904047   17.635858   23.563826 C.3        1 MOL1        -0.1302
      15    H10     20.812981   17.865343   24.137624 H          1 MOL1         0.0998
      16    H11     20.214047   17.021617   22.707959 H          1 MOL1         0.0998
      17    C5      18.937987   16.813221   24.443415 C.3        1 MOL1        -0.2317
      18    H12     18.637031   17.377616   25.335671 H          1 MOL1         0.1009
      19    H13     19.415711   15.883652   24.779228 H          1 MOL1         0.1009
      20    H14     18.030562   16.543417   23.887497 H          1 MOL1         0.1009
@<TRIPOS>BOND
    1     1     2    1
    2     1     3    1
    3     1     4    1
    4     1     5    1
    5     5     6    1
    6     5     7    1
    7     7     8    1
    8     7     9    1
    9     7    10    1
   10     5    11    1
   11    11    12    1
   12    11    13    1
   13    11    14    1
   14    14    15    1
   15    14    16    1
   16    14    17    1
   17    17    18    1
   18    17    19    1
   19    17    20    1
@<TRIPOS>SUBSTRUCTURE
       1 MOL1            1 RESIDUE      1      MOL     
@<SCITEGIC>MOL_PROPERTY
VConf Rank
SciTegic.value.IntegerValue
782

@<SCITEGIC>MOL_PROPERTY
Conf_Id
SciTegic.value.IntegerValue
80

@<SCITEGIC>MOL_PROPERTY
Delta U+W
SciTegic.value.DoubleValue
0.460

@<SCITEGIC>MOL_PROPERTY
U+W
SciTegic.value.DoubleValue
-35.817

@<SCITEGIC>MOL_PROPERTY
Grad RMS
SciTegic.value.DoubleValue
0.000000

@<SCITEGIC>MOL_PROPERTY
U
SciTegic.value.DoubleValue
22.495

@<SCITEGIC>MOL_PROPERTY
W
SciTegic.value.DoubleValue
-58.311

@<SCITEGIC>MOL_PROPERTY
W(PB)
SciTegic.value.DoubleValue
-60.259

@<SCITEGIC>MOL_PROPERTY
W(SA)
SciTegic.value.DoubleValue
1.948

@<SCITEGIC>MOL_PROPERTY
Valence
SciTegic.value.DoubleValue
2.419

@<SCITEGIC>MOL_PROPERTY
Coulomb
SciTegic.value.DoubleValue
19.304

@<SCITEGIC>MOL_PROPERTY
VdW
SciTegic.value.DoubleValue
0.772

@<SCITEGIC>MOL_PROPERTY
VdW6
SciTegic.value.DoubleValue
-4.635

@<SCITEGIC>MOL_PROPERTY
VdW12
SciTegic.value.DoubleValue
5.407

@<SCITEGIC>MOL_PROPERTY
Bond
SciTegic.value.DoubleValue
0.149

@<SCITEGIC>MOL_PROPERTY
Angle
SciTegic.value.DoubleValue
1.142

@<SCITEGIC>MOL_PROPERTY
Pdih
SciTegic.value.DoubleValue
1.129

@<SCITEGIC>MOL_PROPERTY
Idih
SciTegic.value.DoubleValue
0.000

@<SCITEGIC>MOL_PROPERTY
Tether
SciTegic.value.DoubleValue
0.000

@<TRIPOS>MOLECULE
guest-s10_confgen4.mol2 : confsearch ligand conformer 783
          20          19           1
SMALL
USER_CHARGES
 
@<TRIPOS>ATOM
       1    N1      18.027365   18.107705   21.250759 N.4        1 MOL1        -0.5937
       2    H1      18.414133   17.822587   20.346918 H          1 MOL1         0.3684
       3    H2      17.599077   19.028167   21.124235 H          1 MOL1         0.3684
       4    H3      17.275785   17.451283   21.478471 H          1 MOL1         0.3684
       5    C1      19.081295   18.131929   22.323789 C.3        1 MOL1         0.1270
       6    H4      19.473912   17.112511   22.390409 H          1 MOL1         0.0960
       7    C2      18.451534   18.491149   23.680484 C.3        1 MOL1        -0.2382
       8    H5      17.575565   17.861806   23.879859 H          1 MOL1         0.1009
       9    H6      18.130622   19.539885   23.705388 H          1 MOL1         0.1009
      10    H7      19.160485   18.323181   24.499130 H          1 MOL1         0.1009
      11    C3      20.248810   19.071586   21.934833 C.3        1 MOL1        -0.1392
      12    H8      20.605193   18.761070   20.943741 H          1 MOL1         0.0998
      13    H9      19.883485   20.099748   21.811744 H          1 MOL1         0.0998
      14    C4      21.461758   19.045124   22.902149 C.3        1 MOL1        -0.1302
      15    H10     22.383374   19.141489   22.311002 H          1 MOL1         0.0998
      16    H11     21.527989   18.070348   23.405528 H          1 MOL1         0.0998
      17    C5      21.443131   20.189148   23.943253 C.3        1 MOL1        -0.2317
      18    H12     21.453394   21.169212   23.448797 H          1 MOL1         0.1009
      19    H13     22.328490   20.134334   24.589872 H          1 MOL1         0.1009
      20    H14     20.558439   20.146795   24.588287 H          1 MOL1         0.1009
@<TRIPOS>BOND
    1     1     2    1
    2     1     3    1
    3     1     4    1
    4     1     5    1
    5     5     6    1
    6     5     7    1
    7     7     8    1
    8     7     9    1
    9     7    10    1
   10     5    11    1
   11    11    12    1
   12    11    13    1
   13    11    14    1
   14    14    15    1
   15    14    16    1
   16    14    17    1
   17    17    18    1
   18    17    19    1
   19    17    20    1
@<TRIPOS>SUBSTRUCTURE
       1 MOL1            1 RESIDUE      1      MOL     
@<SCITEGIC>MOL_PROPERTY
VConf Rank
SciTegic.value.IntegerValue
783

@<SCITEGIC>MOL_PROPERTY
Conf_Id
SciTegic.value.IntegerValue
52

@<SCITEGIC>MOL_PROPERTY
Delta U+W
SciTegic.value.DoubleValue
2.995

@<SCITEGIC>MOL_PROPERTY
U+W
SciTegic.value.DoubleValue
-33.282

@<SCITEGIC>MOL_PROPERTY
Grad RMS
SciTegic.value.DoubleValue
0.000000

@<SCITEGIC>MOL_PROPERTY
U
SciTegic.value.DoubleValue
25.224

@<SCITEGIC>MOL_PROPERTY
W
SciTegic.value.DoubleValue
-58.506

@<SCITEGIC>MOL_PROPERTY
W(PB)
SciTegic.value.DoubleValue
-60.411

@<SCITEGIC>MOL_PROPERTY
W(SA)
SciTegic.value.DoubleValue
1.905

@<SCITEGIC>MOL_PROPERTY
Valence
SciTegic.value.DoubleValue
4.945

@<SCITEGIC>MOL_PROPERTY
Coulomb
SciTegic.value.DoubleValue
19.467

@<SCITEGIC>MOL_PROPERTY
VdW
SciTegic.value.DoubleValue
0.813

@<SCITEGIC>MOL_PROPERTY
VdW6
SciTegic.value.DoubleValue
-5.458

@<SCITEGIC>MOL_PROPERTY
VdW12
SciTegic.value.DoubleValue
6.270

@<SCITEGIC>MOL_PROPERTY
Bond
SciTegic.value.DoubleValue
0.200

@<SCITEGIC>MOL_PROPERTY
Angle
SciTegic.value.DoubleValue
1.675

@<SCITEGIC>MOL_PROPERTY
Pdih
SciTegic.value.DoubleValue
3.070

@<SCITEGIC>MOL_PROPERTY
Idih
SciTegic.value.DoubleValue
0.000

@<SCITEGIC>MOL_PROPERTY
Tether
SciTegic.value.DoubleValue
0.000

@<TRIPOS>MOLECULE
guest-s10_confgen4.mol2 : confsearch ligand conformer 784
          20          19           1
SMALL
USER_CHARGES
 
@<TRIPOS>ATOM
       1    N1      18.216656   19.302689   23.183134 N.4        1 MOL1        -0.5937
       2    H1      18.196883   20.297359   23.421081 H          1 MOL1         0.3684
       3    H2      17.416094   18.861792   23.643957 H          1 MOL1         0.3684
       4    H3      18.072673   19.226689   22.173937 H          1 MOL1         0.3684
       5    C1      19.514050   18.664857   23.599291 C.3        1 MOL1         0.1270
       6    H4      19.441459   17.599818   23.358130 H          1 MOL1         0.0960
       7    C2      19.698321   18.801978   25.120147 C.3        1 MOL1        -0.2382
       8    H5      19.792849   19.854469   25.415416 H          1 MOL1         0.1009
       9    H6      20.598195   18.270938   25.454616 H          1 MOL1         0.1009
      10    H7      18.842938   18.372097   25.655737 H          1 MOL1         0.1009
      11    C3      20.736636   19.249973   22.852862 C.3        1 MOL1        -0.1392
      12    H8      20.692464   20.347012   22.864240 H          1 MOL1         0.0998
      13    H9      21.646216   18.981007   23.406401 H          1 MOL1         0.0998
      14    C4      20.917774   18.737587   21.399845 C.3        1 MOL1        -0.1302
      15    H10     21.008508   17.642234   21.402141 H          1 MOL1         0.0998
      16    H11     21.875664   19.119328   21.019391 H          1 MOL1         0.0998
      17    C5      19.801285   19.160579   20.418144 C.3        1 MOL1        -0.2317
      18    H12     20.099889   18.936636   19.385685 H          1 MOL1         0.1009
      19    H13     19.602322   20.238516   20.479651 H          1 MOL1         0.1009
      20    H14     18.869519   18.614711   20.605969 H          1 MOL1         0.1009
@<TRIPOS>BOND
    1     1     2    1
    2     1     3    1
    3     1     4    1
    4     1     5    1
    5     5     6    1
    6     5     7    1
    7     7     8    1
    8     7     9    1
    9     7    10    1
   10     5    11    1
   11    11    12    1
   12    11    13    1
   13    11    14    1
   14    14    15    1
   15    14    16    1
   16    14    17    1
   17    17    18    1
   18    17    19    1
   19    17    20    1
@<TRIPOS>SUBSTRUCTURE
       1 MOL1            1 RESIDUE      1      MOL     
@<SCITEGIC>MOL_PROPERTY
VConf Rank
SciTegic.value.IntegerValue
784

@<SCITEGIC>MOL_PROPERTY
Conf_Id
SciTegic.value.IntegerValue
54

@<SCITEGIC>MOL_PROPERTY
Delta U+W
SciTegic.value.DoubleValue
2.752

@<SCITEGIC>MOL_PROPERTY
U+W
SciTegic.value.DoubleValue
-33.525

@<SCITEGIC>MOL_PROPERTY
Grad RMS
SciTegic.value.DoubleValue
0.000000

@<SCITEGIC>MOL_PROPERTY
U
SciTegic.value.DoubleValue
24.337

@<SCITEGIC>MOL_PROPERTY
W
SciTegic.value.DoubleValue
-57.862

@<SCITEGIC>MOL_PROPERTY
W(PB)
SciTegic.value.DoubleValue
-59.764

@<SCITEGIC>MOL_PROPERTY
W(SA)
SciTegic.value.DoubleValue
1.901

@<SCITEGIC>MOL_PROPERTY
Valence
SciTegic.value.DoubleValue
3.593

@<SCITEGIC>MOL_PROPERTY
Coulomb
SciTegic.value.DoubleValue
20.067

@<SCITEGIC>MOL_PROPERTY
VdW
SciTegic.value.DoubleValue
0.677

@<SCITEGIC>MOL_PROPERTY
VdW6
SciTegic.value.DoubleValue
-5.466

@<SCITEGIC>MOL_PROPERTY
VdW12
SciTegic.value.DoubleValue
6.144

@<SCITEGIC>MOL_PROPERTY
Bond
SciTegic.value.DoubleValue
0.191

@<SCITEGIC>MOL_PROPERTY
Angle
SciTegic.value.DoubleValue
1.557

@<SCITEGIC>MOL_PROPERTY
Pdih
SciTegic.value.DoubleValue
1.845

@<SCITEGIC>MOL_PROPERTY
Idih
SciTegic.value.DoubleValue
0.000

@<SCITEGIC>MOL_PROPERTY
Tether
SciTegic.value.DoubleValue
0.000

@<TRIPOS>MOLECULE
guest-s10_confgen4.mol2 : confsearch ligand conformer 785
          20          19           1
SMALL
USER_CHARGES
 
@<TRIPOS>ATOM
       1    N1      20.689895   17.238398   23.367746 N.4        1 MOL1        -0.5937
       2    H1      20.569313   16.395219   23.935341 H          1 MOL1         0.3684
       3    H2      21.679970   17.494516   23.410951 H          1 MOL1         0.3684
       4    H3      20.479392   16.987128   22.399241 H          1 MOL1         0.3684
       5    C1      19.807413   18.357615   23.849890 C.3        1 MOL1         0.1270
       6    H4      20.093032   18.541428   24.890398 H          1 MOL1         0.0960
       7    C2      18.326996   17.936710   23.842998 C.3        1 MOL1        -0.2382
       8    H5      17.686882   18.755821   24.193402 H          1 MOL1         0.1009
       9    H6      18.168223   17.082076   24.511937 H          1 MOL1         0.1009
      10    H7      17.992688   17.643505   22.840845 H          1 MOL1         0.1009
      11    C3      20.041521   19.674552   23.071479 C.3        1 MOL1        -0.1392
      12    H8      19.436253   20.467793   23.529907 H          1 MOL1         0.0998
      13    H9      21.087935   19.977281   23.208516 H          1 MOL1         0.0998
      14    C4      19.727338   19.603126   21.554729 C.3        1 MOL1        -0.1302
      15    H10     18.669999   19.351804   21.396982 H          1 MOL1         0.0998
      16    H11     20.318342   18.807259   21.082000 H          1 MOL1         0.0998
      17    C5      20.032274   20.942177   20.849545 C.3        1 MOL1        -0.2317
      18    H12     19.803147   20.877072   19.777944 H          1 MOL1         0.1009
      19    H13     21.092025   21.210226   20.951023 H          1 MOL1         0.1009
      20    H14     19.431440   21.757597   21.272998 H          1 MOL1         0.1009
@<TRIPOS>BOND
    1     1     2    1
    2     1     3    1
    3     1     4    1
    4     1     5    1
    5     5     6    1
    6     5     7    1
    7     7     8    1
    8     7     9    1
    9     7    10    1
   10     5    11    1
   11    11    12    1
   12    11    13    1
   13    11    14    1
   14    14    15    1
   15    14    16    1
   16    14    17    1
   17    17    18    1
   18    17    19    1
   19    17    20    1
@<TRIPOS>SUBSTRUCTURE
       1 MOL1            1 RESIDUE      1      MOL     
@<SCITEGIC>MOL_PROPERTY
VConf Rank
SciTegic.value.IntegerValue
785

@<SCITEGIC>MOL_PROPERTY
Conf_Id
SciTegic.value.IntegerValue
63

@<SCITEGIC>MOL_PROPERTY
Delta U+W
SciTegic.value.DoubleValue
0.420

@<SCITEGIC>MOL_PROPERTY
U+W
SciTegic.value.DoubleValue
-35.856

@<SCITEGIC>MOL_PROPERTY
Grad RMS
SciTegic.value.DoubleValue
0.000000

@<SCITEGIC>MOL_PROPERTY
U
SciTegic.value.DoubleValue
22.625

@<SCITEGIC>MOL_PROPERTY
W
SciTegic.value.DoubleValue
-58.481

@<SCITEGIC>MOL_PROPERTY
W(PB)
SciTegic.value.DoubleValue
-60.400

@<SCITEGIC>MOL_PROPERTY
W(SA)
SciTegic.value.DoubleValue
1.919

@<SCITEGIC>MOL_PROPERTY
Valence
SciTegic.value.DoubleValue
2.404

@<SCITEGIC>MOL_PROPERTY
Coulomb
SciTegic.value.DoubleValue
19.464

@<SCITEGIC>MOL_PROPERTY
VdW
SciTegic.value.DoubleValue
0.757

@<SCITEGIC>MOL_PROPERTY
VdW6
SciTegic.value.DoubleValue
-5.074

@<SCITEGIC>MOL_PROPERTY
VdW12
SciTegic.value.DoubleValue
5.830

@<SCITEGIC>MOL_PROPERTY
Bond
SciTegic.value.DoubleValue
0.172

@<SCITEGIC>MOL_PROPERTY
Angle
SciTegic.value.DoubleValue
1.207

@<SCITEGIC>MOL_PROPERTY
Pdih
SciTegic.value.DoubleValue
1.025

@<SCITEGIC>MOL_PROPERTY
Idih
SciTegic.value.DoubleValue
0.000

@<SCITEGIC>MOL_PROPERTY
Tether
SciTegic.value.DoubleValue
0.000

@<TRIPOS>MOLECULE
guest-s10_confgen4.mol2 : confsearch ligand conformer 786
          20          19           1
SMALL
USER_CHARGES
 
@<TRIPOS>ATOM
       1    N1      18.925653   19.395661   21.214612 N.4        1 MOL1        -0.5937
       2    H1      19.706756   18.882523   20.798147 H          1 MOL1         0.3684
       3    H2      19.062746   20.387724   21.006193 H          1 MOL1         0.3684
       4    H3      18.072772   19.097079   20.734003 H          1 MOL1         0.3684
       5    C1      18.838707   19.150688   22.696707 C.3        1 MOL1         0.1270
       6    H4      18.690453   18.074832   22.829689 H          1 MOL1         0.0960
       7    C2      17.624882   19.878425   23.297155 C.3        1 MOL1        -0.2382
       8    H5      16.698714   19.563644   22.800805 H          1 MOL1         0.1009
       9    H6      17.718867   20.966000   23.187151 H          1 MOL1         0.1009
      10    H7      17.523269   19.650719   24.365540 H          1 MOL1         0.1009
      11    C3      20.131562   19.557208   23.439841 C.3        1 MOL1        -0.1392
      12    H8      20.289210   20.638545   23.331715 H          1 MOL1         0.0998
      13    H9      19.999015   19.372793   24.514248 H          1 MOL1         0.0998
      14    C4      21.401567   18.809444   22.960430 C.3        1 MOL1        -0.1302
      15    H10     22.262486   19.168341   23.541734 H          1 MOL1         0.0998
      16    H11     21.618571   19.061451   21.913546 H          1 MOL1         0.0998
      17    C5      21.296581   17.275186   23.116640 C.3        1 MOL1        -0.2317
      18    H12     21.079810   16.998486   24.156653 H          1 MOL1         0.1009
      19    H13     22.241663   16.794247   22.832763 H          1 MOL1         0.1009
      20    H14     20.508074   16.856137   22.479027 H          1 MOL1         0.1009
@<TRIPOS>BOND
    1     1     2    1
    2     1     3    1
    3     1     4    1
    4     1     5    1
    5     5     6    1
    6     5     7    1
    7     7     8    1
    8     7     9    1
    9     7    10    1
   10     5    11    1
   11    11    12    1
   12    11    13    1
   13    11    14    1
   14    14    15    1
   15    14    16    1
   16    14    17    1
   17    17    18    1
   18    17    19    1
   19    17    20    1
@<TRIPOS>SUBSTRUCTURE
       1 MOL1            1 RESIDUE      1      MOL     
@<SCITEGIC>MOL_PROPERTY
VConf Rank
SciTegic.value.IntegerValue
786

@<SCITEGIC>MOL_PROPERTY
Conf_Id
SciTegic.value.IntegerValue
50

@<SCITEGIC>MOL_PROPERTY
Delta U+W
SciTegic.value.DoubleValue
0.466

@<SCITEGIC>MOL_PROPERTY
U+W
SciTegic.value.DoubleValue
-35.811

@<SCITEGIC>MOL_PROPERTY
Grad RMS
SciTegic.value.DoubleValue
0.000000

@<SCITEGIC>MOL_PROPERTY
U
SciTegic.value.DoubleValue
22.369

@<SCITEGIC>MOL_PROPERTY
W
SciTegic.value.DoubleValue
-58.180

@<SCITEGIC>MOL_PROPERTY
W(PB)
SciTegic.value.DoubleValue
-60.103

@<SCITEGIC>MOL_PROPERTY
W(SA)
SciTegic.value.DoubleValue
1.923

@<SCITEGIC>MOL_PROPERTY
Valence
SciTegic.value.DoubleValue
2.168

@<SCITEGIC>MOL_PROPERTY
Coulomb
SciTegic.value.DoubleValue
19.636

@<SCITEGIC>MOL_PROPERTY
VdW
SciTegic.value.DoubleValue
0.566

@<SCITEGIC>MOL_PROPERTY
VdW6
SciTegic.value.DoubleValue
-5.263

@<SCITEGIC>MOL_PROPERTY
VdW12
SciTegic.value.DoubleValue
5.829

@<SCITEGIC>MOL_PROPERTY
Bond
SciTegic.value.DoubleValue
0.162

@<SCITEGIC>MOL_PROPERTY
Angle
SciTegic.value.DoubleValue
1.066

@<SCITEGIC>MOL_PROPERTY
Pdih
SciTegic.value.DoubleValue
0.939

@<SCITEGIC>MOL_PROPERTY
Idih
SciTegic.value.DoubleValue
0.000

@<SCITEGIC>MOL_PROPERTY
Tether
SciTegic.value.DoubleValue
0.000

@<TRIPOS>MOLECULE
guest-s10_confgen4.mol2 : confsearch ligand conformer 787
          20          19           1
SMALL
USER_CHARGES
 
@<TRIPOS>ATOM
       1    N1      19.075090   20.813664   23.885350 N.4        1 MOL1        -0.5937
       2    H1      19.871253   21.026657   24.492603 H          1 MOL1         0.3684
       3    H2      18.288018   20.560620   24.488143 H          1 MOL1         0.3684
       4    H3      18.822508   21.680475   23.403087 H          1 MOL1         0.3684
       5    C1      19.399636   19.715026   22.909521 C.3        1 MOL1         0.1270
       6    H4      20.247349   20.073885   22.317604 H          1 MOL1         0.0960
       7    C2      18.204812   19.477422   21.967234 C.3        1 MOL1        -0.2382
       8    H5      17.316372   19.160794   22.527668 H          1 MOL1         0.1009
       9    H6      18.425925   18.704596   21.223165 H          1 MOL1         0.1009
      10    H7      17.952702   20.396336   21.423941 H          1 MOL1         0.1009
      11    C3      19.830552   18.412450   23.627740 C.3        1 MOL1        -0.1392
      12    H8      20.101487   18.647072   24.665632 H          1 MOL1         0.0998
      13    H9      18.986166   17.713401   23.693738 H          1 MOL1         0.0998
      14    C4      21.052031   17.712967   22.979284 C.3        1 MOL1        -0.1302
      15    H10     21.330696   16.848587   23.598256 H          1 MOL1         0.0998
      16    H11     21.916226   18.391891   22.996910 H          1 MOL1         0.0998
      17    C5      20.809359   17.230037   21.532176 C.3        1 MOL1        -0.2317
      18    H12     19.925050   16.582284   21.473505 H          1 MOL1         0.1009
      19    H13     21.670825   16.653455   21.170969 H          1 MOL1         0.1009
      20    H14     20.669624   18.074428   20.845802 H          1 MOL1         0.1009
@<TRIPOS>BOND
    1     1     2    1
    2     1     3    1
    3     1     4    1
    4     1     5    1
    5     5     6    1
    6     5     7    1
    7     7     8    1
    8     7     9    1
    9     7    10    1
   10     5    11    1
   11    11    12    1
   12    11    13    1
   13    11    14    1
   14    14    15    1
   15    14    16    1
   16    14    17    1
   17    17    18    1
   18    17    19    1
   19    17    20    1
@<TRIPOS>SUBSTRUCTURE
       1 MOL1            1 RESIDUE      1      MOL     
@<SCITEGIC>MOL_PROPERTY
VConf Rank
SciTegic.value.IntegerValue
787

@<SCITEGIC>MOL_PROPERTY
Conf_Id
SciTegic.value.IntegerValue
3

@<SCITEGIC>MOL_PROPERTY
Delta U+W
SciTegic.value.DoubleValue
3.093

@<SCITEGIC>MOL_PROPERTY
U+W
SciTegic.value.DoubleValue
-33.184

@<SCITEGIC>MOL_PROPERTY
Grad RMS
SciTegic.value.DoubleValue
0.000000

@<SCITEGIC>MOL_PROPERTY
U
SciTegic.value.DoubleValue
25.256

@<SCITEGIC>MOL_PROPERTY
W
SciTegic.value.DoubleValue
-58.439

@<SCITEGIC>MOL_PROPERTY
W(PB)
SciTegic.value.DoubleValue
-60.337

@<SCITEGIC>MOL_PROPERTY
W(SA)
SciTegic.value.DoubleValue
1.898

@<SCITEGIC>MOL_PROPERTY
Valence
SciTegic.value.DoubleValue
4.963

@<SCITEGIC>MOL_PROPERTY
Coulomb
SciTegic.value.DoubleValue
19.511

@<SCITEGIC>MOL_PROPERTY
VdW
SciTegic.value.DoubleValue
0.782

@<SCITEGIC>MOL_PROPERTY
VdW6
SciTegic.value.DoubleValue
-5.429

@<SCITEGIC>MOL_PROPERTY
VdW12
SciTegic.value.DoubleValue
6.211

@<SCITEGIC>MOL_PROPERTY
Bond
SciTegic.value.DoubleValue
0.174

@<SCITEGIC>MOL_PROPERTY
Angle
SciTegic.value.DoubleValue
1.377

@<SCITEGIC>MOL_PROPERTY
Pdih
SciTegic.value.DoubleValue
3.412

@<SCITEGIC>MOL_PROPERTY
Idih
SciTegic.value.DoubleValue
0.000

@<SCITEGIC>MOL_PROPERTY
Tether
SciTegic.value.DoubleValue
0.000

@<TRIPOS>MOLECULE
guest-s10_confgen4.mol2 : confsearch ligand conformer 788
          20          19           1
SMALL
USER_CHARGES
 
@<TRIPOS>ATOM
       1    N1      17.449456   18.446337   22.738905 N.4        1 MOL1        -0.5937
       2    H1      17.014605   17.863048   22.018965 H          1 MOL1         0.3684
       3    H2      17.004162   19.366845   22.691905 H          1 MOL1         0.3684
       4    H3      17.211902   18.037103   23.645977 H          1 MOL1         0.3684
       5    C1      18.938455   18.539244   22.547505 C.3        1 MOL1         0.1270
       6    H4      19.093425   18.980571   21.558409 H          1 MOL1         0.0960
       7    C2      19.568268   17.134487   22.557161 C.3        1 MOL1        -0.2382
       8    H5      20.628352   17.172035   22.280851 H          1 MOL1         0.1009
       9    H6      19.067182   16.481018   21.832574 H          1 MOL1         0.1009
      10    H7      19.487209   16.669721   23.547570 H          1 MOL1         0.1009
      11    C3      19.581490   19.471589   23.601862 C.3        1 MOL1        -0.1392
      12    H8      19.040020   20.426751   23.603055 H          1 MOL1         0.0998
      13    H9      19.440704   19.040741   24.602004 H          1 MOL1         0.0998
      14    C4      21.087993   19.765567   23.384770 C.3        1 MOL1        -0.1302
      15    H10     21.677885   18.847623   23.509993 H          1 MOL1         0.0998
      16    H11     21.429703   20.451350   24.172662 H          1 MOL1         0.0998
      17    C5      21.389670   20.396631   22.006402 C.3        1 MOL1        -0.2317
      18    H12     20.808297   21.315793   21.857061 H          1 MOL1         0.1009
      19    H13     21.156297   19.705514   21.186671 H          1 MOL1         0.1009
      20    H14     22.453234   20.656496   21.926901 H          1 MOL1         0.1009
@<TRIPOS>BOND
    1     1     2    1
    2     1     3    1
    3     1     4    1
    4     1     5    1
    5     5     6    1
    6     5     7    1
    7     7     8    1
    8     7     9    1
    9     7    10    1
   10     5    11    1
   11    11    12    1
   12    11    13    1
   13    11    14    1
   14    14    15    1
   15    14    16    1
   16    14    17    1
   17    17    18    1
   18    17    19    1
   19    17    20    1
@<TRIPOS>SUBSTRUCTURE
       1 MOL1            1 RESIDUE      1      MOL     
@<SCITEGIC>MOL_PROPERTY
VConf Rank
SciTegic.value.IntegerValue
788

@<SCITEGIC>MOL_PROPERTY
Conf_Id
SciTegic.value.IntegerValue
64

@<SCITEGIC>MOL_PROPERTY
Delta U+W
SciTegic.value.DoubleValue
0.544

@<SCITEGIC>MOL_PROPERTY
U+W
SciTegic.value.DoubleValue
-35.732

@<SCITEGIC>MOL_PROPERTY
Grad RMS
SciTegic.value.DoubleValue
0.000000

@<SCITEGIC>MOL_PROPERTY
U
SciTegic.value.DoubleValue
22.800

@<SCITEGIC>MOL_PROPERTY
W
SciTegic.value.DoubleValue
-58.532

@<SCITEGIC>MOL_PROPERTY
W(PB)
SciTegic.value.DoubleValue
-60.437

@<SCITEGIC>MOL_PROPERTY
W(SA)
SciTegic.value.DoubleValue
1.905

@<SCITEGIC>MOL_PROPERTY
Valence
SciTegic.value.DoubleValue
2.662

@<SCITEGIC>MOL_PROPERTY
Coulomb
SciTegic.value.DoubleValue
19.485

@<SCITEGIC>MOL_PROPERTY
VdW
SciTegic.value.DoubleValue
0.653

@<SCITEGIC>MOL_PROPERTY
VdW6
SciTegic.value.DoubleValue
-5.460

@<SCITEGIC>MOL_PROPERTY
VdW12
SciTegic.value.DoubleValue
6.113

@<SCITEGIC>MOL_PROPERTY
Bond
SciTegic.value.DoubleValue
0.174

@<SCITEGIC>MOL_PROPERTY
Angle
SciTegic.value.DoubleValue
1.378

@<SCITEGIC>MOL_PROPERTY
Pdih
SciTegic.value.DoubleValue
1.109

@<SCITEGIC>MOL_PROPERTY
Idih
SciTegic.value.DoubleValue
0.000

@<SCITEGIC>MOL_PROPERTY
Tether
SciTegic.value.DoubleValue
0.000

@<TRIPOS>MOLECULE
guest-s10_confgen4.mol2 : confsearch ligand conformer 789
          20          19           1
SMALL
USER_CHARGES
 
@<TRIPOS>ATOM
       1    N1      21.722232   18.100102   22.886559 N.4        1 MOL1        -0.5937
       2    H1      21.136092   17.333762   23.224843 H          1 MOL1         0.3684
       3    H2      22.483271   18.222968   23.559861 H          1 MOL1         0.3684
       4    H3      22.143662   17.798101   22.004032 H          1 MOL1         0.3684
       5    C1      20.928350   19.367193   22.716080 C.3        1 MOL1         0.1270
       6    H4      21.640042   20.121267   22.365612 H          1 MOL1         0.0960
       7    C2      20.373156   19.851887   24.065360 C.3        1 MOL1        -0.2382
       8    H5      19.753274   19.084511   24.543471 H          1 MOL1         0.1009
       9    H6      19.769718   20.758896   23.936771 H          1 MOL1         0.1009
      10    H7      21.193425   20.092938   24.752400 H          1 MOL1         0.1009
      11    C3      19.835854   19.236008   21.625125 C.3        1 MOL1        -0.1392
      12    H8      19.407629   20.225498   21.417693 H          1 MOL1         0.0998
      13    H9      20.336139   18.938002   20.694325 H          1 MOL1         0.0998
      14    C4      18.696690   18.218706   21.912573 C.3        1 MOL1        -0.1302
      15    H10     19.062699   17.382624   22.522806 H          1 MOL1         0.0998
      16    H11     18.379507   17.775694   20.958048 H          1 MOL1         0.0998
      17    C5      17.451685   18.855428   22.573856 C.3        1 MOL1        -0.2317
      18    H12     17.678206   19.282475   23.556860 H          1 MOL1         0.1009
      19    H13     16.665143   18.102670   22.714107 H          1 MOL1         0.1009
      20    H14     17.037843   19.654214   21.944794 H          1 MOL1         0.1009
@<TRIPOS>BOND
    1     1     2    1
    2     1     3    1
    3     1     4    1
    4     1     5    1
    5     5     6    1
    6     5     7    1
    7     7     8    1
    8     7     9    1
    9     7    10    1
   10     5    11    1
   11    11    12    1
   12    11    13    1
   13    11    14    1
   14    14    15    1
   15    14    16    1
   16    14    17    1
   17    17    18    1
   18    17    19    1
   19    17    20    1
@<TRIPOS>SUBSTRUCTURE
       1 MOL1            1 RESIDUE      1      MOL     
@<SCITEGIC>MOL_PROPERTY
VConf Rank
SciTegic.value.IntegerValue
789

@<SCITEGIC>MOL_PROPERTY
Conf_Id
SciTegic.value.IntegerValue
35

@<SCITEGIC>MOL_PROPERTY
Delta U+W
SciTegic.value.DoubleValue
3.004

@<SCITEGIC>MOL_PROPERTY
U+W
SciTegic.value.DoubleValue
-33.272

@<SCITEGIC>MOL_PROPERTY
Grad RMS
SciTegic.value.DoubleValue
0.000000

@<SCITEGIC>MOL_PROPERTY
U
SciTegic.value.DoubleValue
25.367

@<SCITEGIC>MOL_PROPERTY
W
SciTegic.value.DoubleValue
-58.639

@<SCITEGIC>MOL_PROPERTY
W(PB)
SciTegic.value.DoubleValue
-60.512

@<SCITEGIC>MOL_PROPERTY
W(SA)
SciTegic.value.DoubleValue
1.873

@<SCITEGIC>MOL_PROPERTY
Valence
SciTegic.value.DoubleValue
4.943

@<SCITEGIC>MOL_PROPERTY
Coulomb
SciTegic.value.DoubleValue
19.661

@<SCITEGIC>MOL_PROPERTY
VdW
SciTegic.value.DoubleValue
0.764

@<SCITEGIC>MOL_PROPERTY
VdW6
SciTegic.value.DoubleValue
-5.871

@<SCITEGIC>MOL_PROPERTY
VdW12
SciTegic.value.DoubleValue
6.636

@<SCITEGIC>MOL_PROPERTY
Bond
SciTegic.value.DoubleValue
0.230

@<SCITEGIC>MOL_PROPERTY
Angle
SciTegic.value.DoubleValue
1.857

@<SCITEGIC>MOL_PROPERTY
Pdih
SciTegic.value.DoubleValue
2.855

@<SCITEGIC>MOL_PROPERTY
Idih
SciTegic.value.DoubleValue
0.000

@<SCITEGIC>MOL_PROPERTY
Tether
SciTegic.value.DoubleValue
0.000

@<TRIPOS>MOLECULE
guest-s10_confgen4.mol2 : confsearch ligand conformer 790
          20          19           1
SMALL
USER_CHARGES
 
@<TRIPOS>ATOM
       1    N1      18.609023   18.613561   21.424630 N.4        1 MOL1        -0.5937
       2    H1      17.878892   19.104315   20.901495 H          1 MOL1         0.3684
       3    H2      18.434353   17.610185   21.323098 H          1 MOL1         0.3684
       4    H3      19.503012   18.815679   20.973045 H          1 MOL1         0.3684
       5    C1      18.624022   19.026391   22.870939 C.3        1 MOL1         0.1270
       6    H4      17.641161   18.745462   23.262079 H          1 MOL1         0.0960
       7    C2      18.756291   20.552637   23.017870 C.3        1 MOL1        -0.2382
       8    H5      19.681178   20.924748   22.561348 H          1 MOL1         0.1009
       9    H6      18.753171   20.843186   24.075694 H          1 MOL1         0.1009
      10    H7      17.914383   21.059910   22.531215 H          1 MOL1         0.1009
      11    C3      19.676772   18.258445   23.710754 C.3        1 MOL1        -0.1392
      12    H8      19.411694   18.381700   24.769094 H          1 MOL1         0.0998
      13    H9      19.576918   17.183870   23.509424 H          1 MOL1         0.0998
      14    C4      21.164939   18.675175   23.542551 C.3        1 MOL1        -0.1302
      15    H10     21.766872   18.070177   24.234995 H          1 MOL1         0.0998
      16    H11     21.307347   19.716575   23.861671 H          1 MOL1         0.0998
      17    C5      21.730746   18.486479   22.116655 C.3        1 MOL1        -0.2317
      18    H12     21.526167   17.476841   21.737289 H          1 MOL1         0.1009
      19    H13     22.819583   18.626482   22.118578 H          1 MOL1         0.1009
      20    H14     21.314084   19.219725   21.416648 H          1 MOL1         0.1009
@<TRIPOS>BOND
    1     1     2    1
    2     1     3    1
    3     1     4    1
    4     1     5    1
    5     5     6    1
    6     5     7    1
    7     7     8    1
    8     7     9    1
    9     7    10    1
   10     5    11    1
   11    11    12    1
   12    11    13    1
   13    11    14    1
   14    14    15    1
   15    14    16    1
   16    14    17    1
   17    17    18    1
   18    17    19    1
   19    17    20    1
@<TRIPOS>SUBSTRUCTURE
       1 MOL1            1 RESIDUE      1      MOL     
@<SCITEGIC>MOL_PROPERTY
VConf Rank
SciTegic.value.IntegerValue
790

@<SCITEGIC>MOL_PROPERTY
Conf_Id
SciTegic.value.IntegerValue
55

@<SCITEGIC>MOL_PROPERTY
Delta U+W
SciTegic.value.DoubleValue
2.767

@<SCITEGIC>MOL_PROPERTY
U+W
SciTegic.value.DoubleValue
-33.509

@<SCITEGIC>MOL_PROPERTY
Grad RMS
SciTegic.value.DoubleValue
0.000000

@<SCITEGIC>MOL_PROPERTY
U
SciTegic.value.DoubleValue
24.552

@<SCITEGIC>MOL_PROPERTY
W
SciTegic.value.DoubleValue
-58.061

@<SCITEGIC>MOL_PROPERTY
W(PB)
SciTegic.value.DoubleValue
-59.930

@<SCITEGIC>MOL_PROPERTY
W(SA)
SciTegic.value.DoubleValue
1.869

@<SCITEGIC>MOL_PROPERTY
Valence
SciTegic.value.DoubleValue
3.726

@<SCITEGIC>MOL_PROPERTY
Coulomb
SciTegic.value.DoubleValue
20.219

@<SCITEGIC>MOL_PROPERTY
VdW
SciTegic.value.DoubleValue
0.606

@<SCITEGIC>MOL_PROPERTY
VdW6
SciTegic.value.DoubleValue
-6.395

@<SCITEGIC>MOL_PROPERTY
VdW12
SciTegic.value.DoubleValue
7.001

@<SCITEGIC>MOL_PROPERTY
Bond
SciTegic.value.DoubleValue
0.241

@<SCITEGIC>MOL_PROPERTY
Angle
SciTegic.value.DoubleValue
2.098

@<SCITEGIC>MOL_PROPERTY
Pdih
SciTegic.value.DoubleValue
1.387

@<SCITEGIC>MOL_PROPERTY
Idih
SciTegic.value.DoubleValue
0.000

@<SCITEGIC>MOL_PROPERTY
Tether
SciTegic.value.DoubleValue
0.000

@<TRIPOS>MOLECULE
guest-s10_confgen4.mol2 : confsearch ligand conformer 791
          20          19           1
SMALL
USER_CHARGES
 
@<TRIPOS>ATOM
       1    N1      21.561177   18.678038   23.435304 N.4        1 MOL1        -0.5937
       2    H1      21.297794   18.532765   24.413093 H          1 MOL1         0.3684
       3    H2      22.530566   19.006450   23.425950 H          1 MOL1         0.3684
       4    H3      21.545357   17.765271   22.973583 H          1 MOL1         0.3684
       5    C1      20.641496   19.656727   22.756028 C.3        1 MOL1         0.1270
       6    H4      20.988870   19.749850   21.722323 H          1 MOL1         0.0960
       7    C2      20.737051   21.039225   23.422014 C.3        1 MOL1        -0.2382
       8    H5      21.770817   21.405879   23.409504 H          1 MOL1         0.1009
       9    H6      20.400323   21.001804   24.465569 H          1 MOL1         0.1009
      10    H7      20.118329   21.772324   22.889670 H          1 MOL1         0.1009
      11    C3      19.174592   19.173308   22.730565 C.3        1 MOL1        -0.1392
      12    H8      18.808367   19.048757   23.758321 H          1 MOL1         0.0998
      13    H9      18.552948   19.952324   22.269306 H          1 MOL1         0.0998
      14    C4      18.985298   17.853684   21.944257 C.3        1 MOL1        -0.1302
      15    H10     19.553904   17.043202   22.419894 H          1 MOL1         0.0998
      16    H11     19.384916   17.968351   20.926711 H          1 MOL1         0.0998
      17    C5      17.498630   17.444980   21.866251 C.3        1 MOL1        -0.2317
      18    H12     17.077716   17.292874   22.868724 H          1 MOL1         0.1009
      19    H13     17.383096   16.507414   21.307049 H          1 MOL1         0.1009
      20    H14     16.902758   18.214698   21.358608 H          1 MOL1         0.1009
@<TRIPOS>BOND
    1     1     2    1
    2     1     3    1
    3     1     4    1
    4     1     5    1
    5     5     6    1
    6     5     7    1
    7     7     8    1
    8     7     9    1
    9     7    10    1
   10     5    11    1
   11    11    12    1
   12    11    13    1
   13    11    14    1
   14    14    15    1
   15    14    16    1
   16    14    17    1
   17    17    18    1
   18    17    19    1
   19    17    20    1
@<TRIPOS>SUBSTRUCTURE
       1 MOL1            1 RESIDUE      1      MOL     
@<SCITEGIC>MOL_PROPERTY
VConf Rank
SciTegic.value.IntegerValue
791

@<SCITEGIC>MOL_PROPERTY
Conf_Id
SciTegic.value.IntegerValue
74

@<SCITEGIC>MOL_PROPERTY
Delta U+W
SciTegic.value.DoubleValue
0.000

@<SCITEGIC>MOL_PROPERTY
U+W
SciTegic.value.DoubleValue
-36.276

@<SCITEGIC>MOL_PROPERTY
Grad RMS
SciTegic.value.DoubleValue
0.000000

@<SCITEGIC>MOL_PROPERTY
U
SciTegic.value.DoubleValue
22.080

@<SCITEGIC>MOL_PROPERTY
W
SciTegic.value.DoubleValue
-58.356

@<SCITEGIC>MOL_PROPERTY
W(PB)
SciTegic.value.DoubleValue
-60.289

@<SCITEGIC>MOL_PROPERTY
W(SA)
SciTegic.value.DoubleValue
1.932

@<SCITEGIC>MOL_PROPERTY
Valence
SciTegic.value.DoubleValue
1.885

@<SCITEGIC>MOL_PROPERTY
Coulomb
SciTegic.value.DoubleValue
19.559

@<SCITEGIC>MOL_PROPERTY
VdW
SciTegic.value.DoubleValue
0.637

@<SCITEGIC>MOL_PROPERTY
VdW6
SciTegic.value.DoubleValue
-4.482

@<SCITEGIC>MOL_PROPERTY
VdW12
SciTegic.value.DoubleValue
5.119

@<SCITEGIC>MOL_PROPERTY
Bond
SciTegic.value.DoubleValue
0.136

@<SCITEGIC>MOL_PROPERTY
Angle
SciTegic.value.DoubleValue
0.867

@<SCITEGIC>MOL_PROPERTY
Pdih
SciTegic.value.DoubleValue
0.882

@<SCITEGIC>MOL_PROPERTY
Idih
SciTegic.value.DoubleValue
0.000

@<SCITEGIC>MOL_PROPERTY
Tether
SciTegic.value.DoubleValue
0.000

@<TRIPOS>MOLECULE
guest-s10_confgen4.mol2 : confsearch ligand conformer 792
          20          19           1
SMALL
USER_CHARGES
 
@<TRIPOS>ATOM
       1    N1      18.184143   17.164126   23.130957 N.4        1 MOL1        -0.5937
       2    H1      18.292626   17.020434   24.138648 H          1 MOL1         0.3684
       3    H2      18.692821   16.412996   22.657905 H          1 MOL1         0.3684
       4    H3      17.191288   17.042796   22.913710 H          1 MOL1         0.3684
       5    C1      18.679187   18.519563   22.706469 C.3        1 MOL1         0.1270
       6    H4      18.080583   19.252344   23.256533 H          1 MOL1         0.0960
       7    C2      18.438768   18.728026   21.199970 C.3        1 MOL1        -0.2382
       8    H5      17.390370   18.530269   20.945064 H          1 MOL1         0.1009
       9    H6      19.066533   18.056744   20.600911 H          1 MOL1         0.1009
      10    H7      18.654925   19.759815   20.900118 H          1 MOL1         0.1009
      11    C3      20.163100   18.719408   23.093190 C.3        1 MOL1        -0.1392
      12    H8      20.285476   18.451681   24.151022 H          1 MOL1         0.0998
      13    H9      20.791129   18.022877   22.521986 H          1 MOL1         0.0998
      14    C4      20.672673   20.167346   22.890770 C.3        1 MOL1        -0.1302
      15    H10     20.007153   20.870651   23.410880 H          1 MOL1         0.0998
      16    H11     20.649033   20.434436   21.825873 H          1 MOL1         0.0998
      17    C5      22.113687   20.342867   23.416461 C.3        1 MOL1        -0.2317
      18    H12     22.172157   20.126578   24.491188 H          1 MOL1         0.1009
      19    H13     22.460012   21.373025   23.261794 H          1 MOL1         0.1009
      20    H14     22.808793   19.672258   22.894570 H          1 MOL1         0.1009
@<TRIPOS>BOND
    1     1     2    1
    2     1     3    1
    3     1     4    1
    4     1     5    1
    5     5     6    1
    6     5     7    1
    7     7     8    1
    8     7     9    1
    9     7    10    1
   10     5    11    1
   11    11    12    1
   12    11    13    1
   13    11    14    1
   14    14    15    1
   15    14    16    1
   16    14    17    1
   17    17    18    1
   18    17    19    1
   19    17    20    1
@<TRIPOS>SUBSTRUCTURE
       1 MOL1            1 RESIDUE      1      MOL     
@<SCITEGIC>MOL_PROPERTY
VConf Rank
SciTegic.value.IntegerValue
792

@<SCITEGIC>MOL_PROPERTY
Conf_Id
SciTegic.value.IntegerValue
80

@<SCITEGIC>MOL_PROPERTY
Delta U+W
SciTegic.value.DoubleValue
0.460

@<SCITEGIC>MOL_PROPERTY
U+W
SciTegic.value.DoubleValue
-35.817

@<SCITEGIC>MOL_PROPERTY
Grad RMS
SciTegic.value.DoubleValue
0.000000

@<SCITEGIC>MOL_PROPERTY
U
SciTegic.value.DoubleValue
22.495

@<SCITEGIC>MOL_PROPERTY
W
SciTegic.value.DoubleValue
-58.311

@<SCITEGIC>MOL_PROPERTY
W(PB)
SciTegic.value.DoubleValue
-60.259

@<SCITEGIC>MOL_PROPERTY
W(SA)
SciTegic.value.DoubleValue
1.948

@<SCITEGIC>MOL_PROPERTY
Valence
SciTegic.value.DoubleValue
2.419

@<SCITEGIC>MOL_PROPERTY
Coulomb
SciTegic.value.DoubleValue
19.304

@<SCITEGIC>MOL_PROPERTY
VdW
SciTegic.value.DoubleValue
0.772

@<SCITEGIC>MOL_PROPERTY
VdW6
SciTegic.value.DoubleValue
-4.635

@<SCITEGIC>MOL_PROPERTY
VdW12
SciTegic.value.DoubleValue
5.407

@<SCITEGIC>MOL_PROPERTY
Bond
SciTegic.value.DoubleValue
0.149

@<SCITEGIC>MOL_PROPERTY
Angle
SciTegic.value.DoubleValue
1.142

@<SCITEGIC>MOL_PROPERTY
Pdih
SciTegic.value.DoubleValue
1.129

@<SCITEGIC>MOL_PROPERTY
Idih
SciTegic.value.DoubleValue
0.000

@<SCITEGIC>MOL_PROPERTY
Tether
SciTegic.value.DoubleValue
0.000

@<TRIPOS>MOLECULE
guest-s10_confgen4.mol2 : confsearch ligand conformer 793
          20          19           1
SMALL
USER_CHARGES
 
@<TRIPOS>ATOM
       1    N1      20.764037   16.707450   22.645593 N.4        1 MOL1        -0.5937
       2    H1      21.777590   16.764327   22.777075 H          1 MOL1         0.3684
       3    H2      20.591878   16.568457   21.646728 H          1 MOL1         0.3684
       4    H3      20.443337   15.864560   23.129641 H          1 MOL1         0.3684
       5    C1      20.066768   17.936991   23.160173 C.3        1 MOL1         0.1270
       6    H4      20.302075   17.998443   24.227250 H          1 MOL1         0.0960
       7    C2      18.542957   17.784957   23.014766 C.3        1 MOL1        -0.2382
       8    H5      18.207018   16.829202   23.435267 H          1 MOL1         0.1009
       9    H6      18.237925   17.820062   21.961591 H          1 MOL1         0.1009
      10    H7      18.015786   18.577559   23.557794 H          1 MOL1         0.1009
      11    C3      20.612202   19.213312   22.473994 C.3        1 MOL1        -0.1392
      12    H8      21.703069   19.213926   22.599304 H          1 MOL1         0.0998
      13    H9      20.436435   19.166527   21.391106 H          1 MOL1         0.0998
      14    C4      20.070411   20.548992   23.048506 C.3        1 MOL1        -0.1302
      15    H10     20.882056   21.290083   23.036976 H          1 MOL1         0.0998
      16    H11     19.790973   20.425541   24.104272 H          1 MOL1         0.0998
      17    C5      18.885156   21.129669   22.241650 C.3        1 MOL1        -0.2317
      18    H12     19.178044   21.327341   21.202295 H          1 MOL1         0.1009
      19    H13     18.551758   22.079720   22.678949 H          1 MOL1         0.1009
      20    H14     18.024360   20.451938   22.225720 H          1 MOL1         0.1009
@<TRIPOS>BOND
    1     1     2    1
    2     1     3    1
    3     1     4    1
    4     1     5    1
    5     5     6    1
    6     5     7    1
    7     7     8    1
    8     7     9    1
    9     7    10    1
   10     5    11    1
   11    11    12    1
   12    11    13    1
   13    11    14    1
   14    14    15    1
   15    14    16    1
   16    14    17    1
   17    17    18    1
   18    17    19    1
   19    17    20    1
@<TRIPOS>SUBSTRUCTURE
       1 MOL1            1 RESIDUE      1      MOL     
@<SCITEGIC>MOL_PROPERTY
VConf Rank
SciTegic.value.IntegerValue
793

@<SCITEGIC>MOL_PROPERTY
Conf_Id
SciTegic.value.IntegerValue
52

@<SCITEGIC>MOL_PROPERTY
Delta U+W
SciTegic.value.DoubleValue
2.995

@<SCITEGIC>MOL_PROPERTY
U+W
SciTegic.value.DoubleValue
-33.282

@<SCITEGIC>MOL_PROPERTY
Grad RMS
SciTegic.value.DoubleValue
0.000000

@<SCITEGIC>MOL_PROPERTY
U
SciTegic.value.DoubleValue
25.224

@<SCITEGIC>MOL_PROPERTY
W
SciTegic.value.DoubleValue
-58.506

@<SCITEGIC>MOL_PROPERTY
W(PB)
SciTegic.value.DoubleValue
-60.411

@<SCITEGIC>MOL_PROPERTY
W(SA)
SciTegic.value.DoubleValue
1.905

@<SCITEGIC>MOL_PROPERTY
Valence
SciTegic.value.DoubleValue
4.945

@<SCITEGIC>MOL_PROPERTY
Coulomb
SciTegic.value.DoubleValue
19.467

@<SCITEGIC>MOL_PROPERTY
VdW
SciTegic.value.DoubleValue
0.813

@<SCITEGIC>MOL_PROPERTY
VdW6
SciTegic.value.DoubleValue
-5.458

@<SCITEGIC>MOL_PROPERTY
VdW12
SciTegic.value.DoubleValue
6.270

@<SCITEGIC>MOL_PROPERTY
Bond
SciTegic.value.DoubleValue
0.200

@<SCITEGIC>MOL_PROPERTY
Angle
SciTegic.value.DoubleValue
1.675

@<SCITEGIC>MOL_PROPERTY
Pdih
SciTegic.value.DoubleValue
3.070

@<SCITEGIC>MOL_PROPERTY
Idih
SciTegic.value.DoubleValue
0.000

@<SCITEGIC>MOL_PROPERTY
Tether
SciTegic.value.DoubleValue
0.000

@<TRIPOS>MOLECULE
guest-s10_confgen4.mol2 : confsearch ligand conformer 794
          20          19           1
SMALL
USER_CHARGES
 
@<TRIPOS>ATOM
       1    N1      19.041098   20.257140   23.506946 N.4        1 MOL1        -0.5937
       2    H1      19.770121   20.971398   23.575787 H          1 MOL1         0.3684
       3    H2      18.339697   20.465755   24.222602 H          1 MOL1         0.3684
       4    H3      18.592932   20.364463   22.594470 H          1 MOL1         0.3684
       5    C1      19.609809   18.874775   23.676896 C.3        1 MOL1         0.1270
       6    H4      18.769954   18.174044   23.640091 H          1 MOL1         0.0960
       7    C2      20.278366   18.751924   25.056642 C.3        1 MOL1        -0.2382
       8    H5      21.140623   19.425108   25.141464 H          1 MOL1         0.1009
       9    H6      20.626569   17.726545   25.232705 H          1 MOL1         0.1009
      10    H7      19.569591   19.001790   25.855730 H          1 MOL1         0.1009
      11    C3      20.608723   18.495395   22.557755 C.3        1 MOL1        -0.1392
      12    H8      21.323136   19.314144   22.400154 H          1 MOL1         0.0998
      13    H9      21.205507   17.638227   22.897161 H          1 MOL1         0.0998
      14    C4      19.953577   18.091282   21.210876 C.3        1 MOL1        -0.1302
      15    H10     19.275798   17.240673   21.369348 H          1 MOL1         0.0998
      16    H11     20.745107   17.726269   20.541344 H          1 MOL1         0.0998
      17    C5      19.194000   19.228861   20.491042 C.3        1 MOL1        -0.2317
      18    H12     18.937815   18.924895   19.467684 H          1 MOL1         0.1009
      19    H13     19.805894   20.137920   20.423841 H          1 MOL1         0.1009
      20    H14     18.252075   19.469663   20.997235 H          1 MOL1         0.1009
@<TRIPOS>BOND
    1     1     2    1
    2     1     3    1
    3     1     4    1
    4     1     5    1
    5     5     6    1
    6     5     7    1
    7     7     8    1
    8     7     9    1
    9     7    10    1
   10     5    11    1
   11    11    12    1
   12    11    13    1
   13    11    14    1
   14    14    15    1
   15    14    16    1
   16    14    17    1
   17    17    18    1
   18    17    19    1
   19    17    20    1
@<TRIPOS>SUBSTRUCTURE
       1 MOL1            1 RESIDUE      1      MOL     
@<SCITEGIC>MOL_PROPERTY
VConf Rank
SciTegic.value.IntegerValue
794

@<SCITEGIC>MOL_PROPERTY
Conf_Id
SciTegic.value.IntegerValue
54

@<SCITEGIC>MOL_PROPERTY
Delta U+W
SciTegic.value.DoubleValue
2.752

@<SCITEGIC>MOL_PROPERTY
U+W
SciTegic.value.DoubleValue
-33.525

@<SCITEGIC>MOL_PROPERTY
Grad RMS
SciTegic.value.DoubleValue
0.000000

@<SCITEGIC>MOL_PROPERTY
U
SciTegic.value.DoubleValue
24.337

@<SCITEGIC>MOL_PROPERTY
W
SciTegic.value.DoubleValue
-57.862

@<SCITEGIC>MOL_PROPERTY
W(PB)
SciTegic.value.DoubleValue
-59.764

@<SCITEGIC>MOL_PROPERTY
W(SA)
SciTegic.value.DoubleValue
1.901

@<SCITEGIC>MOL_PROPERTY
Valence
SciTegic.value.DoubleValue
3.593

@<SCITEGIC>MOL_PROPERTY
Coulomb
SciTegic.value.DoubleValue
20.067

@<SCITEGIC>MOL_PROPERTY
VdW
SciTegic.value.DoubleValue
0.677

@<SCITEGIC>MOL_PROPERTY
VdW6
SciTegic.value.DoubleValue
-5.466

@<SCITEGIC>MOL_PROPERTY
VdW12
SciTegic.value.DoubleValue
6.144

@<SCITEGIC>MOL_PROPERTY
Bond
SciTegic.value.DoubleValue
0.191

@<SCITEGIC>MOL_PROPERTY
Angle
SciTegic.value.DoubleValue
1.557

@<SCITEGIC>MOL_PROPERTY
Pdih
SciTegic.value.DoubleValue
1.845

@<SCITEGIC>MOL_PROPERTY
Idih
SciTegic.value.DoubleValue
0.000

@<SCITEGIC>MOL_PROPERTY
Tether
SciTegic.value.DoubleValue
0.000

@<TRIPOS>MOLECULE
guest-s10_confgen4.mol2 : confsearch ligand conformer 795
          20          19           1
SMALL
USER_CHARGES
 
@<TRIPOS>ATOM
       1    N1      21.471981   18.979434   21.545779 N.4        1 MOL1        -0.5937
       2    H1      22.101417   18.402792   20.981022 H          1 MOL1         0.3684
       3    H2      22.033012   19.733127   21.951861 H          1 MOL1         0.3684
       4    H3      20.796602   19.407925   20.908827 H          1 MOL1         0.3684
       5    C1      20.785619   18.166024   22.609337 C.3        1 MOL1         0.1270
       6    H4      21.583133   17.738057   23.224836 H          1 MOL1         0.0960
       7    C2      19.999773   16.996503   21.990056 C.3        1 MOL1        -0.2382
       8    H5      19.499499   16.407099   22.768388 H          1 MOL1         0.1009
       9    H6      20.676214   16.324314   21.448137 H          1 MOL1         0.1009
      10    H7      19.239483   17.347492   21.282377 H          1 MOL1         0.1009
      11    C3      19.903188   19.031575   23.540567 C.3        1 MOL1        -0.1392
      12    H8      19.506718   18.395201   24.342799 H          1 MOL1         0.0998
      13    H9      20.543882   19.773986   24.034270 H          1 MOL1         0.0998
      14    C4      18.728682   19.760453   22.837988 C.3        1 MOL1        -0.1302
      15    H10     18.047098   19.030514   22.381210 H          1 MOL1         0.0998
      16    H11     19.107617   20.394918   22.025569 H          1 MOL1         0.0998
      17    C5      17.931212   20.635359   23.828900 C.3        1 MOL1        -0.2317
      18    H12     17.102595   21.142839   23.318092 H          1 MOL1         0.1009
      19    H13     18.570597   21.405698   24.279438 H          1 MOL1         0.1009
      20    H14     17.505755   20.027994   24.638417 H          1 MOL1         0.1009
@<TRIPOS>BOND
    1     1     2    1
    2     1     3    1
    3     1     4    1
    4     1     5    1
    5     5     6    1
    6     5     7    1
    7     7     8    1
    8     7     9    1
    9     7    10    1
   10     5    11    1
   11    11    12    1
   12    11    13    1
   13    11    14    1
   14    14    15    1
   15    14    16    1
   16    14    17    1
   17    17    18    1
   18    17    19    1
   19    17    20    1
@<TRIPOS>SUBSTRUCTURE
       1 MOL1            1 RESIDUE      1      MOL     
@<SCITEGIC>MOL_PROPERTY
VConf Rank
SciTegic.value.IntegerValue
795

@<SCITEGIC>MOL_PROPERTY
Conf_Id
SciTegic.value.IntegerValue
63

@<SCITEGIC>MOL_PROPERTY
Delta U+W
SciTegic.value.DoubleValue
0.420

@<SCITEGIC>MOL_PROPERTY
U+W
SciTegic.value.DoubleValue
-35.856

@<SCITEGIC>MOL_PROPERTY
Grad RMS
SciTegic.value.DoubleValue
0.000000

@<SCITEGIC>MOL_PROPERTY
U
SciTegic.value.DoubleValue
22.625

@<SCITEGIC>MOL_PROPERTY
W
SciTegic.value.DoubleValue
-58.481

@<SCITEGIC>MOL_PROPERTY
W(PB)
SciTegic.value.DoubleValue
-60.400

@<SCITEGIC>MOL_PROPERTY
W(SA)
SciTegic.value.DoubleValue
1.919

@<SCITEGIC>MOL_PROPERTY
Valence
SciTegic.value.DoubleValue
2.404

@<SCITEGIC>MOL_PROPERTY
Coulomb
SciTegic.value.DoubleValue
19.464

@<SCITEGIC>MOL_PROPERTY
VdW
SciTegic.value.DoubleValue
0.757

@<SCITEGIC>MOL_PROPERTY
VdW6
SciTegic.value.DoubleValue
-5.074

@<SCITEGIC>MOL_PROPERTY
VdW12
SciTegic.value.DoubleValue
5.830

@<SCITEGIC>MOL_PROPERTY
Bond
SciTegic.value.DoubleValue
0.172

@<SCITEGIC>MOL_PROPERTY
Angle
SciTegic.value.DoubleValue
1.207

@<SCITEGIC>MOL_PROPERTY
Pdih
SciTegic.value.DoubleValue
1.025

@<SCITEGIC>MOL_PROPERTY
Idih
SciTegic.value.DoubleValue
0.000

@<SCITEGIC>MOL_PROPERTY
Tether
SciTegic.value.DoubleValue
0.000

@<TRIPOS>MOLECULE
guest-s10_confgen4.mol2 : confsearch ligand conformer 796
          20          19           1
SMALL
USER_CHARGES
 
@<TRIPOS>ATOM
       1    N1      18.160349   19.224056   23.630927 N.4        1 MOL1        -0.5937
       2    H1      18.442065   20.207232   23.660519 H          1 MOL1         0.3684
       3    H2      18.229774   18.854949   24.582432 H          1 MOL1         0.3684
       4    H3      17.172773   19.196910   23.363534 H          1 MOL1         0.3684
       5    C1      19.013757   18.439374   22.671684 C.3        1 MOL1         0.1270
       6    H4      18.879533   18.894898   21.685981 H          1 MOL1         0.0960
       7    C2      18.539374   16.979184   22.592207 C.3        1 MOL1        -0.2382
       8    H5      17.484143   16.929163   22.296875 H          1 MOL1         0.1009
       9    H6      18.647885   16.472621   23.559354 H          1 MOL1         0.1009
      10    H7      19.119774   16.420859   21.847201 H          1 MOL1         0.1009
      11    C3      20.515565   18.498373   23.032342 C.3        1 MOL1        -0.1392
      12    H8      20.673341   18.030324   24.013091 H          1 MOL1         0.0998
      13    H9      21.080391   17.894107   22.310012 H          1 MOL1         0.0998
      14    C4      21.108029   19.930316   23.052947 C.3        1 MOL1        -0.1302
      15    H10     22.171800   19.867832   23.322000 H          1 MOL1         0.0998
      16    H11     20.631947   20.527291   23.842588 H          1 MOL1         0.0998
      17    C5      20.976712   20.659949   21.696570 C.3        1 MOL1        -0.2317
      18    H12     21.446174   20.081355   20.890336 H          1 MOL1         0.1009
      19    H13     21.471423   21.639070   21.737204 H          1 MOL1         0.1009
      20    H14     19.926549   20.831270   21.428796 H          1 MOL1         0.1009
@<TRIPOS>BOND
    1     1     2    1
    2     1     3    1
    3     1     4    1
    4     1     5    1
    5     5     6    1
    6     5     7    1
    7     7     8    1
    8     7     9    1
    9     7    10    1
   10     5    11    1
   11    11    12    1
   12    11    13    1
   13    11    14    1
   14    14    15    1
   15    14    16    1
   16    14    17    1
   17    17    18    1
   18    17    19    1
   19    17    20    1
@<TRIPOS>SUBSTRUCTURE
       1 MOL1            1 RESIDUE      1      MOL     
@<SCITEGIC>MOL_PROPERTY
VConf Rank
SciTegic.value.IntegerValue
796

@<SCITEGIC>MOL_PROPERTY
Conf_Id
SciTegic.value.IntegerValue
50

@<SCITEGIC>MOL_PROPERTY
Delta U+W
SciTegic.value.DoubleValue
0.466

@<SCITEGIC>MOL_PROPERTY
U+W
SciTegic.value.DoubleValue
-35.811

@<SCITEGIC>MOL_PROPERTY
Grad RMS
SciTegic.value.DoubleValue
0.000000

@<SCITEGIC>MOL_PROPERTY
U
SciTegic.value.DoubleValue
22.369

@<SCITEGIC>MOL_PROPERTY
W
SciTegic.value.DoubleValue
-58.180

@<SCITEGIC>MOL_PROPERTY
W(PB)
SciTegic.value.DoubleValue
-60.103

@<SCITEGIC>MOL_PROPERTY
W(SA)
SciTegic.value.DoubleValue
1.923

@<SCITEGIC>MOL_PROPERTY
Valence
SciTegic.value.DoubleValue
2.168

@<SCITEGIC>MOL_PROPERTY
Coulomb
SciTegic.value.DoubleValue
19.636

@<SCITEGIC>MOL_PROPERTY
VdW
SciTegic.value.DoubleValue
0.566

@<SCITEGIC>MOL_PROPERTY
VdW6
SciTegic.value.DoubleValue
-5.263

@<SCITEGIC>MOL_PROPERTY
VdW12
SciTegic.value.DoubleValue
5.829

@<SCITEGIC>MOL_PROPERTY
Bond
SciTegic.value.DoubleValue
0.162

@<SCITEGIC>MOL_PROPERTY
Angle
SciTegic.value.DoubleValue
1.066

@<SCITEGIC>MOL_PROPERTY
Pdih
SciTegic.value.DoubleValue
0.939

@<SCITEGIC>MOL_PROPERTY
Idih
SciTegic.value.DoubleValue
0.000

@<SCITEGIC>MOL_PROPERTY
Tether
SciTegic.value.DoubleValue
0.000

@<TRIPOS>MOLECULE
guest-s10_confgen4.mol2 : confsearch ligand conformer 797
          20          19           1
SMALL
USER_CHARGES
 
@<TRIPOS>ATOM
       1    N1      21.803282   18.655905   21.849287 N.4        1 MOL1        -0.5937
       2    H1      21.798799   19.262425   21.024600 H          1 MOL1         0.3684
       3    H2      21.874096   17.689849   21.519752 H          1 MOL1         0.3684
       4    H3      22.658892   18.862592   22.371730 H          1 MOL1         0.3684
       5    C1      20.577070   18.862448   22.696826 C.3        1 MOL1         0.1270
       6    H4      20.587144   19.915196   22.995798 H          1 MOL1         0.0960
       7    C2      20.658307   17.988890   23.962630 C.3        1 MOL1        -0.2382
       8    H5      20.698447   16.923111   23.705395 H          1 MOL1         0.1009
       9    H6      19.792979   18.144618   24.615888 H          1 MOL1         0.1009
      10    H7      21.557426   18.231392   24.542203 H          1 MOL1         0.1009
      11    C3      19.274062   18.599720   21.902235 C.3        1 MOL1        -0.1392
      12    H8      19.498706   18.617346   20.827574 H          1 MOL1         0.0998
      13    H9      18.896086   17.589453   22.108411 H          1 MOL1         0.0998
      14    C4      18.161159   19.647532   22.157813 C.3        1 MOL1        -0.1302
      15    H10     17.311449   19.424990   21.497206 H          1 MOL1         0.0998
      16    H11     18.521142   20.644280   21.866291 H          1 MOL1         0.0998
      17    C5      17.657342   19.691454   23.617428 C.3        1 MOL1        -0.2317
      18    H12     17.329616   18.699202   23.953673 H          1 MOL1         0.1009
      19    H13     16.802553   20.374291   23.707486 H          1 MOL1         0.1009
      20    H14     18.437122   20.051352   24.300104 H          1 MOL1         0.1009
@<TRIPOS>BOND
    1     1     2    1
    2     1     3    1
    3     1     4    1
    4     1     5    1
    5     5     6    1
    6     5     7    1
    7     7     8    1
    8     7     9    1
    9     7    10    1
   10     5    11    1
   11    11    12    1
   12    11    13    1
   13    11    14    1
   14    14    15    1
   15    14    16    1
   16    14    17    1
   17    17    18    1
   18    17    19    1
   19    17    20    1
@<TRIPOS>SUBSTRUCTURE
       1 MOL1            1 RESIDUE      1      MOL     
@<SCITEGIC>MOL_PROPERTY
VConf Rank
SciTegic.value.IntegerValue
797

@<SCITEGIC>MOL_PROPERTY
Conf_Id
SciTegic.value.IntegerValue
3

@<SCITEGIC>MOL_PROPERTY
Delta U+W
SciTegic.value.DoubleValue
3.093

@<SCITEGIC>MOL_PROPERTY
U+W
SciTegic.value.DoubleValue
-33.184

@<SCITEGIC>MOL_PROPERTY
Grad RMS
SciTegic.value.DoubleValue
0.000000

@<SCITEGIC>MOL_PROPERTY
U
SciTegic.value.DoubleValue
25.256

@<SCITEGIC>MOL_PROPERTY
W
SciTegic.value.DoubleValue
-58.439

@<SCITEGIC>MOL_PROPERTY
W(PB)
SciTegic.value.DoubleValue
-60.337

@<SCITEGIC>MOL_PROPERTY
W(SA)
SciTegic.value.DoubleValue
1.898

@<SCITEGIC>MOL_PROPERTY
Valence
SciTegic.value.DoubleValue
4.963

@<SCITEGIC>MOL_PROPERTY
Coulomb
SciTegic.value.DoubleValue
19.511

@<SCITEGIC>MOL_PROPERTY
VdW
SciTegic.value.DoubleValue
0.782

@<SCITEGIC>MOL_PROPERTY
VdW6
SciTegic.value.DoubleValue
-5.429

@<SCITEGIC>MOL_PROPERTY
VdW12
SciTegic.value.DoubleValue
6.211

@<SCITEGIC>MOL_PROPERTY
Bond
SciTegic.value.DoubleValue
0.174

@<SCITEGIC>MOL_PROPERTY
Angle
SciTegic.value.DoubleValue
1.377

@<SCITEGIC>MOL_PROPERTY
Pdih
SciTegic.value.DoubleValue
3.412

@<SCITEGIC>MOL_PROPERTY
Idih
SciTegic.value.DoubleValue
0.000

@<SCITEGIC>MOL_PROPERTY
Tether
SciTegic.value.DoubleValue
0.000

@<TRIPOS>MOLECULE
guest-s10_confgen4.mol2 : confsearch ligand conformer 798
          20          19           1
SMALL
USER_CHARGES
 
@<TRIPOS>ATOM
       1    N1      21.509772   17.826833   23.541553 N.4        1 MOL1        -0.5937
       2    H1      21.984811   17.092656   23.009615 H          1 MOL1         0.3684
       3    H2      21.177721   17.402775   24.412039 H          1 MOL1         0.3684
       4    H3      22.214120   18.525822   23.790538 H          1 MOL1         0.3684
       5    C1      20.381606   18.435200   22.754463 C.3        1 MOL1         0.1270
       6    H4      19.687401   17.619062   22.532889 H          1 MOL1         0.0960
       7    C2      20.903724   19.004376   21.422722 C.3        1 MOL1        -0.2382
       8    H5      20.078455   19.325302   20.776601 H          1 MOL1         0.1009
       9    H6      21.469543   18.242958   20.872063 H          1 MOL1         0.1009
      10    H7      21.564013   19.864326   21.590035 H          1 MOL1         0.1009
      11    C3      19.629103   19.500887   23.586617 C.3        1 MOL1        -0.1392
      12    H8      19.353116   19.060786   24.553916 H          1 MOL1         0.0998
      13    H9      20.309898   20.331991   23.813595 H          1 MOL1         0.0998
      14    C4      18.346070   20.064129   22.923527 C.3        1 MOL1        -0.1302
      15    H10     18.601489   20.629117   22.016982 H          1 MOL1         0.0998
      16    H11     17.885182   20.789252   23.608813 H          1 MOL1         0.0998
      17    C5      17.309754   18.969255   22.582278 C.3        1 MOL1        -0.2317
      18    H12     17.040622   18.388421   23.474106 H          1 MOL1         0.1009
      19    H13     17.691415   18.275424   21.822674 H          1 MOL1         0.1009
      20    H14     16.390490   19.419894   22.186177 H          1 MOL1         0.1009
@<TRIPOS>BOND
    1     1     2    1
    2     1     3    1
    3     1     4    1
    4     1     5    1
    5     5     6    1
    6     5     7    1
    7     7     8    1
    8     7     9    1
    9     7    10    1
   10     5    11    1
   11    11    12    1
   12    11    13    1
   13    11    14    1
   14    14    15    1
   15    14    16    1
   16    14    17    1
   17    17    18    1
   18    17    19    1
   19    17    20    1
@<TRIPOS>SUBSTRUCTURE
       1 MOL1            1 RESIDUE      1      MOL     
@<SCITEGIC>MOL_PROPERTY
VConf Rank
SciTegic.value.IntegerValue
798

@<SCITEGIC>MOL_PROPERTY
Conf_Id
SciTegic.value.IntegerValue
64

@<SCITEGIC>MOL_PROPERTY
Delta U+W
SciTegic.value.DoubleValue
0.544

@<SCITEGIC>MOL_PROPERTY
U+W
SciTegic.value.DoubleValue
-35.732

@<SCITEGIC>MOL_PROPERTY
Grad RMS
SciTegic.value.DoubleValue
0.000000

@<SCITEGIC>MOL_PROPERTY
U
SciTegic.value.DoubleValue
22.800

@<SCITEGIC>MOL_PROPERTY
W
SciTegic.value.DoubleValue
-58.532

@<SCITEGIC>MOL_PROPERTY
W(PB)
SciTegic.value.DoubleValue
-60.437

@<SCITEGIC>MOL_PROPERTY
W(SA)
SciTegic.value.DoubleValue
1.905

@<SCITEGIC>MOL_PROPERTY
Valence
SciTegic.value.DoubleValue
2.662

@<SCITEGIC>MOL_PROPERTY
Coulomb
SciTegic.value.DoubleValue
19.485

@<SCITEGIC>MOL_PROPERTY
VdW
SciTegic.value.DoubleValue
0.653

@<SCITEGIC>MOL_PROPERTY
VdW6
SciTegic.value.DoubleValue
-5.460

@<SCITEGIC>MOL_PROPERTY
VdW12
SciTegic.value.DoubleValue
6.113

@<SCITEGIC>MOL_PROPERTY
Bond
SciTegic.value.DoubleValue
0.174

@<SCITEGIC>MOL_PROPERTY
Angle
SciTegic.value.DoubleValue
1.378

@<SCITEGIC>MOL_PROPERTY
Pdih
SciTegic.value.DoubleValue
1.109

@<SCITEGIC>MOL_PROPERTY
Idih
SciTegic.value.DoubleValue
0.000

@<SCITEGIC>MOL_PROPERTY
Tether
SciTegic.value.DoubleValue
0.000

@<TRIPOS>MOLECULE
guest-s10_confgen4.mol2 : confsearch ligand conformer 799
          20          19           1
SMALL
USER_CHARGES
 
@<TRIPOS>ATOM
       1    N1      21.473564   18.934247   21.430177 N.4        1 MOL1        -0.5937
       2    H1      20.826165   19.543155   20.924826 H          1 MOL1         0.3684
       3    H2      21.859361   18.269940   20.753813 H          1 MOL1         0.3684
       4    H3      22.248454   19.515979   21.760015 H          1 MOL1         0.3684
       5    C1      20.789348   18.226085   22.568240 C.3        1 MOL1         0.1270
       6    H4      21.555367   17.597758   23.033411 H          1 MOL1         0.0960
       7    C2      19.683932   17.292868   22.047772 C.3        1 MOL1        -0.2382
       8    H5      18.945188   17.839658   21.450289 H          1 MOL1         0.1009
       9    H6      19.165412   16.799330   22.878973 H          1 MOL1         0.1009
      10    H7      20.112779   16.509312   21.411296 H          1 MOL1         0.1009
      11    C3      20.288237   19.207802   23.657303 C.3        1 MOL1        -0.1392
      12    H8      19.958719   18.638918   24.536669 H          1 MOL1         0.0998
      13    H9      21.154950   19.788973   23.998669 H          1 MOL1         0.0998
      14    C4      19.174806   20.202416   23.225750 C.3        1 MOL1        -0.1302
      15    H10     19.267078   20.456300   22.161603 H          1 MOL1         0.0998
      16    H11     19.322165   21.144825   23.771765 H          1 MOL1         0.0998
      17    C5      17.744278   19.699218   23.530920 C.3        1 MOL1        -0.2317
      18    H12     17.503551   18.780641   22.984803 H          1 MOL1         0.1009
      19    H13     17.002710   20.456765   23.246026 H          1 MOL1         0.1009
      20    H14     17.618551   19.498753   24.602857 H          1 MOL1         0.1009
@<TRIPOS>BOND
    1     1     2    1
    2     1     3    1
    3     1     4    1
    4     1     5    1
    5     5     6    1
    6     5     7    1
    7     7     8    1
    8     7     9    1
    9     7    10    1
   10     5    11    1
   11    11    12    1
   12    11    13    1
   13    11    14    1
   14    14    15    1
   15    14    16    1
   16    14    17    1
   17    17    18    1
   18    17    19    1
   19    17    20    1
@<TRIPOS>SUBSTRUCTURE
       1 MOL1            1 RESIDUE      1      MOL     
@<SCITEGIC>MOL_PROPERTY
VConf Rank
SciTegic.value.IntegerValue
799

@<SCITEGIC>MOL_PROPERTY
Conf_Id
SciTegic.value.IntegerValue
35

@<SCITEGIC>MOL_PROPERTY
Delta U+W
SciTegic.value.DoubleValue
3.004

@<SCITEGIC>MOL_PROPERTY
U+W
SciTegic.value.DoubleValue
-33.272

@<SCITEGIC>MOL_PROPERTY
Grad RMS
SciTegic.value.DoubleValue
0.000000

@<SCITEGIC>MOL_PROPERTY
U
SciTegic.value.DoubleValue
25.367

@<SCITEGIC>MOL_PROPERTY
W
SciTegic.value.DoubleValue
-58.639

@<SCITEGIC>MOL_PROPERTY
W(PB)
SciTegic.value.DoubleValue
-60.512

@<SCITEGIC>MOL_PROPERTY
W(SA)
SciTegic.value.DoubleValue
1.873

@<SCITEGIC>MOL_PROPERTY
Valence
SciTegic.value.DoubleValue
4.943

@<SCITEGIC>MOL_PROPERTY
Coulomb
SciTegic.value.DoubleValue
19.661

@<SCITEGIC>MOL_PROPERTY
VdW
SciTegic.value.DoubleValue
0.764

@<SCITEGIC>MOL_PROPERTY
VdW6
SciTegic.value.DoubleValue
-5.871

@<SCITEGIC>MOL_PROPERTY
VdW12
SciTegic.value.DoubleValue
6.636

@<SCITEGIC>MOL_PROPERTY
Bond
SciTegic.value.DoubleValue
0.230

@<SCITEGIC>MOL_PROPERTY
Angle
SciTegic.value.DoubleValue
1.857

@<SCITEGIC>MOL_PROPERTY
Pdih
SciTegic.value.DoubleValue
2.855

@<SCITEGIC>MOL_PROPERTY
Idih
SciTegic.value.DoubleValue
0.000

@<SCITEGIC>MOL_PROPERTY
Tether
SciTegic.value.DoubleValue
0.000

@<TRIPOS>MOLECULE
guest-s10_confgen4.mol2 : confsearch ligand conformer 800
          20          19           1
SMALL
USER_CHARGES
 
@<TRIPOS>ATOM
       1    N1      18.309427   18.537076   23.566830 N.4        1 MOL1        -0.5937
       2    H1      17.888575   17.711791   24.002020 H          1 MOL1         0.3684
       3    H2      17.559901   19.217565   23.416076 H          1 MOL1         0.3684
       4    H3      18.961325   18.944152   24.240116 H          1 MOL1         0.3684
       5    C1      19.003936   18.188380   22.278990 C.3        1 MOL1         0.1270
       6    H4      18.220700   17.789367   21.626873 H          1 MOL1         0.0960
       7    C2      20.041542   17.070664   22.485379 C.3        1 MOL1        -0.2382
       8    H5      20.814646   17.363789   23.205576 H          1 MOL1         0.1009
       9    H6      20.532251   16.815817   21.537921 H          1 MOL1         0.1009
      10    H7      19.557543   16.162202   22.864075 H          1 MOL1         0.1009
      11    C3      19.601537   19.423592   21.557576 C.3        1 MOL1        -0.1392
      12    H8      19.797722   19.137305   20.515898 H          1 MOL1         0.0998
      13    H9      18.836056   20.208690   21.503927 H          1 MOL1         0.0998
      14    C4      20.911862   20.024418   22.139514 C.3        1 MOL1        -0.1302
      15    H10     21.221246   20.855668   21.490568 H          1 MOL1         0.0998
      16    H11     21.725849   19.288927   22.083746 H          1 MOL1         0.0998
      17    C5      20.791022   20.557359   23.585298 C.3        1 MOL1        -0.2317
      18    H12     19.930537   21.230810   23.690990 H          1 MOL1         0.1009
      19    H13     21.691375   21.123240   23.857904 H          1 MOL1         0.1009
      20    H14     20.693555   19.740734   24.309792 H          1 MOL1         0.1009
@<TRIPOS>BOND
    1     1     2    1
    2     1     3    1
    3     1     4    1
    4     1     5    1
    5     5     6    1
    6     5     7    1
    7     7     8    1
    8     7     9    1
    9     7    10    1
   10     5    11    1
   11    11    12    1
   12    11    13    1
   13    11    14    1
   14    14    15    1
   15    14    16    1
   16    14    17    1
   17    17    18    1
   18    17    19    1
   19    17    20    1
@<TRIPOS>SUBSTRUCTURE
       1 MOL1            1 RESIDUE      1      MOL     
@<SCITEGIC>MOL_PROPERTY
VConf Rank
SciTegic.value.IntegerValue
800

@<SCITEGIC>MOL_PROPERTY
Conf_Id
SciTegic.value.IntegerValue
55

@<SCITEGIC>MOL_PROPERTY
Delta U+W
SciTegic.value.DoubleValue
2.767

@<SCITEGIC>MOL_PROPERTY
U+W
SciTegic.value.DoubleValue
-33.509

@<SCITEGIC>MOL_PROPERTY
Grad RMS
SciTegic.value.DoubleValue
0.000000

@<SCITEGIC>MOL_PROPERTY
U
SciTegic.value.DoubleValue
24.552

@<SCITEGIC>MOL_PROPERTY
W
SciTegic.value.DoubleValue
-58.061

@<SCITEGIC>MOL_PROPERTY
W(PB)
SciTegic.value.DoubleValue
-59.930

@<SCITEGIC>MOL_PROPERTY
W(SA)
SciTegic.value.DoubleValue
1.869

@<SCITEGIC>MOL_PROPERTY
Valence
SciTegic.value.DoubleValue
3.726

@<SCITEGIC>MOL_PROPERTY
Coulomb
SciTegic.value.DoubleValue
20.219

@<SCITEGIC>MOL_PROPERTY
VdW
SciTegic.value.DoubleValue
0.606

@<SCITEGIC>MOL_PROPERTY
VdW6
SciTegic.value.DoubleValue
-6.395

@<SCITEGIC>MOL_PROPERTY
VdW12
SciTegic.value.DoubleValue
7.001

@<SCITEGIC>MOL_PROPERTY
Bond
SciTegic.value.DoubleValue
0.241

@<SCITEGIC>MOL_PROPERTY
Angle
SciTegic.value.DoubleValue
2.098

@<SCITEGIC>MOL_PROPERTY
Pdih
SciTegic.value.DoubleValue
1.387

@<SCITEGIC>MOL_PROPERTY
Idih
SciTegic.value.DoubleValue
0.000

@<SCITEGIC>MOL_PROPERTY
Tether
SciTegic.value.DoubleValue
0.000

@<TRIPOS>MOLECULE
guest-s10_confgen4.mol2 : confsearch ligand conformer 801
          20          19           1
SMALL
USER_CHARGES
 
@<TRIPOS>ATOM
       1    N1      20.478044   18.996913   24.548208 N.4        1 MOL1        -0.5937
       2    H1      21.434051   19.266508   24.303434 H          1 MOL1         0.3684
       3    H2      20.518115   18.516804   25.451284 H          1 MOL1         0.3684
       4    H3      19.941373   19.857036   24.685158 H          1 MOL1         0.3684
       5    C1      19.862358   18.124610   23.487510 C.3        1 MOL1         0.1270
       6    H4      18.848183   17.887913   23.824126 H          1 MOL1         0.0960
       7    C2      20.643609   16.807422   23.351010 C.3        1 MOL1        -0.2382
       8    H5      20.685189   16.279056   24.311408 H          1 MOL1         0.1009
       9    H6      21.672495   16.988489   23.015748 H          1 MOL1         0.1009
      10    H7      20.160574   16.140661   22.625927 H          1 MOL1         0.1009
      11    C3      19.763386   18.834395   22.119095 C.3        1 MOL1        -0.1392
      12    H8      20.768580   19.104519   21.769045 H          1 MOL1         0.0998
      13    H9      19.354943   18.129090   21.383035 H          1 MOL1         0.0998
      14    C4      18.865403   20.094527   22.153929 C.3        1 MOL1        -0.1302
      15    H10     19.284340   20.840566   22.842655 H          1 MOL1         0.0998
      16    H11     17.870311   19.829611   22.538445 H          1 MOL1         0.0998
      17    C5      18.719887   20.729519   20.754317 C.3        1 MOL1        -0.2317
      18    H12     19.696351   21.033379   20.355014 H          1 MOL1         0.1009
      19    H13     18.081773   21.621711   20.797773 H          1 MOL1         0.1009
      20    H14     18.265039   20.025197   20.045602 H          1 MOL1         0.1009
@<TRIPOS>BOND
    1     1     2    1
    2     1     3    1
    3     1     4    1
    4     1     5    1
    5     5     6    1
    6     5     7    1
    7     7     8    1
    8     7     9    1
    9     7    10    1
   10     5    11    1
   11    11    12    1
   12    11    13    1
   13    11    14    1
   14    14    15    1
   15    14    16    1
   16    14    17    1
   17    17    18    1
   18    17    19    1
   19    17    20    1
@<TRIPOS>SUBSTRUCTURE
       1 MOL1            1 RESIDUE      1      MOL     
@<SCITEGIC>MOL_PROPERTY
VConf Rank
SciTegic.value.IntegerValue
801

@<SCITEGIC>MOL_PROPERTY
Conf_Id
SciTegic.value.IntegerValue
74

@<SCITEGIC>MOL_PROPERTY
Delta U+W
SciTegic.value.DoubleValue
0.000

@<SCITEGIC>MOL_PROPERTY
U+W
SciTegic.value.DoubleValue
-36.276

@<SCITEGIC>MOL_PROPERTY
Grad RMS
SciTegic.value.DoubleValue
0.000000

@<SCITEGIC>MOL_PROPERTY
U
SciTegic.value.DoubleValue
22.080

@<SCITEGIC>MOL_PROPERTY
W
SciTegic.value.DoubleValue
-58.356

@<SCITEGIC>MOL_PROPERTY
W(PB)
SciTegic.value.DoubleValue
-60.289

@<SCITEGIC>MOL_PROPERTY
W(SA)
SciTegic.value.DoubleValue
1.932

@<SCITEGIC>MOL_PROPERTY
Valence
SciTegic.value.DoubleValue
1.885

@<SCITEGIC>MOL_PROPERTY
Coulomb
SciTegic.value.DoubleValue
19.559

@<SCITEGIC>MOL_PROPERTY
VdW
SciTegic.value.DoubleValue
0.637

@<SCITEGIC>MOL_PROPERTY
VdW6
SciTegic.value.DoubleValue
-4.482

@<SCITEGIC>MOL_PROPERTY
VdW12
SciTegic.value.DoubleValue
5.119

@<SCITEGIC>MOL_PROPERTY
Bond
SciTegic.value.DoubleValue
0.136

@<SCITEGIC>MOL_PROPERTY
Angle
SciTegic.value.DoubleValue
0.867

@<SCITEGIC>MOL_PROPERTY
Pdih
SciTegic.value.DoubleValue
0.882

@<SCITEGIC>MOL_PROPERTY
Idih
SciTegic.value.DoubleValue
0.000

@<SCITEGIC>MOL_PROPERTY
Tether
SciTegic.value.DoubleValue
0.000

@<TRIPOS>MOLECULE
guest-s10_confgen4.mol2 : confsearch ligand conformer 802
          20          19           1
SMALL
USER_CHARGES
 
@<TRIPOS>ATOM
       1    N1      18.707171   19.727570   24.725870 N.4        1 MOL1        -0.5937
       2    H1      19.520073   19.915074   25.319072 H          1 MOL1         0.3684
       3    H2      18.298426   18.842797   25.037049 H          1 MOL1         0.3684
       4    H3      18.020158   20.462688   24.913739 H          1 MOL1         0.3684
       5    C1      19.080687   19.681950   23.269549 C.3        1 MOL1         0.1270
       6    H4      19.502579   20.662729   23.028828 H          1 MOL1         0.0960
       7    C2      17.826208   19.466504   22.403139 C.3        1 MOL1        -0.2382
       8    H5      17.055413   20.207419   22.648374 H          1 MOL1         0.1009
       9    H6      17.400441   18.467971   22.561989 H          1 MOL1         0.1009
      10    H7      18.053476   19.577804   21.336750 H          1 MOL1         0.1009
      11    C3      20.164105   18.611068   23.003266 C.3        1 MOL1        -0.1392
      12    H8      20.979877   18.755582   23.723886 H          1 MOL1         0.0998
      13    H9      19.751947   17.611878   23.197156 H          1 MOL1         0.0998
      14    C4      20.756515   18.662655   21.573738 C.3        1 MOL1        -0.1302
      15    H10     21.112176   19.679668   21.356344 H          1 MOL1         0.0998
      16    H11     19.981419   18.430580   20.831263 H          1 MOL1         0.0998
      17    C5      21.923128   17.665682   21.404205 C.3        1 MOL1        -0.2317
      18    H12     22.740668   17.890628   22.101532 H          1 MOL1         0.1009
      19    H13     22.328361   17.712786   20.385061 H          1 MOL1         0.1009
      20    H14     21.591628   16.635208   21.587210 H          1 MOL1         0.1009
@<TRIPOS>BOND
    1     1     2    1
    2     1     3    1
    3     1     4    1
    4     1     5    1
    5     5     6    1
    6     5     7    1
    7     7     8    1
    8     7     9    1
    9     7    10    1
   10     5    11    1
   11    11    12    1
   12    11    13    1
   13    11    14    1
   14    14    15    1
   15    14    16    1
   16    14    17    1
   17    17    18    1
   18    17    19    1
   19    17    20    1
@<TRIPOS>SUBSTRUCTURE
       1 MOL1            1 RESIDUE      1      MOL     
@<SCITEGIC>MOL_PROPERTY
VConf Rank
SciTegic.value.IntegerValue
802

@<SCITEGIC>MOL_PROPERTY
Conf_Id
SciTegic.value.IntegerValue
80

@<SCITEGIC>MOL_PROPERTY
Delta U+W
SciTegic.value.DoubleValue
0.460

@<SCITEGIC>MOL_PROPERTY
U+W
SciTegic.value.DoubleValue
-35.817

@<SCITEGIC>MOL_PROPERTY
Grad RMS
SciTegic.value.DoubleValue
0.000000

@<SCITEGIC>MOL_PROPERTY
U
SciTegic.value.DoubleValue
22.495

@<SCITEGIC>MOL_PROPERTY
W
SciTegic.value.DoubleValue
-58.311

@<SCITEGIC>MOL_PROPERTY
W(PB)
SciTegic.value.DoubleValue
-60.259

@<SCITEGIC>MOL_PROPERTY
W(SA)
SciTegic.value.DoubleValue
1.948

@<SCITEGIC>MOL_PROPERTY
Valence
SciTegic.value.DoubleValue
2.419

@<SCITEGIC>MOL_PROPERTY
Coulomb
SciTegic.value.DoubleValue
19.304

@<SCITEGIC>MOL_PROPERTY
VdW
SciTegic.value.DoubleValue
0.772

@<SCITEGIC>MOL_PROPERTY
VdW6
SciTegic.value.DoubleValue
-4.635

@<SCITEGIC>MOL_PROPERTY
VdW12
SciTegic.value.DoubleValue
5.407

@<SCITEGIC>MOL_PROPERTY
Bond
SciTegic.value.DoubleValue
0.149

@<SCITEGIC>MOL_PROPERTY
Angle
SciTegic.value.DoubleValue
1.142

@<SCITEGIC>MOL_PROPERTY
Pdih
SciTegic.value.DoubleValue
1.129

@<SCITEGIC>MOL_PROPERTY
Idih
SciTegic.value.DoubleValue
0.000

@<SCITEGIC>MOL_PROPERTY
Tether
SciTegic.value.DoubleValue
0.000

@<TRIPOS>MOLECULE
guest-s10_confgen4.mol2 : confsearch ligand conformer 803
          20          19           1
SMALL
USER_CHARGES
 
@<TRIPOS>ATOM
       1    N1      20.252389   18.775002   20.381063 N.4        1 MOL1        -0.5937
       2    H1      19.400849   18.647333   19.827537 H          1 MOL1         0.3684
       3    H2      20.722736   17.867965   20.433476 H          1 MOL1         0.3684
       4    H3      20.863714   19.404584   19.854257 H          1 MOL1         0.3684
       5    C1      19.949188   19.319629   21.750077 C.3        1 MOL1         0.1270
       6    H4      19.457248   20.284678   21.593639 H          1 MOL1         0.0960
       7    C2      21.254457   19.568609   22.525022 C.3        1 MOL1        -0.2382
       8    H5      21.959168   20.151919   21.919816 H          1 MOL1         0.1009
       9    H6      21.740989   18.624442   22.799412 H          1 MOL1         0.1009
      10    H7      21.064865   20.142522   23.439180 H          1 MOL1         0.1009
      11    C3      18.965164   18.396723   22.509865 C.3        1 MOL1        -0.1392
      12    H8      18.087871   18.249741   21.866090 H          1 MOL1         0.0998
      13    H9      19.406580   17.400349   22.644480 H          1 MOL1         0.0998
      14    C4      18.464794   18.950385   23.870281 C.3        1 MOL1        -0.1302
      15    H10     17.410739   18.666090   23.997801 H          1 MOL1         0.0998
      16    H11     18.481277   20.049324   23.865035 H          1 MOL1         0.0998
      17    C5      19.254203   18.405335   25.083866 C.3        1 MOL1        -0.2317
      18    H12     19.180173   17.311512   25.140309 H          1 MOL1         0.1009
      19    H13     18.850689   18.814024   26.019351 H          1 MOL1         0.1009
      20    H14     20.316740   18.668893   25.038091 H          1 MOL1         0.1009
@<TRIPOS>BOND
    1     1     2    1
    2     1     3    1
    3     1     4    1
    4     1     5    1
    5     5     6    1
    6     5     7    1
    7     7     8    1
    8     7     9    1
    9     7    10    1
   10     5    11    1
   11    11    12    1
   12    11    13    1
   13    11    14    1
   14    14    15    1
   15    14    16    1
   16    14    17    1
   17    17    18    1
   18    17    19    1
   19    17    20    1
@<TRIPOS>SUBSTRUCTURE
       1 MOL1            1 RESIDUE      1      MOL     
@<SCITEGIC>MOL_PROPERTY
VConf Rank
SciTegic.value.IntegerValue
803

@<SCITEGIC>MOL_PROPERTY
Conf_Id
SciTegic.value.IntegerValue
52

@<SCITEGIC>MOL_PROPERTY
Delta U+W
SciTegic.value.DoubleValue
2.995

@<SCITEGIC>MOL_PROPERTY
U+W
SciTegic.value.DoubleValue
-33.282

@<SCITEGIC>MOL_PROPERTY
Grad RMS
SciTegic.value.DoubleValue
0.000000

@<SCITEGIC>MOL_PROPERTY
U
SciTegic.value.DoubleValue
25.224

@<SCITEGIC>MOL_PROPERTY
W
SciTegic.value.DoubleValue
-58.506

@<SCITEGIC>MOL_PROPERTY
W(PB)
SciTegic.value.DoubleValue
-60.411

@<SCITEGIC>MOL_PROPERTY
W(SA)
SciTegic.value.DoubleValue
1.905

@<SCITEGIC>MOL_PROPERTY
Valence
SciTegic.value.DoubleValue
4.945

@<SCITEGIC>MOL_PROPERTY
Coulomb
SciTegic.value.DoubleValue
19.467

@<SCITEGIC>MOL_PROPERTY
VdW
SciTegic.value.DoubleValue
0.813

@<SCITEGIC>MOL_PROPERTY
VdW6
SciTegic.value.DoubleValue
-5.458

@<SCITEGIC>MOL_PROPERTY
VdW12
SciTegic.value.DoubleValue
6.270

@<SCITEGIC>MOL_PROPERTY
Bond
SciTegic.value.DoubleValue
0.200

@<SCITEGIC>MOL_PROPERTY
Angle
SciTegic.value.DoubleValue
1.675

@<SCITEGIC>MOL_PROPERTY
Pdih
SciTegic.value.DoubleValue
3.070

@<SCITEGIC>MOL_PROPERTY
Idih
SciTegic.value.DoubleValue
0.000

@<SCITEGIC>MOL_PROPERTY
Tether
SciTegic.value.DoubleValue
0.000

@<TRIPOS>MOLECULE
guest-s10_confgen4.mol2 : confsearch ligand conformer 804
          20          19           1
SMALL
USER_CHARGES
 
@<TRIPOS>ATOM
       1    N1      19.755872   19.495215   24.293097 N.4        1 MOL1        -0.5937
       2    H1      18.767300   19.559410   24.548011 H          1 MOL1         0.3684
       3    H2      20.280497   20.075183   24.953440 H          1 MOL1         0.3684
       4    H3      20.046075   18.525403   24.435339 H          1 MOL1         0.3684
       5    C1      19.985164   19.931022   22.871567 C.3        1 MOL1         0.1270
       6    H4      21.063160   19.881667   22.689292 H          1 MOL1         0.0960
       7    C2      19.533924   21.390733   22.694406 C.3        1 MOL1        -0.2382
       8    H5      18.452911   21.494034   22.851242 H          1 MOL1         0.1009
       9    H6      19.769256   21.753292   21.686033 H          1 MOL1         0.1009
      10    H7      20.047249   22.045811   23.409043 H          1 MOL1         0.1009
      11    C3      19.275985   19.018524   21.842661 C.3        1 MOL1        -0.1392
      12    H8      18.236659   18.843956   22.150720 H          1 MOL1         0.0998
      13    H9      19.218861   19.550767   20.883736 H          1 MOL1         0.0998
      14    C4      19.987607   17.666651   21.573142 C.3        1 MOL1        -0.1302
      15    H10     21.011923   17.851394   21.220040 H          1 MOL1         0.0998
      16    H11     19.467968   17.165799   20.744198 H          1 MOL1         0.0998
      17    C5      20.024141   16.700257   22.778943 C.3        1 MOL1        -0.2317
      18    H12     20.356164   15.704717   22.456535 H          1 MOL1         0.1009
      19    H13     19.030187   16.588146   23.231496 H          1 MOL1         0.1009
      20    H14     20.729491   17.038289   23.546833 H          1 MOL1         0.1009
@<TRIPOS>BOND
    1     1     2    1
    2     1     3    1
    3     1     4    1
    4     1     5    1
    5     5     6    1
    6     5     7    1
    7     7     8    1
    8     7     9    1
    9     7    10    1
   10     5    11    1
   11    11    12    1
   12    11    13    1
   13    11    14    1
   14    14    15    1
   15    14    16    1
   16    14    17    1
   17    17    18    1
   18    17    19    1
   19    17    20    1
@<TRIPOS>SUBSTRUCTURE
       1 MOL1            1 RESIDUE      1      MOL     
@<SCITEGIC>MOL_PROPERTY
VConf Rank
SciTegic.value.IntegerValue
804

@<SCITEGIC>MOL_PROPERTY
Conf_Id
SciTegic.value.IntegerValue
54

@<SCITEGIC>MOL_PROPERTY
Delta U+W
SciTegic.value.DoubleValue
2.752

@<SCITEGIC>MOL_PROPERTY
U+W
SciTegic.value.DoubleValue
-33.525

@<SCITEGIC>MOL_PROPERTY
Grad RMS
SciTegic.value.DoubleValue
0.000000

@<SCITEGIC>MOL_PROPERTY
U
SciTegic.value.DoubleValue
24.337

@<SCITEGIC>MOL_PROPERTY
W
SciTegic.value.DoubleValue
-57.862

@<SCITEGIC>MOL_PROPERTY
W(PB)
SciTegic.value.DoubleValue
-59.764

@<SCITEGIC>MOL_PROPERTY
W(SA)
SciTegic.value.DoubleValue
1.901

@<SCITEGIC>MOL_PROPERTY
Valence
SciTegic.value.DoubleValue
3.593

@<SCITEGIC>MOL_PROPERTY
Coulomb
SciTegic.value.DoubleValue
20.067

@<SCITEGIC>MOL_PROPERTY
VdW
SciTegic.value.DoubleValue
0.677

@<SCITEGIC>MOL_PROPERTY
VdW6
SciTegic.value.DoubleValue
-5.466

@<SCITEGIC>MOL_PROPERTY
VdW12
SciTegic.value.DoubleValue
6.144

@<SCITEGIC>MOL_PROPERTY
Bond
SciTegic.value.DoubleValue
0.191

@<SCITEGIC>MOL_PROPERTY
Angle
SciTegic.value.DoubleValue
1.557

@<SCITEGIC>MOL_PROPERTY
Pdih
SciTegic.value.DoubleValue
1.845

@<SCITEGIC>MOL_PROPERTY
Idih
SciTegic.value.DoubleValue
0.000

@<SCITEGIC>MOL_PROPERTY
Tether
SciTegic.value.DoubleValue
0.000

@<TRIPOS>MOLECULE
guest-s10_confgen4.mol2 : confsearch ligand conformer 805
          20          19           1
SMALL
USER_CHARGES
 
@<TRIPOS>ATOM
       1    N1      19.123544   19.902907   20.973948 N.4        1 MOL1        -0.5937
       2    H1      18.330809   20.029084   20.338885 H          1 MOL1         0.3684
       3    H2      19.977048   20.004073   20.418065 H          1 MOL1         0.3684
       4    H3      19.101600   20.672869   21.646351 H          1 MOL1         0.3684
       5    C1      19.068433   18.567464   21.664921 C.3        1 MOL1         0.1270
       6    H4      19.079219   17.814873   20.870243 H          1 MOL1         0.0960
       7    C2      17.750840   18.401311   22.442856 C.3        1 MOL1        -0.2382
       8    H5      17.715312   17.427386   22.946522 H          1 MOL1         0.1009
       9    H6      16.893553   18.453529   21.760641 H          1 MOL1         0.1009
      10    H7      17.624239   19.184632   23.199443 H          1 MOL1         0.1009
      11    C3      20.306939   18.309627   22.556367 C.3        1 MOL1        -0.1392
      12    H8      20.247513   17.288696   22.956245 H          1 MOL1         0.0998
      13    H9      21.202303   18.332428   21.921379 H          1 MOL1         0.0998
      14    C4      20.489221   19.308369   23.728387 C.3        1 MOL1        -0.1302
      15    H10     19.625084   19.262760   24.404553 H          1 MOL1         0.0998
      16    H11     20.541097   20.336584   23.345968 H          1 MOL1         0.0998
      17    C5      21.770356   19.006872   24.535309 C.3        1 MOL1        -0.2317
      18    H12     21.884714   19.719957   25.362048 H          1 MOL1         0.1009
      19    H13     22.663614   19.081046   23.901426 H          1 MOL1         0.1009
      20    H14     21.738638   17.996836   24.964314 H          1 MOL1         0.1009
@<TRIPOS>BOND
    1     1     2    1
    2     1     3    1
    3     1     4    1
    4     1     5    1
    5     5     6    1
    6     5     7    1
    7     7     8    1
    8     7     9    1
    9     7    10    1
   10     5    11    1
   11    11    12    1
   12    11    13    1
   13    11    14    1
   14    14    15    1
   15    14    16    1
   16    14    17    1
   17    17    18    1
   18    17    19    1
   19    17    20    1
@<TRIPOS>SUBSTRUCTURE
       1 MOL1            1 RESIDUE      1      MOL     
@<SCITEGIC>MOL_PROPERTY
VConf Rank
SciTegic.value.IntegerValue
805

@<SCITEGIC>MOL_PROPERTY
Conf_Id
SciTegic.value.IntegerValue
63

@<SCITEGIC>MOL_PROPERTY
Delta U+W
SciTegic.value.DoubleValue
0.420

@<SCITEGIC>MOL_PROPERTY
U+W
SciTegic.value.DoubleValue
-35.856

@<SCITEGIC>MOL_PROPERTY
Grad RMS
SciTegic.value.DoubleValue
0.000000

@<SCITEGIC>MOL_PROPERTY
U
SciTegic.value.DoubleValue
22.625

@<SCITEGIC>MOL_PROPERTY
W
SciTegic.value.DoubleValue
-58.481

@<SCITEGIC>MOL_PROPERTY
W(PB)
SciTegic.value.DoubleValue
-60.400

@<SCITEGIC>MOL_PROPERTY
W(SA)
SciTegic.value.DoubleValue
1.919

@<SCITEGIC>MOL_PROPERTY
Valence
SciTegic.value.DoubleValue
2.404

@<SCITEGIC>MOL_PROPERTY
Coulomb
SciTegic.value.DoubleValue
19.464

@<SCITEGIC>MOL_PROPERTY
VdW
SciTegic.value.DoubleValue
0.757

@<SCITEGIC>MOL_PROPERTY
VdW6
SciTegic.value.DoubleValue
-5.074

@<SCITEGIC>MOL_PROPERTY
VdW12
SciTegic.value.DoubleValue
5.830

@<SCITEGIC>MOL_PROPERTY
Bond
SciTegic.value.DoubleValue
0.172

@<SCITEGIC>MOL_PROPERTY
Angle
SciTegic.value.DoubleValue
1.207

@<SCITEGIC>MOL_PROPERTY
Pdih
SciTegic.value.DoubleValue
1.025

@<SCITEGIC>MOL_PROPERTY
Idih
SciTegic.value.DoubleValue
0.000

@<SCITEGIC>MOL_PROPERTY
Tether
SciTegic.value.DoubleValue
0.000

@<TRIPOS>MOLECULE
guest-s10_confgen4.mol2 : confsearch ligand conformer 806
          20          19           1
SMALL
USER_CHARGES
 
@<TRIPOS>ATOM
       1    N1      21.068424   19.327578   21.710215 N.4        1 MOL1        -0.5937
       2    H1      20.390267   19.842056   21.142509 H          1 MOL1         0.3684
       3    H2      21.337574   18.491363   21.186073 H          1 MOL1         0.3684
       4    H3      21.901897   19.915076   21.798021 H          1 MOL1         0.3684
       5    C1      20.497825   18.974079   23.056927 C.3        1 MOL1         0.1270
       6    H4      20.241364   19.917790   23.547606 H          1 MOL1         0.0960
       7    C2      21.548007   18.256247   23.920261 C.3        1 MOL1        -0.2382
       8    H5      22.446206   18.875518   24.034186 H          1 MOL1         0.1009
       9    H6      21.846441   17.300833   23.470955 H          1 MOL1         0.1009
      10    H7      21.154653   18.053489   24.924145 H          1 MOL1         0.1009
      11    C3      19.214460   18.119465   22.949264 C.3        1 MOL1        -0.1392
      12    H8      19.454896   17.159532   22.473289 H          1 MOL1         0.0998
      13    H9      18.859125   17.879682   23.960288 H          1 MOL1         0.0998
      14    C4      18.062667   18.799079   22.166067 C.3        1 MOL1        -0.1302
      15    H10     17.202210   18.115787   22.141010 H          1 MOL1         0.0998
      16    H11     18.354998   18.954206   21.118668 H          1 MOL1         0.0998
      17    C5      17.617276   20.142400   22.787744 C.3        1 MOL1        -0.2317
      18    H12     17.319716   20.012335   23.836420 H          1 MOL1         0.1009
      19    H13     16.755586   20.550809   22.243905 H          1 MOL1         0.1009
      20    H14     18.417766   20.891810   22.749046 H          1 MOL1         0.1009
@<TRIPOS>BOND
    1     1     2    1
    2     1     3    1
    3     1     4    1
    4     1     5    1
    5     5     6    1
    6     5     7    1
    7     7     8    1
    8     7     9    1
    9     7    10    1
   10     5    11    1
   11    11    12    1
   12    11    13    1
   13    11    14    1
   14    14    15    1
   15    14    16    1
   16    14    17    1
   17    17    18    1
   18    17    19    1
   19    17    20    1
@<TRIPOS>SUBSTRUCTURE
       1 MOL1            1 RESIDUE      1      MOL     
@<SCITEGIC>MOL_PROPERTY
VConf Rank
SciTegic.value.IntegerValue
806

@<SCITEGIC>MOL_PROPERTY
Conf_Id
SciTegic.value.IntegerValue
50

@<SCITEGIC>MOL_PROPERTY
Delta U+W
SciTegic.value.DoubleValue
0.466

@<SCITEGIC>MOL_PROPERTY
U+W
SciTegic.value.DoubleValue
-35.811

@<SCITEGIC>MOL_PROPERTY
Grad RMS
SciTegic.value.DoubleValue
0.000000

@<SCITEGIC>MOL_PROPERTY
U
SciTegic.value.DoubleValue
22.369

@<SCITEGIC>MOL_PROPERTY
W
SciTegic.value.DoubleValue
-58.180

@<SCITEGIC>MOL_PROPERTY
W(PB)
SciTegic.value.DoubleValue
-60.103

@<SCITEGIC>MOL_PROPERTY
W(SA)
SciTegic.value.DoubleValue
1.923

@<SCITEGIC>MOL_PROPERTY
Valence
SciTegic.value.DoubleValue
2.168

@<SCITEGIC>MOL_PROPERTY
Coulomb
SciTegic.value.DoubleValue
19.636

@<SCITEGIC>MOL_PROPERTY
VdW
SciTegic.value.DoubleValue
0.566

@<SCITEGIC>MOL_PROPERTY
VdW6
SciTegic.value.DoubleValue
-5.263

@<SCITEGIC>MOL_PROPERTY
VdW12
SciTegic.value.DoubleValue
5.829

@<SCITEGIC>MOL_PROPERTY
Bond
SciTegic.value.DoubleValue
0.162

@<SCITEGIC>MOL_PROPERTY
Angle
SciTegic.value.DoubleValue
1.066

@<SCITEGIC>MOL_PROPERTY
Pdih
SciTegic.value.DoubleValue
0.939

@<SCITEGIC>MOL_PROPERTY
Idih
SciTegic.value.DoubleValue
0.000

@<SCITEGIC>MOL_PROPERTY
Tether
SciTegic.value.DoubleValue
0.000

@<TRIPOS>MOLECULE
guest-s10_confgen4.mol2 : confsearch ligand conformer 807
          20          19           1
SMALL
USER_CHARGES
 
@<TRIPOS>ATOM
       1    N1      19.237097   16.928606   21.637587 N.4        1 MOL1        -0.5937
       2    H1      19.884644   16.926688   20.844695 H          1 MOL1         0.3684
       3    H2      18.290175   17.018811   21.260659 H          1 MOL1         0.3684
       4    H3      19.301170   16.008882   22.082265 H          1 MOL1         0.3684
       5    C1      19.552867   18.033346   22.609400 C.3        1 MOL1         0.1270
       6    H4      20.576835   17.854453   22.951818 H          1 MOL1         0.0960
       7    C2      18.606110   17.955201   23.821632 C.3        1 MOL1        -0.2382
       8    H5      17.560369   18.082490   23.515219 H          1 MOL1         0.1009
       9    H6      18.835704   18.728429   24.562708 H          1 MOL1         0.1009
      10    H7      18.696764   16.982513   24.320418 H          1 MOL1         0.1009
      11    C3      19.506745   19.426895   21.935512 C.3        1 MOL1        -0.1392
      12    H8      19.555697   19.300960   20.845825 H          1 MOL1         0.0998
      13    H9      18.544066   19.916968   22.133224 H          1 MOL1         0.0998
      14    C4      20.674022   20.360660   22.344571 C.3        1 MOL1        -0.1302
      15    H10     20.601288   21.289306   21.761254 H          1 MOL1         0.0998
      16    H11     21.630472   19.897950   22.063176 H          1 MOL1         0.0998
      17    C5      20.700502   20.718632   23.847033 C.3        1 MOL1        -0.2317
      18    H12     19.741793   21.144828   24.169930 H          1 MOL1         0.1009
      19    H13     21.482321   21.461940   24.050241 H          1 MOL1         0.1009
      20    H14     20.917040   19.838487   24.465164 H          1 MOL1         0.1009
@<TRIPOS>BOND
    1     1     2    1
    2     1     3    1
    3     1     4    1
    4     1     5    1
    5     5     6    1
    6     5     7    1
    7     7     8    1
    8     7     9    1
    9     7    10    1
   10     5    11    1
   11    11    12    1
   12    11    13    1
   13    11    14    1
   14    14    15    1
   15    14    16    1
   16    14    17    1
   17    17    18    1
   18    17    19    1
   19    17    20    1
@<TRIPOS>SUBSTRUCTURE
       1 MOL1            1 RESIDUE      1      MOL     
@<SCITEGIC>MOL_PROPERTY
VConf Rank
SciTegic.value.IntegerValue
807

@<SCITEGIC>MOL_PROPERTY
Conf_Id
SciTegic.value.IntegerValue
3

@<SCITEGIC>MOL_PROPERTY
Delta U+W
SciTegic.value.DoubleValue
3.093

@<SCITEGIC>MOL_PROPERTY
U+W
SciTegic.value.DoubleValue
-33.184

@<SCITEGIC>MOL_PROPERTY
Grad RMS
SciTegic.value.DoubleValue
0.000000

@<SCITEGIC>MOL_PROPERTY
U
SciTegic.value.DoubleValue
25.256

@<SCITEGIC>MOL_PROPERTY
W
SciTegic.value.DoubleValue
-58.439

@<SCITEGIC>MOL_PROPERTY
W(PB)
SciTegic.value.DoubleValue
-60.337

@<SCITEGIC>MOL_PROPERTY
W(SA)
SciTegic.value.DoubleValue
1.898

@<SCITEGIC>MOL_PROPERTY
Valence
SciTegic.value.DoubleValue
4.963

@<SCITEGIC>MOL_PROPERTY
Coulomb
SciTegic.value.DoubleValue
19.511

@<SCITEGIC>MOL_PROPERTY
VdW
SciTegic.value.DoubleValue
0.782

@<SCITEGIC>MOL_PROPERTY
VdW6
SciTegic.value.DoubleValue
-5.429

@<SCITEGIC>MOL_PROPERTY
VdW12
SciTegic.value.DoubleValue
6.211

@<SCITEGIC>MOL_PROPERTY
Bond
SciTegic.value.DoubleValue
0.174

@<SCITEGIC>MOL_PROPERTY
Angle
SciTegic.value.DoubleValue
1.377

@<SCITEGIC>MOL_PROPERTY
Pdih
SciTegic.value.DoubleValue
3.412

@<SCITEGIC>MOL_PROPERTY
Idih
SciTegic.value.DoubleValue
0.000

@<SCITEGIC>MOL_PROPERTY
Tether
SciTegic.value.DoubleValue
0.000

@<TRIPOS>MOLECULE
guest-s10_confgen4.mol2 : confsearch ligand conformer 808
          20          19           1
SMALL
USER_CHARGES
 
@<TRIPOS>ATOM
       1    N1      21.205031   20.151481   21.582913 N.4        1 MOL1        -0.5937
       2    H1      22.203890   20.159650   21.806185 H          1 MOL1         0.3684
       3    H2      20.866650   21.113115   21.675591 H          1 MOL1         0.3684
       4    H3      21.115917   19.888971   20.598113 H          1 MOL1         0.3684
       5    C1      20.448363   19.207848   22.477000 C.3        1 MOL1         0.1270
       6    H4      20.604525   19.563247   23.499937 H          1 MOL1         0.0960
       7    C2      21.024542   17.784740   22.363492 C.3        1 MOL1        -0.2382
       8    H5      20.579286   17.114859   23.108168 H          1 MOL1         0.1009
       9    H6      22.107286   17.790760   22.538886 H          1 MOL1         0.1009
      10    H7      20.843397   17.361192   21.367861 H          1 MOL1         0.1009
      11    C3      18.931113   19.246188   22.175487 C.3        1 MOL1        -0.1392
      12    H8      18.595888   20.291591   22.192360 H          1 MOL1         0.0998
      13    H9      18.754598   18.886494   21.153137 H          1 MOL1         0.0998
      14    C4      18.047249   18.434971   23.157227 C.3        1 MOL1        -0.1302
      15    H10     18.264705   17.362025   23.069060 H          1 MOL1         0.0998
      16    H11     16.994999   18.552799   22.862736 H          1 MOL1         0.0998
      17    C5      18.208433   18.881677   24.628154 C.3        1 MOL1        -0.2317
      18    H12     17.998487   19.953310   24.740766 H          1 MOL1         0.1009
      19    H13     19.223100   18.689541   24.999096 H          1 MOL1         0.1009
      20    H14     17.510848   18.334009   25.275032 H          1 MOL1         0.1009
@<TRIPOS>BOND
    1     1     2    1
    2     1     3    1
    3     1     4    1
    4     1     5    1
    5     5     6    1
    6     5     7    1
    7     7     8    1
    8     7     9    1
    9     7    10    1
   10     5    11    1
   11    11    12    1
   12    11    13    1
   13    11    14    1
   14    14    15    1
   15    14    16    1
   16    14    17    1
   17    17    18    1
   18    17    19    1
   19    17    20    1
@<TRIPOS>SUBSTRUCTURE
       1 MOL1            1 RESIDUE      1      MOL     
@<SCITEGIC>MOL_PROPERTY
VConf Rank
SciTegic.value.IntegerValue
808

@<SCITEGIC>MOL_PROPERTY
Conf_Id
SciTegic.value.IntegerValue
64

@<SCITEGIC>MOL_PROPERTY
Delta U+W
SciTegic.value.DoubleValue
0.544

@<SCITEGIC>MOL_PROPERTY
U+W
SciTegic.value.DoubleValue
-35.732

@<SCITEGIC>MOL_PROPERTY
Grad RMS
SciTegic.value.DoubleValue
0.000000

@<SCITEGIC>MOL_PROPERTY
U
SciTegic.value.DoubleValue
22.800

@<SCITEGIC>MOL_PROPERTY
W
SciTegic.value.DoubleValue
-58.532

@<SCITEGIC>MOL_PROPERTY
W(PB)
SciTegic.value.DoubleValue
-60.437

@<SCITEGIC>MOL_PROPERTY
W(SA)
SciTegic.value.DoubleValue
1.905

@<SCITEGIC>MOL_PROPERTY
Valence
SciTegic.value.DoubleValue
2.662

@<SCITEGIC>MOL_PROPERTY
Coulomb
SciTegic.value.DoubleValue
19.485

@<SCITEGIC>MOL_PROPERTY
VdW
SciTegic.value.DoubleValue
0.653

@<SCITEGIC>MOL_PROPERTY
VdW6
SciTegic.value.DoubleValue
-5.460

@<SCITEGIC>MOL_PROPERTY
VdW12
SciTegic.value.DoubleValue
6.113

@<SCITEGIC>MOL_PROPERTY
Bond
SciTegic.value.DoubleValue
0.174

@<SCITEGIC>MOL_PROPERTY
Angle
SciTegic.value.DoubleValue
1.378

@<SCITEGIC>MOL_PROPERTY
Pdih
SciTegic.value.DoubleValue
1.109

@<SCITEGIC>MOL_PROPERTY
Idih
SciTegic.value.DoubleValue
0.000

@<SCITEGIC>MOL_PROPERTY
Tether
SciTegic.value.DoubleValue
0.000

@<TRIPOS>MOLECULE
guest-s10_confgen4.mol2 : confsearch ligand conformer 809
          20          19           1
SMALL
USER_CHARGES
 
@<TRIPOS>ATOM
       1    N1      18.976270   19.518526   20.841344 N.4        1 MOL1        -0.5937
       2    H1      19.914263   19.923402   20.802378 H          1 MOL1         0.3684
       3    H2      18.316758   20.247173   20.555459 H          1 MOL1         0.3684
       4    H3      18.932431   18.776508   20.137677 H          1 MOL1         0.3684
       5    C1      18.657930   18.996947   22.216643 C.3        1 MOL1         0.1270
       6    H4      17.640020   18.599047   22.157493 H          1 MOL1         0.0960
       7    C2      18.645547   20.138445   23.246475 C.3        1 MOL1        -0.2382
       8    H5      19.601384   20.674933   23.262743 H          1 MOL1         0.1009
       9    H6      18.442954   19.754136   24.253749 H          1 MOL1         0.1009
      10    H7      17.860280   20.864602   23.003530 H          1 MOL1         0.1009
      11    C3      19.579010   17.821115   22.628918 C.3        1 MOL1        -0.1392
      12    H8      19.197936   17.366633   23.552891 H          1 MOL1         0.0998
      13    H9      19.478744   17.041695   21.862151 H          1 MOL1         0.0998
      14    C4      21.088408   18.154546   22.789434 C.3        1 MOL1        -0.1302
      15    H10     21.386169   18.961559   22.107196 H          1 MOL1         0.0998
      16    H11     21.671508   17.274426   22.483876 H          1 MOL1         0.0998
      17    C5      21.492549   18.507625   24.240211 C.3        1 MOL1        -0.2317
      18    H12     20.983635   19.406769   24.604249 H          1 MOL1         0.1009
      19    H13     22.572949   18.691336   24.303072 H          1 MOL1         0.1009
      20    H14     21.255870   17.683523   24.925689 H          1 MOL1         0.1009
@<TRIPOS>BOND
    1     1     2    1
    2     1     3    1
    3     1     4    1
    4     1     5    1
    5     5     6    1
    6     5     7    1
    7     7     8    1
    8     7     9    1
    9     7    10    1
   10     5    11    1
   11    11    12    1
   12    11    13    1
   13    11    14    1
   14    14    15    1
   15    14    16    1
   16    14    17    1
   17    17    18    1
   18    17    19    1
   19    17    20    1
@<TRIPOS>SUBSTRUCTURE
       1 MOL1            1 RESIDUE      1      MOL     
@<SCITEGIC>MOL_PROPERTY
VConf Rank
SciTegic.value.IntegerValue
809

@<SCITEGIC>MOL_PROPERTY
Conf_Id
SciTegic.value.IntegerValue
35

@<SCITEGIC>MOL_PROPERTY
Delta U+W
SciTegic.value.DoubleValue
3.004

@<SCITEGIC>MOL_PROPERTY
U+W
SciTegic.value.DoubleValue
-33.272

@<SCITEGIC>MOL_PROPERTY
Grad RMS
SciTegic.value.DoubleValue
0.000000

@<SCITEGIC>MOL_PROPERTY
U
SciTegic.value.DoubleValue
25.367

@<SCITEGIC>MOL_PROPERTY
W
SciTegic.value.DoubleValue
-58.639

@<SCITEGIC>MOL_PROPERTY
W(PB)
SciTegic.value.DoubleValue
-60.512

@<SCITEGIC>MOL_PROPERTY
W(SA)
SciTegic.value.DoubleValue
1.873

@<SCITEGIC>MOL_PROPERTY
Valence
SciTegic.value.DoubleValue
4.943

@<SCITEGIC>MOL_PROPERTY
Coulomb
SciTegic.value.DoubleValue
19.661

@<SCITEGIC>MOL_PROPERTY
VdW
SciTegic.value.DoubleValue
0.764

@<SCITEGIC>MOL_PROPERTY
VdW6
SciTegic.value.DoubleValue
-5.871

@<SCITEGIC>MOL_PROPERTY
VdW12
SciTegic.value.DoubleValue
6.636

@<SCITEGIC>MOL_PROPERTY
Bond
SciTegic.value.DoubleValue
0.230

@<SCITEGIC>MOL_PROPERTY
Angle
SciTegic.value.DoubleValue
1.857

@<SCITEGIC>MOL_PROPERTY
Pdih
SciTegic.value.DoubleValue
2.855

@<SCITEGIC>MOL_PROPERTY
Idih
SciTegic.value.DoubleValue
0.000

@<SCITEGIC>MOL_PROPERTY
Tether
SciTegic.value.DoubleValue
0.000

@<TRIPOS>MOLECULE
guest-s10_confgen4.mol2 : confsearch ligand conformer 810
          20          19           1
SMALL
USER_CHARGES
 
@<TRIPOS>ATOM
       1    N1      18.667016   17.900892   21.836960 N.4        1 MOL1        -0.5937
       2    H1      18.700170   17.071796   21.237709 H          1 MOL1         0.3684
       3    H2      17.746843   18.331051   21.711158 H          1 MOL1         0.3684
       4    H3      18.727021   17.585009   22.806813 H          1 MOL1         0.3684
       5    C1      19.774734   18.863992   21.508535 C.3        1 MOL1         0.1270
       6    H4      19.604200   19.156905   20.467840 H          1 MOL1         0.0960
       7    C2      21.151459   18.179062   21.571853 C.3        1 MOL1        -0.2382
       8    H5      21.355927   17.772406   22.569410 H          1 MOL1         0.1009
       9    H6      21.950070   18.887079   21.318175 H          1 MOL1         0.1009
      10    H7      21.201691   17.350380   20.855104 H          1 MOL1         0.1009
      11    C3      19.721182   20.162291   22.354032 C.3        1 MOL1        -0.1392
      12    H8      20.342339   20.913637   21.848872 H          1 MOL1         0.0998
      13    H9      18.699543   20.563114   22.325547 H          1 MOL1         0.0998
      14    C4      20.194717   20.070815   23.831866 C.3        1 MOL1        -0.1302
      15    H10     20.136290   21.077191   24.269608 H          1 MOL1         0.0998
      16    H11     21.256409   19.792311   23.875178 H          1 MOL1         0.0998
      17    C5      19.368585   19.109087   24.715895 C.3        1 MOL1        -0.2317
      18    H12     18.293061   19.309582   24.625394 H          1 MOL1         0.1009
      19    H13     19.642281   19.234169   25.771648 H          1 MOL1         0.1009
      20    H14     19.557070   18.060774   24.457474 H          1 MOL1         0.1009
@<TRIPOS>BOND
    1     1     2    1
    2     1     3    1
    3     1     4    1
    4     1     5    1
    5     5     6    1
    6     5     7    1
    7     7     8    1
    8     7     9    1
    9     7    10    1
   10     5    11    1
   11    11    12    1
   12    11    13    1
   13    11    14    1
   14    14    15    1
   15    14    16    1
   16    14    17    1
   17    17    18    1
   18    17    19    1
   19    17    20    1
@<TRIPOS>SUBSTRUCTURE
       1 MOL1            1 RESIDUE      1      MOL     
@<SCITEGIC>MOL_PROPERTY
VConf Rank
SciTegic.value.IntegerValue
810

@<SCITEGIC>MOL_PROPERTY
Conf_Id
SciTegic.value.IntegerValue
55

@<SCITEGIC>MOL_PROPERTY
Delta U+W
SciTegic.value.DoubleValue
2.767

@<SCITEGIC>MOL_PROPERTY
U+W
SciTegic.value.DoubleValue
-33.509

@<SCITEGIC>MOL_PROPERTY
Grad RMS
SciTegic.value.DoubleValue
0.000000

@<SCITEGIC>MOL_PROPERTY
U
SciTegic.value.DoubleValue
24.552

@<SCITEGIC>MOL_PROPERTY
W
SciTegic.value.DoubleValue
-58.061

@<SCITEGIC>MOL_PROPERTY
W(PB)
SciTegic.value.DoubleValue
-59.930

@<SCITEGIC>MOL_PROPERTY
W(SA)
SciTegic.value.DoubleValue
1.869

@<SCITEGIC>MOL_PROPERTY
Valence
SciTegic.value.DoubleValue
3.726

@<SCITEGIC>MOL_PROPERTY
Coulomb
SciTegic.value.DoubleValue
20.219

@<SCITEGIC>MOL_PROPERTY
VdW
SciTegic.value.DoubleValue
0.606

@<SCITEGIC>MOL_PROPERTY
VdW6
SciTegic.value.DoubleValue
-6.395

@<SCITEGIC>MOL_PROPERTY
VdW12
SciTegic.value.DoubleValue
7.001

@<SCITEGIC>MOL_PROPERTY
Bond
SciTegic.value.DoubleValue
0.241

@<SCITEGIC>MOL_PROPERTY
Angle
SciTegic.value.DoubleValue
2.098

@<SCITEGIC>MOL_PROPERTY
Pdih
SciTegic.value.DoubleValue
1.387

@<SCITEGIC>MOL_PROPERTY
Idih
SciTegic.value.DoubleValue
0.000

@<SCITEGIC>MOL_PROPERTY
Tether
SciTegic.value.DoubleValue
0.000

@<TRIPOS>MOLECULE
guest-s10_confgen4.mol2 : confsearch ligand conformer 811
          20          19           1
SMALL
USER_CHARGES
 
@<TRIPOS>ATOM
       1    N1      19.606053   16.996076   22.548498 N.4        1 MOL1        -0.5937
       2    H1      20.402167   16.753414   23.143362 H          1 MOL1         0.3684
       3    H2      19.456239   16.214140   21.905235 H          1 MOL1         0.3684
       4    H3      18.780405   17.057346   23.149441 H          1 MOL1         0.3684
       5    C1      19.845009   18.282737   21.805219 C.3        1 MOL1         0.1270
       6    H4      18.951043   18.468384   21.201690 H          1 MOL1         0.0960
       7    C2      21.046034   18.142755   20.855529 C.3        1 MOL1        -0.2382
       8    H5      20.892510   17.312985   20.154688 H          1 MOL1         0.1009
       9    H6      21.972587   17.953295   21.411765 H          1 MOL1         0.1009
      10    H7      21.183851   19.056112   20.263562 H          1 MOL1         0.1009
      11    C3      20.046696   19.486486   22.752034 C.3        1 MOL1        -0.1392
      12    H8      20.926038   19.314366   23.386894 H          1 MOL1         0.0998
      13    H9      20.265683   20.378161   22.149516 H          1 MOL1         0.0998
      14    C4      18.810405   19.774334   23.637612 C.3        1 MOL1        -0.1302
      15    H10     18.603959   18.916698   24.292034 H          1 MOL1         0.0998
      16    H11     17.923691   19.910921   23.002534 H          1 MOL1         0.0998
      17    C5      19.013772   21.032651   24.508578 C.3        1 MOL1        -0.2317
      18    H12     19.876280   20.914809   25.177495 H          1 MOL1         0.1009
      19    H13     18.128957   21.220887   25.130474 H          1 MOL1         0.1009
      20    H14     19.182626   21.921369   23.886564 H          1 MOL1         0.1009
@<TRIPOS>BOND
    1     1     2    1
    2     1     3    1
    3     1     4    1
    4     1     5    1
    5     5     6    1
    6     5     7    1
    7     7     8    1
    8     7     9    1
    9     7    10    1
   10     5    11    1
   11    11    12    1
   12    11    13    1
   13    11    14    1
   14    14    15    1
   15    14    16    1
   16    14    17    1
   17    17    18    1
   18    17    19    1
   19    17    20    1
@<TRIPOS>SUBSTRUCTURE
       1 MOL1            1 RESIDUE      1      MOL     
@<SCITEGIC>MOL_PROPERTY
VConf Rank
SciTegic.value.IntegerValue
811

@<SCITEGIC>MOL_PROPERTY
Conf_Id
SciTegic.value.IntegerValue
74

@<SCITEGIC>MOL_PROPERTY
Delta U+W
SciTegic.value.DoubleValue
0.000

@<SCITEGIC>MOL_PROPERTY
U+W
SciTegic.value.DoubleValue
-36.276

@<SCITEGIC>MOL_PROPERTY
Grad RMS
SciTegic.value.DoubleValue
0.000000

@<SCITEGIC>MOL_PROPERTY
U
SciTegic.value.DoubleValue
22.080

@<SCITEGIC>MOL_PROPERTY
W
SciTegic.value.DoubleValue
-58.356

@<SCITEGIC>MOL_PROPERTY
W(PB)
SciTegic.value.DoubleValue
-60.289

@<SCITEGIC>MOL_PROPERTY
W(SA)
SciTegic.value.DoubleValue
1.932

@<SCITEGIC>MOL_PROPERTY
Valence
SciTegic.value.DoubleValue
1.885

@<SCITEGIC>MOL_PROPERTY
Coulomb
SciTegic.value.DoubleValue
19.559

@<SCITEGIC>MOL_PROPERTY
VdW
SciTegic.value.DoubleValue
0.637

@<SCITEGIC>MOL_PROPERTY
VdW6
SciTegic.value.DoubleValue
-4.482

@<SCITEGIC>MOL_PROPERTY
VdW12
SciTegic.value.DoubleValue
5.119

@<SCITEGIC>MOL_PROPERTY
Bond
SciTegic.value.DoubleValue
0.136

@<SCITEGIC>MOL_PROPERTY
Angle
SciTegic.value.DoubleValue
0.867

@<SCITEGIC>MOL_PROPERTY
Pdih
SciTegic.value.DoubleValue
0.882

@<SCITEGIC>MOL_PROPERTY
Idih
SciTegic.value.DoubleValue
0.000

@<SCITEGIC>MOL_PROPERTY
Tether
SciTegic.value.DoubleValue
0.000

@<TRIPOS>MOLECULE
guest-s10_confgen4.mol2 : confsearch ligand conformer 812
          20          19           1
SMALL
USER_CHARGES
 
@<TRIPOS>ATOM
       1    N1      20.134710   19.299680   20.390468 N.4        1 MOL1        -0.5937
       2    H1      21.010224   18.789759   20.244479 H          1 MOL1         0.3684
       3    H2      20.364539   20.295468   20.438556 H          1 MOL1         0.3684
       4    H3      19.560835   19.160046   19.554496 H          1 MOL1         0.3684
       5    C1      19.422085   18.836347   21.631417 C.3        1 MOL1         0.1270
       6    H4      19.216427   17.770859   21.488926 H          1 MOL1         0.0960
       7    C2      18.079370   19.574532   21.783078 C.3        1 MOL1        -0.2382
       8    H5      17.486353   19.490490   20.864117 H          1 MOL1         0.1009
       9    H6      18.233469   20.640508   21.991709 H          1 MOL1         0.1009
      10    H7      17.478933   19.148484   22.594978 H          1 MOL1         0.1009
      11    C3      20.317919   18.992753   22.882220 C.3        1 MOL1        -0.1392
      12    H8      21.294954   18.539504   22.668602 H          1 MOL1         0.0998
      13    H9      20.504758   20.058013   23.072383 H          1 MOL1         0.0998
      14    C4      19.736501   18.329762   24.154838 C.3        1 MOL1        -0.1302
      15    H10     19.490478   17.279072   23.946049 H          1 MOL1         0.0998
      16    H11     18.800830   18.823869   24.448573 H          1 MOL1         0.0998
      17    C5      20.727976   18.397854   25.336372 C.3        1 MOL1        -0.2317
      18    H12     21.663952   17.875788   25.098393 H          1 MOL1         0.1009
      19    H13     20.298683   17.927096   26.230341 H          1 MOL1         0.1009
      20    H14     20.971463   19.438357   25.588025 H          1 MOL1         0.1009
@<TRIPOS>BOND
    1     1     2    1
    2     1     3    1
    3     1     4    1
    4     1     5    1
    5     5     6    1
    6     5     7    1
    7     7     8    1
    8     7     9    1
    9     7    10    1
   10     5    11    1
   11    11    12    1
   12    11    13    1
   13    11    14    1
   14    14    15    1
   15    14    16    1
   16    14    17    1
   17    17    18    1
   18    17    19    1
   19    17    20    1
@<TRIPOS>SUBSTRUCTURE
       1 MOL1            1 RESIDUE      1      MOL     
@<SCITEGIC>MOL_PROPERTY
VConf Rank
SciTegic.value.IntegerValue
812

@<SCITEGIC>MOL_PROPERTY
Conf_Id
SciTegic.value.IntegerValue
80

@<SCITEGIC>MOL_PROPERTY
Delta U+W
SciTegic.value.DoubleValue
0.460

@<SCITEGIC>MOL_PROPERTY
U+W
SciTegic.value.DoubleValue
-35.817

@<SCITEGIC>MOL_PROPERTY
Grad RMS
SciTegic.value.DoubleValue
0.000000

@<SCITEGIC>MOL_PROPERTY
U
SciTegic.value.DoubleValue
22.495

@<SCITEGIC>MOL_PROPERTY
W
SciTegic.value.DoubleValue
-58.311

@<SCITEGIC>MOL_PROPERTY
W(PB)
SciTegic.value.DoubleValue
-60.259

@<SCITEGIC>MOL_PROPERTY
W(SA)
SciTegic.value.DoubleValue
1.948

@<SCITEGIC>MOL_PROPERTY
Valence
SciTegic.value.DoubleValue
2.419

@<SCITEGIC>MOL_PROPERTY
Coulomb
SciTegic.value.DoubleValue
19.304

@<SCITEGIC>MOL_PROPERTY
VdW
SciTegic.value.DoubleValue
0.772

@<SCITEGIC>MOL_PROPERTY
VdW6
SciTegic.value.DoubleValue
-4.635

@<SCITEGIC>MOL_PROPERTY
VdW12
SciTegic.value.DoubleValue
5.407

@<SCITEGIC>MOL_PROPERTY
Bond
SciTegic.value.DoubleValue
0.149

@<SCITEGIC>MOL_PROPERTY
Angle
SciTegic.value.DoubleValue
1.142

@<SCITEGIC>MOL_PROPERTY
Pdih
SciTegic.value.DoubleValue
1.129

@<SCITEGIC>MOL_PROPERTY
Idih
SciTegic.value.DoubleValue
0.000

@<SCITEGIC>MOL_PROPERTY
Tether
SciTegic.value.DoubleValue
0.000

@<TRIPOS>MOLECULE
guest-s10_confgen4.mol2 : confsearch ligand conformer 813
          20          19           1
SMALL
USER_CHARGES
 
@<TRIPOS>ATOM
       1    N1      21.110263   17.133236   23.655643 N.4        1 MOL1        -0.5937
       2    H1      20.705352   16.772046   24.523629 H          1 MOL1         0.3684
       3    H2      21.885860   17.749090   23.912280 H          1 MOL1         0.3684
       4    H3      21.508782   16.335518   23.153206 H          1 MOL1         0.3684
       5    C1      20.086081   17.853353   22.821837 C.3        1 MOL1         0.1270
       6    H4      19.306596   17.119848   22.593419 H          1 MOL1         0.0960
       7    C2      20.710447   18.316327   21.494403 C.3        1 MOL1        -0.2382
       8    H5      21.235186   17.487768   21.003199 H          1 MOL1         0.1009
       9    H6      21.430284   19.128473   21.654736 H          1 MOL1         0.1009
      10    H7      19.939180   18.665389   20.798480 H          1 MOL1         0.1009
      11    C3      19.436699   19.011955   23.617627 C.3        1 MOL1        -0.1392
      12    H8      19.055162   18.592318   24.557854 H          1 MOL1         0.0998
      13    H9      20.198923   19.747511   23.906938 H          1 MOL1         0.0998
      14    C4      18.254574   19.717288   22.901576 C.3        1 MOL1        -0.1302
      15    H10     17.497525   19.982053   23.653171 H          1 MOL1         0.0998
      16    H11     17.759451   19.023678   22.207512 H          1 MOL1         0.0998
      17    C5      18.666948   21.013734   22.165229 C.3        1 MOL1        -0.2317
      18    H12     19.094040   21.743280   22.865567 H          1 MOL1         0.1009
      19    H13     17.793728   21.480474   21.691284 H          1 MOL1         0.1009
      20    H14     19.408751   20.825721   21.381060 H          1 MOL1         0.1009
@<TRIPOS>BOND
    1     1     2    1
    2     1     3    1
    3     1     4    1
    4     1     5    1
    5     5     6    1
    6     5     7    1
    7     7     8    1
    8     7     9    1
    9     7    10    1
   10     5    11    1
   11    11    12    1
   12    11    13    1
   13    11    14    1
   14    14    15    1
   15    14    16    1
   16    14    17    1
   17    17    18    1
   18    17    19    1
   19    17    20    1
@<TRIPOS>SUBSTRUCTURE
       1 MOL1            1 RESIDUE      1      MOL     
@<SCITEGIC>MOL_PROPERTY
VConf Rank
SciTegic.value.IntegerValue
813

@<SCITEGIC>MOL_PROPERTY
Conf_Id
SciTegic.value.IntegerValue
52

@<SCITEGIC>MOL_PROPERTY
Delta U+W
SciTegic.value.DoubleValue
2.995

@<SCITEGIC>MOL_PROPERTY
U+W
SciTegic.value.DoubleValue
-33.282

@<SCITEGIC>MOL_PROPERTY
Grad RMS
SciTegic.value.DoubleValue
0.000000

@<SCITEGIC>MOL_PROPERTY
U
SciTegic.value.DoubleValue
25.224

@<SCITEGIC>MOL_PROPERTY
W
SciTegic.value.DoubleValue
-58.506

@<SCITEGIC>MOL_PROPERTY
W(PB)
SciTegic.value.DoubleValue
-60.411

@<SCITEGIC>MOL_PROPERTY
W(SA)
SciTegic.value.DoubleValue
1.905

@<SCITEGIC>MOL_PROPERTY
Valence
SciTegic.value.DoubleValue
4.945

@<SCITEGIC>MOL_PROPERTY
Coulomb
SciTegic.value.DoubleValue
19.467

@<SCITEGIC>MOL_PROPERTY
VdW
SciTegic.value.DoubleValue
0.813

@<SCITEGIC>MOL_PROPERTY
VdW6
SciTegic.value.DoubleValue
-5.458

@<SCITEGIC>MOL_PROPERTY
VdW12
SciTegic.value.DoubleValue
6.270

@<SCITEGIC>MOL_PROPERTY
Bond
SciTegic.value.DoubleValue
0.200

@<SCITEGIC>MOL_PROPERTY
Angle
SciTegic.value.DoubleValue
1.675

@<SCITEGIC>MOL_PROPERTY
Pdih
SciTegic.value.DoubleValue
3.070

@<SCITEGIC>MOL_PROPERTY
Idih
SciTegic.value.DoubleValue
0.000

@<SCITEGIC>MOL_PROPERTY
Tether
SciTegic.value.DoubleValue
0.000

@<TRIPOS>MOLECULE
guest-s10_confgen4.mol2 : confsearch ligand conformer 814
          20          19           1
SMALL
USER_CHARGES
 
@<TRIPOS>ATOM
       1    N1      21.297377   18.625903   22.433723 N.4        1 MOL1        -0.5937
       2    H1      21.288474   17.612338   22.295945 H          1 MOL1         0.3684
       3    H2      22.256381   18.894194   22.670321 H          1 MOL1         0.3684
       4    H3      21.067893   19.058586   21.536445 H          1 MOL1         0.3684
       5    C1      20.326738   19.042357   23.505019 C.3        1 MOL1         0.1270
       6    H4      20.427799   20.125108   23.628193 H          1 MOL1         0.0960
       7    C2      20.700150   18.370001   24.837033 C.3        1 MOL1        -0.2382
       8    H5      20.600188   17.279235   24.773028 H          1 MOL1         0.1009
       9    H6      20.053980   18.725436   25.649299 H          1 MOL1         0.1009
      10    H7      21.735965   18.602818   25.113108 H          1 MOL1         0.1009
      11    C3      18.856657   18.730214   23.136691 C.3        1 MOL1        -0.1392
      12    H8      18.775155   17.701971   22.760329 H          1 MOL1         0.0998
      13    H9      18.251881   18.762740   24.052809 H          1 MOL1         0.0998
      14    C4      18.214258   19.720209   22.129795 C.3        1 MOL1        -0.1302
      15    H10     18.257629   20.740876   22.535250 H          1 MOL1         0.0998
      16    H11     17.146449   19.474808   22.042691 H          1 MOL1         0.0998
      17    C5      18.834763   19.700761   20.714238 C.3        1 MOL1        -0.2317
      18    H12     18.205374   20.269050   20.016955 H          1 MOL1         0.1009
      19    H13     18.916732   18.676401   20.327864 H          1 MOL1         0.1009
      20    H14     19.826549   20.167264   20.701038 H          1 MOL1         0.1009
@<TRIPOS>BOND
    1     1     2    1
    2     1     3    1
    3     1     4    1
    4     1     5    1
    5     5     6    1
    6     5     7    1
    7     7     8    1
    8     7     9    1
    9     7    10    1
   10     5    11    1
   11    11    12    1
   12    11    13    1
   13    11    14    1
   14    14    15    1
   15    14    16    1
   16    14    17    1
   17    17    18    1
   18    17    19    1
   19    17    20    1
@<TRIPOS>SUBSTRUCTURE
       1 MOL1            1 RESIDUE      1      MOL     
@<SCITEGIC>MOL_PROPERTY
VConf Rank
SciTegic.value.IntegerValue
814

@<SCITEGIC>MOL_PROPERTY
Conf_Id
SciTegic.value.IntegerValue
54

@<SCITEGIC>MOL_PROPERTY
Delta U+W
SciTegic.value.DoubleValue
2.752

@<SCITEGIC>MOL_PROPERTY
U+W
SciTegic.value.DoubleValue
-33.525

@<SCITEGIC>MOL_PROPERTY
Grad RMS
SciTegic.value.DoubleValue
0.000000

@<SCITEGIC>MOL_PROPERTY
U
SciTegic.value.DoubleValue
24.337

@<SCITEGIC>MOL_PROPERTY
W
SciTegic.value.DoubleValue
-57.862

@<SCITEGIC>MOL_PROPERTY
W(PB)
SciTegic.value.DoubleValue
-59.764

@<SCITEGIC>MOL_PROPERTY
W(SA)
SciTegic.value.DoubleValue
1.901

@<SCITEGIC>MOL_PROPERTY
Valence
SciTegic.value.DoubleValue
3.593

@<SCITEGIC>MOL_PROPERTY
Coulomb
SciTegic.value.DoubleValue
20.067

@<SCITEGIC>MOL_PROPERTY
VdW
SciTegic.value.DoubleValue
0.677

@<SCITEGIC>MOL_PROPERTY
VdW6
SciTegic.value.DoubleValue
-5.466

@<SCITEGIC>MOL_PROPERTY
VdW12
SciTegic.value.DoubleValue
6.144

@<SCITEGIC>MOL_PROPERTY
Bond
SciTegic.value.DoubleValue
0.191

@<SCITEGIC>MOL_PROPERTY
Angle
SciTegic.value.DoubleValue
1.557

@<SCITEGIC>MOL_PROPERTY
Pdih
SciTegic.value.DoubleValue
1.845

@<SCITEGIC>MOL_PROPERTY
Idih
SciTegic.value.DoubleValue
0.000

@<SCITEGIC>MOL_PROPERTY
Tether
SciTegic.value.DoubleValue
0.000

@<TRIPOS>MOLECULE
guest-s10_confgen4.mol2 : confsearch ligand conformer 815
          20          19           1
SMALL
USER_CHARGES
 
@<TRIPOS>ATOM
       1    N1      18.803871   18.290962   24.405376 N.4        1 MOL1        -0.5937
       2    H1      18.265831   18.586502   25.224413 H          1 MOL1         0.3684
       3    H2      19.327927   17.453250   24.672428 H          1 MOL1         0.3684
       4    H3      18.134274   18.017273   23.682753 H          1 MOL1         0.3684
       5    C1      19.717571   19.384652   23.922798 C.3        1 MOL1         0.1270
       6    H4      20.379180   19.618863   24.762703 H          1 MOL1         0.0960
       7    C2      18.924301   20.660339   23.587856 C.3        1 MOL1        -0.2382
       8    H5      19.593657   21.454559   23.234798 H          1 MOL1         0.1009
       9    H6      18.406253   21.034845   24.479180 H          1 MOL1         0.1009
      10    H7      18.169164   20.477763   22.814243 H          1 MOL1         0.1009
      11    C3      20.614686   18.931536   22.745971 C.3        1 MOL1        -0.1392
      12    H8      21.315165   19.741775   22.503942 H          1 MOL1         0.0998
      13    H9      21.233274   18.090279   23.085150 H          1 MOL1         0.0998
      14    C4      19.850302   18.515616   21.462588 C.3        1 MOL1        -0.1302
      15    H10     19.264882   19.361379   21.077906 H          1 MOL1         0.0998
      16    H11     19.137677   17.711321   21.689386 H          1 MOL1         0.0998
      17    C5      20.816510   18.034734   20.358721 C.3        1 MOL1        -0.2317
      18    H12     20.261692   17.746026   19.456562 H          1 MOL1         0.1009
      19    H13     21.394445   17.162651   20.691413 H          1 MOL1         0.1009
      20    H14     21.523414   18.826976   20.079684 H          1 MOL1         0.1009
@<TRIPOS>BOND
    1     1     2    1
    2     1     3    1
    3     1     4    1
    4     1     5    1
    5     5     6    1
    6     5     7    1
    7     7     8    1
    8     7     9    1
    9     7    10    1
   10     5    11    1
   11    11    12    1
   12    11    13    1
   13    11    14    1
   14    14    15    1
   15    14    16    1
   16    14    17    1
   17    17    18    1
   18    17    19    1
   19    17    20    1
@<TRIPOS>SUBSTRUCTURE
       1 MOL1            1 RESIDUE      1      MOL     
@<SCITEGIC>MOL_PROPERTY
VConf Rank
SciTegic.value.IntegerValue
815

@<SCITEGIC>MOL_PROPERTY
Conf_Id
SciTegic.value.IntegerValue
63

@<SCITEGIC>MOL_PROPERTY
Delta U+W
SciTegic.value.DoubleValue
0.420

@<SCITEGIC>MOL_PROPERTY
U+W
SciTegic.value.DoubleValue
-35.856

@<SCITEGIC>MOL_PROPERTY
Grad RMS
SciTegic.value.DoubleValue
0.000000

@<SCITEGIC>MOL_PROPERTY
U
SciTegic.value.DoubleValue
22.625

@<SCITEGIC>MOL_PROPERTY
W
SciTegic.value.DoubleValue
-58.481

@<SCITEGIC>MOL_PROPERTY
W(PB)
SciTegic.value.DoubleValue
-60.400

@<SCITEGIC>MOL_PROPERTY
W(SA)
SciTegic.value.DoubleValue
1.919

@<SCITEGIC>MOL_PROPERTY
Valence
SciTegic.value.DoubleValue
2.404

@<SCITEGIC>MOL_PROPERTY
Coulomb
SciTegic.value.DoubleValue
19.464

@<SCITEGIC>MOL_PROPERTY
VdW
SciTegic.value.DoubleValue
0.757

@<SCITEGIC>MOL_PROPERTY
VdW6
SciTegic.value.DoubleValue
-5.074

@<SCITEGIC>MOL_PROPERTY
VdW12
SciTegic.value.DoubleValue
5.830

@<SCITEGIC>MOL_PROPERTY
Bond
SciTegic.value.DoubleValue
0.172

@<SCITEGIC>MOL_PROPERTY
Angle
SciTegic.value.DoubleValue
1.207

@<SCITEGIC>MOL_PROPERTY
Pdih
SciTegic.value.DoubleValue
1.025

@<SCITEGIC>MOL_PROPERTY
Idih
SciTegic.value.DoubleValue
0.000

@<SCITEGIC>MOL_PROPERTY
Tether
SciTegic.value.DoubleValue
0.000

@<TRIPOS>MOLECULE
guest-s10_confgen4.mol2 : confsearch ligand conformer 816
          20          19           1
SMALL
USER_CHARGES
 
@<TRIPOS>ATOM
       1    N1      20.211458   17.505707   23.592880 N.4        1 MOL1        -0.5937
       2    H1      19.495991   17.041169   23.027913 H          1 MOL1         0.3684
       3    H2      19.885079   17.507795   24.562362 H          1 MOL1         0.3684
       4    H3      21.054508   16.926584   23.555122 H          1 MOL1         0.3684
       5    C1      20.477922   18.901505   23.097985 C.3        1 MOL1         0.1270
       6    H4      20.822754   18.808257   22.063807 H          1 MOL1         0.0960
       7    C2      21.597492   19.563773   23.917423 C.3        1 MOL1        -0.2382
       8    H5      22.513730   18.961774   23.880797 H          1 MOL1         0.1009
       9    H6      21.305973   19.678693   24.968880 H          1 MOL1         0.1009
      10    H7      21.836634   20.557492   23.518730 H          1 MOL1         0.1009
      11    C3      19.209349   19.784455   23.108067 C.3        1 MOL1        -0.1392
      12    H8      18.856680   19.903655   24.141145 H          1 MOL1         0.0998
      13    H9      19.471852   20.790913   22.755843 H          1 MOL1         0.0998
      14    C4      18.049510   19.239840   22.236249 C.3        1 MOL1        -0.1302
      15    H10     17.197512   19.929962   22.311966 H          1 MOL1         0.0998
      16    H11     17.695034   18.278688   22.632607 H          1 MOL1         0.0998
      17    C5      18.433798   19.080322   20.747544 C.3        1 MOL1        -0.2317
      18    H12     18.791696   20.029838   20.328605 H          1 MOL1         0.1009
      19    H13     17.564385   18.761403   20.158070 H          1 MOL1         0.1009
      20    H14     19.220001   18.327309   20.610605 H          1 MOL1         0.1009
@<TRIPOS>BOND
    1     1     2    1
    2     1     3    1
    3     1     4    1
    4     1     5    1
    5     5     6    1
    6     5     7    1
    7     7     8    1
    8     7     9    1
    9     7    10    1
   10     5    11    1
   11    11    12    1
   12    11    13    1
   13    11    14    1
   14    14    15    1
   15    14    16    1
   16    14    17    1
   17    17    18    1
   18    17    19    1
   19    17    20    1
@<TRIPOS>SUBSTRUCTURE
       1 MOL1            1 RESIDUE      1      MOL     
@<SCITEGIC>MOL_PROPERTY
VConf Rank
SciTegic.value.IntegerValue
816

@<SCITEGIC>MOL_PROPERTY
Conf_Id
SciTegic.value.IntegerValue
50

@<SCITEGIC>MOL_PROPERTY
Delta U+W
SciTegic.value.DoubleValue
0.466

@<SCITEGIC>MOL_PROPERTY
U+W
SciTegic.value.DoubleValue
-35.811

@<SCITEGIC>MOL_PROPERTY
Grad RMS
SciTegic.value.DoubleValue
0.000000

@<SCITEGIC>MOL_PROPERTY
U
SciTegic.value.DoubleValue
22.369

@<SCITEGIC>MOL_PROPERTY
W
SciTegic.value.DoubleValue
-58.180

@<SCITEGIC>MOL_PROPERTY
W(PB)
SciTegic.value.DoubleValue
-60.103

@<SCITEGIC>MOL_PROPERTY
W(SA)
SciTegic.value.DoubleValue
1.923

@<SCITEGIC>MOL_PROPERTY
Valence
SciTegic.value.DoubleValue
2.168

@<SCITEGIC>MOL_PROPERTY
Coulomb
SciTegic.value.DoubleValue
19.636

@<SCITEGIC>MOL_PROPERTY
VdW
SciTegic.value.DoubleValue
0.566

@<SCITEGIC>MOL_PROPERTY
VdW6
SciTegic.value.DoubleValue
-5.263

@<SCITEGIC>MOL_PROPERTY
VdW12
SciTegic.value.DoubleValue
5.829

@<SCITEGIC>MOL_PROPERTY
Bond
SciTegic.value.DoubleValue
0.162

@<SCITEGIC>MOL_PROPERTY
Angle
SciTegic.value.DoubleValue
1.066

@<SCITEGIC>MOL_PROPERTY
Pdih
SciTegic.value.DoubleValue
0.939

@<SCITEGIC>MOL_PROPERTY
Idih
SciTegic.value.DoubleValue
0.000

@<SCITEGIC>MOL_PROPERTY
Tether
SciTegic.value.DoubleValue
0.000

@<TRIPOS>MOLECULE
guest-s10_confgen4.mol2 : confsearch ligand conformer 817
          20          19           1
SMALL
USER_CHARGES
 
@<TRIPOS>ATOM
       1    N1      17.947158   20.309043   22.235102 N.4        1 MOL1        -0.5937
       2    H1      17.430502   20.419650   23.111932 H          1 MOL1         0.3684
       3    H2      17.342732   19.801010   21.584377 H          1 MOL1         0.3684
       4    H3      18.090629   21.245965   21.848673 H          1 MOL1         0.3684
       5    C1      19.254580   19.594839   22.447570 C.3        1 MOL1         0.1270
       6    H4      19.824829   20.206763   23.153351 H          1 MOL1         0.0960
       7    C2      20.033340   19.515843   21.121201 C.3        1 MOL1        -0.2382
       8    H5      19.473305   18.948746   20.367259 H          1 MOL1         0.1009
       9    H6      21.006009   19.029804   21.253373 H          1 MOL1         0.1009
      10    H7      20.217838   20.520390   20.721234 H          1 MOL1         0.1009
      11    C3      19.052776   18.194617   23.077559 C.3        1 MOL1        -0.1392
      12    H8      18.046606   18.138321   23.513591 H          1 MOL1         0.0998
      13    H9      19.082653   17.417266   22.302417 H          1 MOL1         0.0998
      14    C4      20.062986   17.862212   24.204840 C.3        1 MOL1        -0.1302
      15    H10     19.794443   16.889802   24.641001 H          1 MOL1         0.0998
      16    H11     19.963938   18.597803   25.015504 H          1 MOL1         0.0998
      17    C5      21.534845   17.808218   23.739058 C.3        1 MOL1        -0.2317
      18    H12     21.659629   17.112138   22.899457 H          1 MOL1         0.1009
      19    H13     22.183175   17.466220   24.556216 H          1 MOL1         0.1009
      20    H14     21.893708   18.797395   23.428615 H          1 MOL1         0.1009
@<TRIPOS>BOND
    1     1     2    1
    2     1     3    1
    3     1     4    1
    4     1     5    1
    5     5     6    1
    6     5     7    1
    7     7     8    1
    8     7     9    1
    9     7    10    1
   10     5    11    1
   11    11    12    1
   12    11    13    1
   13    11    14    1
   14    14    15    1
   15    14    16    1
   16    14    17    1
   17    17    18    1
   18    17    19    1
   19    17    20    1
@<TRIPOS>SUBSTRUCTURE
       1 MOL1            1 RESIDUE      1      MOL     
@<SCITEGIC>MOL_PROPERTY
VConf Rank
SciTegic.value.IntegerValue
817

@<SCITEGIC>MOL_PROPERTY
Conf_Id
SciTegic.value.IntegerValue
3

@<SCITEGIC>MOL_PROPERTY
Delta U+W
SciTegic.value.DoubleValue
3.093

@<SCITEGIC>MOL_PROPERTY
U+W
SciTegic.value.DoubleValue
-33.184

@<SCITEGIC>MOL_PROPERTY
Grad RMS
SciTegic.value.DoubleValue
0.000000

@<SCITEGIC>MOL_PROPERTY
U
SciTegic.value.DoubleValue
25.256

@<SCITEGIC>MOL_PROPERTY
W
SciTegic.value.DoubleValue
-58.439

@<SCITEGIC>MOL_PROPERTY
W(PB)
SciTegic.value.DoubleValue
-60.337

@<SCITEGIC>MOL_PROPERTY
W(SA)
SciTegic.value.DoubleValue
1.898

@<SCITEGIC>MOL_PROPERTY
Valence
SciTegic.value.DoubleValue
4.963

@<SCITEGIC>MOL_PROPERTY
Coulomb
SciTegic.value.DoubleValue
19.511

@<SCITEGIC>MOL_PROPERTY
VdW
SciTegic.value.DoubleValue
0.782

@<SCITEGIC>MOL_PROPERTY
VdW6
SciTegic.value.DoubleValue
-5.429

@<SCITEGIC>MOL_PROPERTY
VdW12
SciTegic.value.DoubleValue
6.211

@<SCITEGIC>MOL_PROPERTY
Bond
SciTegic.value.DoubleValue
0.174

@<SCITEGIC>MOL_PROPERTY
Angle
SciTegic.value.DoubleValue
1.377

@<SCITEGIC>MOL_PROPERTY
Pdih
SciTegic.value.DoubleValue
3.412

@<SCITEGIC>MOL_PROPERTY
Idih
SciTegic.value.DoubleValue
0.000

@<SCITEGIC>MOL_PROPERTY
Tether
SciTegic.value.DoubleValue
0.000

@<TRIPOS>MOLECULE
guest-s10_confgen4.mol2 : confsearch ligand conformer 818
          20          19           1
SMALL
USER_CHARGES
 
@<TRIPOS>ATOM
       1    N1      20.115184   17.473490   21.071356 N.4        1 MOL1        -0.5937
       2    H1      20.859326   16.772330   21.118917 H          1 MOL1         0.3684
       3    H2      20.326036   18.084778   20.277821 H          1 MOL1         0.3684
       4    H3      19.245705   16.979635   20.855026 H          1 MOL1         0.3684
       5    C1      20.005616   18.248551   22.355746 C.3        1 MOL1         0.1270
       6    H4      20.974555   18.734609   22.504069 H          1 MOL1         0.0960
       7    C2      19.754546   17.294151   23.537349 C.3        1 MOL1        -0.2382
       8    H5      19.810870   17.823889   24.495337 H          1 MOL1         0.1009
       9    H6      20.511083   16.500276   23.560748 H          1 MOL1         0.1009
      10    H7      18.767358   16.821446   23.463206 H          1 MOL1         0.1009
      11    C3      18.920843   19.347512   22.255837 C.3        1 MOL1        -0.1392
      12    H8      19.107089   19.943936   21.352999 H          1 MOL1         0.0998
      13    H9      17.939076   18.877039   22.112569 H          1 MOL1         0.0998
      14    C4      18.848966   20.309509   23.469303 C.3        1 MOL1        -0.1302
      15    H10     18.532500   19.765490   24.369395 H          1 MOL1         0.0998
      16    H11     18.065784   21.056882   23.279831 H          1 MOL1         0.0998
      17    C5      20.183049   21.040704   23.742660 C.3        1 MOL1        -0.2317
      18    H12     20.521405   21.590306   22.854623 H          1 MOL1         0.1009
      19    H13     20.974761   20.339424   24.034998 H          1 MOL1         0.1009
      20    H14     20.064554   21.764508   24.559413 H          1 MOL1         0.1009
@<TRIPOS>BOND
    1     1     2    1
    2     1     3    1
    3     1     4    1
    4     1     5    1
    5     5     6    1
    6     5     7    1
    7     7     8    1
    8     7     9    1
    9     7    10    1
   10     5    11    1
   11    11    12    1
   12    11    13    1
   13    11    14    1
   14    14    15    1
   15    14    16    1
   16    14    17    1
   17    17    18    1
   18    17    19    1
   19    17    20    1
@<TRIPOS>SUBSTRUCTURE
       1 MOL1            1 RESIDUE      1      MOL     
@<SCITEGIC>MOL_PROPERTY
VConf Rank
SciTegic.value.IntegerValue
818

@<SCITEGIC>MOL_PROPERTY
Conf_Id
SciTegic.value.IntegerValue
64

@<SCITEGIC>MOL_PROPERTY
Delta U+W
SciTegic.value.DoubleValue
0.544

@<SCITEGIC>MOL_PROPERTY
U+W
SciTegic.value.DoubleValue
-35.732

@<SCITEGIC>MOL_PROPERTY
Grad RMS
SciTegic.value.DoubleValue
0.000000

@<SCITEGIC>MOL_PROPERTY
U
SciTegic.value.DoubleValue
22.800

@<SCITEGIC>MOL_PROPERTY
W
SciTegic.value.DoubleValue
-58.532

@<SCITEGIC>MOL_PROPERTY
W(PB)
SciTegic.value.DoubleValue
-60.437

@<SCITEGIC>MOL_PROPERTY
W(SA)
SciTegic.value.DoubleValue
1.905

@<SCITEGIC>MOL_PROPERTY
Valence
SciTegic.value.DoubleValue
2.662

@<SCITEGIC>MOL_PROPERTY
Coulomb
SciTegic.value.DoubleValue
19.485

@<SCITEGIC>MOL_PROPERTY
VdW
SciTegic.value.DoubleValue
0.653

@<SCITEGIC>MOL_PROPERTY
VdW6
SciTegic.value.DoubleValue
-5.460

@<SCITEGIC>MOL_PROPERTY
VdW12
SciTegic.value.DoubleValue
6.113

@<SCITEGIC>MOL_PROPERTY
Bond
SciTegic.value.DoubleValue
0.174

@<SCITEGIC>MOL_PROPERTY
Angle
SciTegic.value.DoubleValue
1.378

@<SCITEGIC>MOL_PROPERTY
Pdih
SciTegic.value.DoubleValue
1.109

@<SCITEGIC>MOL_PROPERTY
Idih
SciTegic.value.DoubleValue
0.000

@<SCITEGIC>MOL_PROPERTY
Tether
SciTegic.value.DoubleValue
0.000

@<TRIPOS>MOLECULE
guest-s10_confgen4.mol2 : confsearch ligand conformer 819
          20          19           1
SMALL
USER_CHARGES
 
@<TRIPOS>ATOM
       1    N1      19.138840   18.997840   24.708347 N.4        1 MOL1        -0.5937
       2    H1      18.262902   19.139769   24.200546 H          1 MOL1         0.3684
       3    H2      19.185405   19.709692   25.442316 H          1 MOL1         0.3684
       4    H3      19.081077   18.087186   25.172063 H          1 MOL1         0.3684
       5    C1      20.327727   19.076678   23.789019 C.3        1 MOL1         0.1270
       6    H4      21.206830   18.924891   24.423133 H          1 MOL1         0.0960
       7    C2      20.447134   20.477270   23.166276 C.3        1 MOL1        -0.2382
       8    H5      19.536161   20.754114   22.622957 H          1 MOL1         0.1009
       9    H6      21.296132   20.525996   22.473335 H          1 MOL1         0.1009
      10    H7      20.611239   21.230364   23.946590 H          1 MOL1         0.1009
      11    C3      20.332060   17.943232   22.732505 C.3        1 MOL1        -0.1392
      12    H8      21.295720   17.939474   22.206348 H          1 MOL1         0.0998
      13    H9      20.296557   16.989297   23.274935 H          1 MOL1         0.0998
      14    C4      19.169105   17.960505   21.701747 C.3        1 MOL1        -0.1302
      15    H10     18.259768   18.388136   22.144034 H          1 MOL1         0.0998
      16    H11     18.917367   16.921466   21.446779 H          1 MOL1         0.0998
      17    C5      19.519016   18.697180   20.387358 C.3        1 MOL1        -0.2317
      18    H12     19.740056   19.757153   20.553417 H          1 MOL1         0.1009
      19    H13     18.679953   18.641394   19.681790 H          1 MOL1         0.1009
      20    H14     20.391565   18.241307   19.901682 H          1 MOL1         0.1009
@<TRIPOS>BOND
    1     1     2    1
    2     1     3    1
    3     1     4    1
    4     1     5    1
    5     5     6    1
    6     5     7    1
    7     7     8    1
    8     7     9    1
    9     7    10    1
   10     5    11    1
   11    11    12    1
   12    11    13    1
   13    11    14    1
   14    14    15    1
   15    14    16    1
   16    14    17    1
   17    17    18    1
   18    17    19    1
   19    17    20    1
@<TRIPOS>SUBSTRUCTURE
       1 MOL1            1 RESIDUE      1      MOL     
@<SCITEGIC>MOL_PROPERTY
VConf Rank
SciTegic.value.IntegerValue
819

@<SCITEGIC>MOL_PROPERTY
Conf_Id
SciTegic.value.IntegerValue
35

@<SCITEGIC>MOL_PROPERTY
Delta U+W
SciTegic.value.DoubleValue
3.004

@<SCITEGIC>MOL_PROPERTY
U+W
SciTegic.value.DoubleValue
-33.272

@<SCITEGIC>MOL_PROPERTY
Grad RMS
SciTegic.value.DoubleValue
0.000000

@<SCITEGIC>MOL_PROPERTY
U
SciTegic.value.DoubleValue
25.367

@<SCITEGIC>MOL_PROPERTY
W
SciTegic.value.DoubleValue
-58.639

@<SCITEGIC>MOL_PROPERTY
W(PB)
SciTegic.value.DoubleValue
-60.512

@<SCITEGIC>MOL_PROPERTY
W(SA)
SciTegic.value.DoubleValue
1.873

@<SCITEGIC>MOL_PROPERTY
Valence
SciTegic.value.DoubleValue
4.943

@<SCITEGIC>MOL_PROPERTY
Coulomb
SciTegic.value.DoubleValue
19.661

@<SCITEGIC>MOL_PROPERTY
VdW
SciTegic.value.DoubleValue
0.764

@<SCITEGIC>MOL_PROPERTY
VdW6
SciTegic.value.DoubleValue
-5.871

@<SCITEGIC>MOL_PROPERTY
VdW12
SciTegic.value.DoubleValue
6.636

@<SCITEGIC>MOL_PROPERTY
Bond
SciTegic.value.DoubleValue
0.230

@<SCITEGIC>MOL_PROPERTY
Angle
SciTegic.value.DoubleValue
1.857

@<SCITEGIC>MOL_PROPERTY
Pdih
SciTegic.value.DoubleValue
2.855

@<SCITEGIC>MOL_PROPERTY
Idih
SciTegic.value.DoubleValue
0.000

@<SCITEGIC>MOL_PROPERTY
Tether
SciTegic.value.DoubleValue
0.000

@<TRIPOS>MOLECULE
guest-s10_confgen4.mol2 : confsearch ligand conformer 820
          20          19           1
SMALL
USER_CHARGES
 
@<TRIPOS>ATOM
       1    N1      18.968183   20.543655   22.709806 N.4        1 MOL1        -0.5937
       2    H1      18.062336   20.931161   22.432530 H          1 MOL1         0.3684
       3    H2      19.616237   21.328926   22.814481 H          1 MOL1         0.3684
       4    H3      18.853796   20.116548   23.630942 H          1 MOL1         0.3684
       5    C1      19.471857   19.544105   21.704979 C.3        1 MOL1         0.1270
       6    H4      19.583057   20.103834   20.771028 H          1 MOL1         0.0960
       7    C2      18.438174   18.432273   21.452319 C.3        1 MOL1        -0.2382
       8    H5      18.201985   17.882545   22.371182 H          1 MOL1         0.1009
       9    H6      18.810599   17.716695   20.708902 H          1 MOL1         0.1009
      10    H7      17.503655   18.857014   21.066005 H          1 MOL1         0.1009
      11    C3      20.871851   18.980069   22.058804 C.3        1 MOL1        -0.1392
      12    H8      21.285861   18.524210   21.149777 H          1 MOL1         0.0998
      13    H9      21.542446   19.816332   22.295836 H          1 MOL1         0.0998
      14    C4      20.948218   17.923630   23.196653 C.3        1 MOL1        -0.1302
      15    H10     21.993970   17.598108   23.287553 H          1 MOL1         0.0998
      16    H11     20.382930   17.023522   22.919369 H          1 MOL1         0.0998
      17    C5      20.475971   18.428708   24.578971 C.3        1 MOL1        -0.2317
      18    H12     20.962925   19.376052   24.844596 H          1 MOL1         0.1009
      19    H13     20.727336   17.696217   25.357073 H          1 MOL1         0.1009
      20    H14     19.389222   18.567941   24.608262 H          1 MOL1         0.1009
@<TRIPOS>BOND
    1     1     2    1
    2     1     3    1
    3     1     4    1
    4     1     5    1
    5     5     6    1
    6     5     7    1
    7     7     8    1
    8     7     9    1
    9     7    10    1
   10     5    11    1
   11    11    12    1
   12    11    13    1
   13    11    14    1
   14    14    15    1
   15    14    16    1
   16    14    17    1
   17    17    18    1
   18    17    19    1
   19    17    20    1
@<TRIPOS>SUBSTRUCTURE
       1 MOL1            1 RESIDUE      1      MOL     
@<SCITEGIC>MOL_PROPERTY
VConf Rank
SciTegic.value.IntegerValue
820

@<SCITEGIC>MOL_PROPERTY
Conf_Id
SciTegic.value.IntegerValue
55

@<SCITEGIC>MOL_PROPERTY
Delta U+W
SciTegic.value.DoubleValue
2.767

@<SCITEGIC>MOL_PROPERTY
U+W
SciTegic.value.DoubleValue
-33.509

@<SCITEGIC>MOL_PROPERTY
Grad RMS
SciTegic.value.DoubleValue
0.000000

@<SCITEGIC>MOL_PROPERTY
U
SciTegic.value.DoubleValue
24.552

@<SCITEGIC>MOL_PROPERTY
W
SciTegic.value.DoubleValue
-58.061

@<SCITEGIC>MOL_PROPERTY
W(PB)
SciTegic.value.DoubleValue
-59.930

@<SCITEGIC>MOL_PROPERTY
W(SA)
SciTegic.value.DoubleValue
1.869

@<SCITEGIC>MOL_PROPERTY
Valence
SciTegic.value.DoubleValue
3.726

@<SCITEGIC>MOL_PROPERTY
Coulomb
SciTegic.value.DoubleValue
20.219

@<SCITEGIC>MOL_PROPERTY
VdW
SciTegic.value.DoubleValue
0.606

@<SCITEGIC>MOL_PROPERTY
VdW6
SciTegic.value.DoubleValue
-6.395

@<SCITEGIC>MOL_PROPERTY
VdW12
SciTegic.value.DoubleValue
7.001

@<SCITEGIC>MOL_PROPERTY
Bond
SciTegic.value.DoubleValue
0.241

@<SCITEGIC>MOL_PROPERTY
Angle
SciTegic.value.DoubleValue
2.098

@<SCITEGIC>MOL_PROPERTY
Pdih
SciTegic.value.DoubleValue
1.387

@<SCITEGIC>MOL_PROPERTY
Idih
SciTegic.value.DoubleValue
0.000

@<SCITEGIC>MOL_PROPERTY
Tether
SciTegic.value.DoubleValue
0.000

@<TRIPOS>MOLECULE
guest-s10_confgen4.mol2 : confsearch ligand conformer 821
          20          19           1
SMALL
USER_CHARGES
 
@<TRIPOS>ATOM
       1    N1      21.327063   18.061912   23.485072 N.4        1 MOL1        -0.5937
       2    H1      22.025018   18.457707   22.850446 H          1 MOL1         0.3684
       3    H2      21.706300   17.182124   23.845363 H          1 MOL1         0.3684
       4    H3      21.235613   18.700796   24.278827 H          1 MOL1         0.3684
       5    C1      20.008248   17.850213   22.791552 C.3        1 MOL1         0.1270
       6    H4      19.324269   17.432010   23.536647 H          1 MOL1         0.0960
       7    C2      20.156175   16.831872   21.649157 C.3        1 MOL1        -0.2382
       8    H5      20.553386   15.881064   22.025259 H          1 MOL1         0.1009
       9    H6      20.835908   17.202609   20.871783 H          1 MOL1         0.1009
      10    H7      19.184890   16.624704   21.182975 H          1 MOL1         0.1009
      11    C3      19.398291   19.166734   22.261576 C.3        1 MOL1        -0.1392
      12    H8      20.077855   19.620060   21.527678 H          1 MOL1         0.0998
      13    H9      18.468167   18.935489   21.725422 H          1 MOL1         0.0998
      14    C4      19.086521   20.185076   23.384651 C.3        1 MOL1        -0.1302
      15    H10     20.011285   20.476188   23.900879 H          1 MOL1         0.0998
      16    H11     18.435156   19.718542   24.137188 H          1 MOL1         0.0998
      17    C5      18.400841   21.452415   22.830576 C.3        1 MOL1        -0.2317
      18    H12     19.041120   21.959090   22.096697 H          1 MOL1         0.1009
      19    H13     18.188481   22.163484   23.639506 H          1 MOL1         0.1009
      20    H14     17.449418   21.205837   22.341469 H          1 MOL1         0.1009
@<TRIPOS>BOND
    1     1     2    1
    2     1     3    1
    3     1     4    1
    4     1     5    1
    5     5     6    1
    6     5     7    1
    7     7     8    1
    8     7     9    1
    9     7    10    1
   10     5    11    1
   11    11    12    1
   12    11    13    1
   13    11    14    1
   14    14    15    1
   15    14    16    1
   16    14    17    1
   17    17    18    1
   18    17    19    1
   19    17    20    1
@<TRIPOS>SUBSTRUCTURE
       1 MOL1            1 RESIDUE      1      MOL     
@<SCITEGIC>MOL_PROPERTY
VConf Rank
SciTegic.value.IntegerValue
821

@<SCITEGIC>MOL_PROPERTY
Conf_Id
SciTegic.value.IntegerValue
74

@<SCITEGIC>MOL_PROPERTY
Delta U+W
SciTegic.value.DoubleValue
0.000

@<SCITEGIC>MOL_PROPERTY
U+W
SciTegic.value.DoubleValue
-36.276

@<SCITEGIC>MOL_PROPERTY
Grad RMS
SciTegic.value.DoubleValue
0.000000

@<SCITEGIC>MOL_PROPERTY
U
SciTegic.value.DoubleValue
22.080

@<SCITEGIC>MOL_PROPERTY
W
SciTegic.value.DoubleValue
-58.356

@<SCITEGIC>MOL_PROPERTY
W(PB)
SciTegic.value.DoubleValue
-60.289

@<SCITEGIC>MOL_PROPERTY
W(SA)
SciTegic.value.DoubleValue
1.932

@<SCITEGIC>MOL_PROPERTY
Valence
SciTegic.value.DoubleValue
1.885

@<SCITEGIC>MOL_PROPERTY
Coulomb
SciTegic.value.DoubleValue
19.559

@<SCITEGIC>MOL_PROPERTY
VdW
SciTegic.value.DoubleValue
0.637

@<SCITEGIC>MOL_PROPERTY
VdW6
SciTegic.value.DoubleValue
-4.482

@<SCITEGIC>MOL_PROPERTY
VdW12
SciTegic.value.DoubleValue
5.119

@<SCITEGIC>MOL_PROPERTY
Bond
SciTegic.value.DoubleValue
0.136

@<SCITEGIC>MOL_PROPERTY
Angle
SciTegic.value.DoubleValue
0.867

@<SCITEGIC>MOL_PROPERTY
Pdih
SciTegic.value.DoubleValue
0.882

@<SCITEGIC>MOL_PROPERTY
Idih
SciTegic.value.DoubleValue
0.000

@<SCITEGIC>MOL_PROPERTY
Tether
SciTegic.value.DoubleValue
0.000

@<TRIPOS>MOLECULE
guest-s10_confgen4.mol2 : confsearch ligand conformer 822
          20          19           1
SMALL
USER_CHARGES
 
@<TRIPOS>ATOM
       1    N1      17.513796   18.104044   22.444437 N.4        1 MOL1        -0.5937
       2    H1      17.678856   17.102055   22.315485 H          1 MOL1         0.3684
       3    H2      17.324618   18.504524   21.522182 H          1 MOL1         0.3684
       4    H3      16.658908   18.200423   22.999015 H          1 MOL1         0.3684
       5    C1      18.681566   18.778333   23.110857 C.3        1 MOL1         0.1270
       6    H4      18.805555   18.290393   24.082662 H          1 MOL1         0.0960
       7    C2      18.372509   20.267564   23.350595 C.3        1 MOL1        -0.2382
       8    H5      17.420405   20.383735   23.882782 H          1 MOL1         0.1009
       9    H6      18.301265   20.815999   22.403112 H          1 MOL1         0.1009
      10    H7      19.146019   20.742002   23.965261 H          1 MOL1         0.1009
      11    C3      19.982106   18.576142   22.298943 C.3        1 MOL1        -0.1392
      12    H8      20.086317   17.507221   22.070446 H          1 MOL1         0.0998
      13    H9      19.899668   19.093346   21.333774 H          1 MOL1         0.0998
      14    C4      21.259352   19.047722   23.036111 C.3        1 MOL1        -0.1302
      15    H10     21.309299   18.578066   24.028582 H          1 MOL1         0.0998
      16    H11     21.226929   20.133297   23.198515 H          1 MOL1         0.0998
      17    C5      22.536714   18.700909   22.241284 C.3        1 MOL1        -0.2317
      18    H12     22.629534   17.616915   22.094385 H          1 MOL1         0.1009
      19    H13     23.431496   19.045283   22.775942 H          1 MOL1         0.1009
      20    H14     22.529547   19.180266   21.253648 H          1 MOL1         0.1009
@<TRIPOS>BOND
    1     1     2    1
    2     1     3    1
    3     1     4    1
    4     1     5    1
    5     5     6    1
    6     5     7    1
    7     7     8    1
    8     7     9    1
    9     7    10    1
   10     5    11    1
   11    11    12    1
   12    11    13    1
   13    11    14    1
   14    14    15    1
   15    14    16    1
   16    14    17    1
   17    17    18    1
   18    17    19    1
   19    17    20    1
@<TRIPOS>SUBSTRUCTURE
       1 MOL1            1 RESIDUE      1      MOL     
@<SCITEGIC>MOL_PROPERTY
VConf Rank
SciTegic.value.IntegerValue
822

@<SCITEGIC>MOL_PROPERTY
Conf_Id
SciTegic.value.IntegerValue
80

@<SCITEGIC>MOL_PROPERTY
Delta U+W
SciTegic.value.DoubleValue
0.460

@<SCITEGIC>MOL_PROPERTY
U+W
SciTegic.value.DoubleValue
-35.817

@<SCITEGIC>MOL_PROPERTY
Grad RMS
SciTegic.value.DoubleValue
0.000000

@<SCITEGIC>MOL_PROPERTY
U
SciTegic.value.DoubleValue
22.495

@<SCITEGIC>MOL_PROPERTY
W
SciTegic.value.DoubleValue
-58.311

@<SCITEGIC>MOL_PROPERTY
W(PB)
SciTegic.value.DoubleValue
-60.259

@<SCITEGIC>MOL_PROPERTY
W(SA)
SciTegic.value.DoubleValue
1.948

@<SCITEGIC>MOL_PROPERTY
Valence
SciTegic.value.DoubleValue
2.419

@<SCITEGIC>MOL_PROPERTY
Coulomb
SciTegic.value.DoubleValue
19.304

@<SCITEGIC>MOL_PROPERTY
VdW
SciTegic.value.DoubleValue
0.772

@<SCITEGIC>MOL_PROPERTY
VdW6
SciTegic.value.DoubleValue
-4.635

@<SCITEGIC>MOL_PROPERTY
VdW12
SciTegic.value.DoubleValue
5.407

@<SCITEGIC>MOL_PROPERTY
Bond
SciTegic.value.DoubleValue
0.149

@<SCITEGIC>MOL_PROPERTY
Angle
SciTegic.value.DoubleValue
1.142

@<SCITEGIC>MOL_PROPERTY
Pdih
SciTegic.value.DoubleValue
1.129

@<SCITEGIC>MOL_PROPERTY
Idih
SciTegic.value.DoubleValue
0.000

@<SCITEGIC>MOL_PROPERTY
Tether
SciTegic.value.DoubleValue
0.000

@<TRIPOS>MOLECULE
guest-s10_confgen4.mol2 : confsearch ligand conformer 823
          20          19           1
SMALL
USER_CHARGES
 
@<TRIPOS>ATOM
       1    N1      19.075325   18.699327   25.024183 N.4        1 MOL1        -0.5937
       2    H1      18.108753   18.370755   25.098953 H          1 MOL1         0.3684
       3    H2      19.070381   19.707835   25.196159 H          1 MOL1         0.3684
       4    H3      19.602411   18.263549   25.785690 H          1 MOL1         0.3684
       5    C1      19.672042   18.370871   23.682992 C.3        1 MOL1         0.1270
       6    H4      19.640120   17.280656   23.592369 H          1 MOL1         0.0960
       7    C2      21.144964   18.811656   23.633325 C.3        1 MOL1        -0.2382
       8    H5      21.691037   18.437760   24.508053 H          1 MOL1         0.1009
       9    H6      21.233169   19.905019   23.618117 H          1 MOL1         0.1009
      10    H7      21.645689   18.408369   22.745834 H          1 MOL1         0.1009
      11    C3      18.824864   18.973022   22.535368 C.3        1 MOL1        -0.1392
      12    H8      17.790266   18.633433   22.676711 H          1 MOL1         0.0998
      13    H9      18.793828   20.067330   22.620551 H          1 MOL1         0.0998
      14    C4      19.266782   18.558144   21.107002 C.3        1 MOL1        -0.1302
      15    H10     18.369023   18.430394   20.485853 H          1 MOL1         0.0998
      16    H11     19.759132   17.575773   21.129465 H          1 MOL1         0.0998
      17    C5      20.177185   19.601621   20.417541 C.3        1 MOL1        -0.2317
      18    H12     19.664136   20.567476   20.322568 H          1 MOL1         0.1009
      19    H13     20.446595   19.268121   19.407007 H          1 MOL1         0.1009
      20    H14     21.108133   19.767948   20.970906 H          1 MOL1         0.1009
@<TRIPOS>BOND
    1     1     2    1
    2     1     3    1
    3     1     4    1
    4     1     5    1
    5     5     6    1
    6     5     7    1
    7     7     8    1
    8     7     9    1
    9     7    10    1
   10     5    11    1
   11    11    12    1
   12    11    13    1
   13    11    14    1
   14    14    15    1
   15    14    16    1
   16    14    17    1
   17    17    18    1
   18    17    19    1
   19    17    20    1
@<TRIPOS>SUBSTRUCTURE
       1 MOL1            1 RESIDUE      1      MOL     
@<SCITEGIC>MOL_PROPERTY
VConf Rank
SciTegic.value.IntegerValue
823

@<SCITEGIC>MOL_PROPERTY
Conf_Id
SciTegic.value.IntegerValue
52

@<SCITEGIC>MOL_PROPERTY
Delta U+W
SciTegic.value.DoubleValue
2.995

@<SCITEGIC>MOL_PROPERTY
U+W
SciTegic.value.DoubleValue
-33.282

@<SCITEGIC>MOL_PROPERTY
Grad RMS
SciTegic.value.DoubleValue
0.000000

@<SCITEGIC>MOL_PROPERTY
U
SciTegic.value.DoubleValue
25.224

@<SCITEGIC>MOL_PROPERTY
W
SciTegic.value.DoubleValue
-58.506

@<SCITEGIC>MOL_PROPERTY
W(PB)
SciTegic.value.DoubleValue
-60.411

@<SCITEGIC>MOL_PROPERTY
W(SA)
SciTegic.value.DoubleValue
1.905

@<SCITEGIC>MOL_PROPERTY
Valence
SciTegic.value.DoubleValue
4.945

@<SCITEGIC>MOL_PROPERTY
Coulomb
SciTegic.value.DoubleValue
19.467

@<SCITEGIC>MOL_PROPERTY
VdW
SciTegic.value.DoubleValue
0.813

@<SCITEGIC>MOL_PROPERTY
VdW6
SciTegic.value.DoubleValue
-5.458

@<SCITEGIC>MOL_PROPERTY
VdW12
SciTegic.value.DoubleValue
6.270

@<SCITEGIC>MOL_PROPERTY
Bond
SciTegic.value.DoubleValue
0.200

@<SCITEGIC>MOL_PROPERTY
Angle
SciTegic.value.DoubleValue
1.675

@<SCITEGIC>MOL_PROPERTY
Pdih
SciTegic.value.DoubleValue
3.070

@<SCITEGIC>MOL_PROPERTY
Idih
SciTegic.value.DoubleValue
0.000

@<SCITEGIC>MOL_PROPERTY
Tether
SciTegic.value.DoubleValue
0.000

@<TRIPOS>MOLECULE
guest-s10_confgen4.mol2 : confsearch ligand conformer 824
          20          19           1
SMALL
USER_CHARGES
 
@<TRIPOS>ATOM
       1    N1      20.092354   17.611213   23.485099 N.4        1 MOL1        -0.5937
       2    H1      20.091891   16.914089   22.736504 H          1 MOL1         0.3684
       3    H2      19.948061   17.112908   24.367437 H          1 MOL1         0.3684
       4    H3      21.025386   18.027833   23.514509 H          1 MOL1         0.3684
       5    C1      19.034113   18.656859   23.261492 C.3        1 MOL1         0.1270
       6    H4      19.063489   19.333962   24.120796 H          1 MOL1         0.0960
       7    C2      17.646818   17.994020   23.218872 C.3        1 MOL1        -0.2382
       8    H5      17.557889   17.313710   22.362642 H          1 MOL1         0.1009
       9    H6      16.854813   18.749033   23.139317 H          1 MOL1         0.1009
      10    H7      17.463001   17.417741   24.133994 H          1 MOL1         0.1009
      11    C3      19.274213   19.488532   21.978953 C.3        1 MOL1        -0.1392
      12    H8      19.503750   18.821451   21.137591 H          1 MOL1         0.0998
      13    H9      18.338367   19.997129   21.711363 H          1 MOL1         0.0998
      14    C4      20.367499   20.581564   22.107851 C.3        1 MOL1        -0.1302
      15    H10     20.106026   21.272597   22.921570 H          1 MOL1         0.0998
      16    H11     20.360877   21.182274   21.187454 H          1 MOL1         0.0998
      17    C5      21.800098   20.044411   22.327699 C.3        1 MOL1        -0.2317
      18    H12     22.531104   20.854488   22.206486 H          1 MOL1         0.1009
      19    H13     22.049217   19.261001   21.600013 H          1 MOL1         0.1009
      20    H14     21.931425   19.645453   23.340134 H          1 MOL1         0.1009
@<TRIPOS>BOND
    1     1     2    1
    2     1     3    1
    3     1     4    1
    4     1     5    1
    5     5     6    1
    6     5     7    1
    7     7     8    1
    8     7     9    1
    9     7    10    1
   10     5    11    1
   11    11    12    1
   12    11    13    1
   13    11    14    1
   14    14    15    1
   15    14    16    1
   16    14    17    1
   17    17    18    1
   18    17    19    1
   19    17    20    1
@<TRIPOS>SUBSTRUCTURE
       1 MOL1            1 RESIDUE      1      MOL     
@<SCITEGIC>MOL_PROPERTY
VConf Rank
SciTegic.value.IntegerValue
824

@<SCITEGIC>MOL_PROPERTY
Conf_Id
SciTegic.value.IntegerValue
54

@<SCITEGIC>MOL_PROPERTY
Delta U+W
SciTegic.value.DoubleValue
2.752

@<SCITEGIC>MOL_PROPERTY
U+W
SciTegic.value.DoubleValue
-33.525

@<SCITEGIC>MOL_PROPERTY
Grad RMS
SciTegic.value.DoubleValue
0.000000

@<SCITEGIC>MOL_PROPERTY
U
SciTegic.value.DoubleValue
24.337

@<SCITEGIC>MOL_PROPERTY
W
SciTegic.value.DoubleValue
-57.862

@<SCITEGIC>MOL_PROPERTY
W(PB)
SciTegic.value.DoubleValue
-59.764

@<SCITEGIC>MOL_PROPERTY
W(SA)
SciTegic.value.DoubleValue
1.901

@<SCITEGIC>MOL_PROPERTY
Valence
SciTegic.value.DoubleValue
3.593

@<SCITEGIC>MOL_PROPERTY
Coulomb
SciTegic.value.DoubleValue
20.067

@<SCITEGIC>MOL_PROPERTY
VdW
SciTegic.value.DoubleValue
0.677

@<SCITEGIC>MOL_PROPERTY
VdW6
SciTegic.value.DoubleValue
-5.466

@<SCITEGIC>MOL_PROPERTY
VdW12
SciTegic.value.DoubleValue
6.144

@<SCITEGIC>MOL_PROPERTY
Bond
SciTegic.value.DoubleValue
0.191

@<SCITEGIC>MOL_PROPERTY
Angle
SciTegic.value.DoubleValue
1.557

@<SCITEGIC>MOL_PROPERTY
Pdih
SciTegic.value.DoubleValue
1.845

@<SCITEGIC>MOL_PROPERTY
Idih
SciTegic.value.DoubleValue
0.000

@<SCITEGIC>MOL_PROPERTY
Tether
SciTegic.value.DoubleValue
0.000

@<TRIPOS>MOLECULE
guest-s10_confgen4.mol2 : confsearch ligand conformer 825
          20          19           1
SMALL
USER_CHARGES
 
@<TRIPOS>ATOM
       1    N1      19.198041   17.557242   21.282036 N.4        1 MOL1        -0.5937
       2    H1      18.442279   16.935596   20.981979 H          1 MOL1         0.3684
       3    H2      20.080238   17.118906   21.004004 H          1 MOL1         0.3684
       4    H3      19.106532   18.426903   20.752164 H          1 MOL1         0.3684
       5    C1      19.148374   17.808654   22.764672 C.3        1 MOL1         0.1270
       6    H4      19.235728   16.827146   23.241154 H          1 MOL1         0.0960
       7    C2      17.791834   18.406049   23.179113 C.3        1 MOL1        -0.2382
       8    H5      17.760279   18.589487   24.260236 H          1 MOL1         0.1009
       9    H6      16.977289   17.712772   22.936276 H          1 MOL1         0.1009
      10    H7      17.590222   19.352449   22.663632 H          1 MOL1         0.1009
      11    C3      20.337573   18.665798   23.260819 C.3        1 MOL1        -0.1392
      12    H8      20.290333   18.734705   24.355696 H          1 MOL1         0.0998
      13    H9      21.269270   18.131583   23.032868 H          1 MOL1         0.0998
      14    C4      20.410435   20.093805   22.660960 C.3        1 MOL1        -0.1302
      15    H10     19.508149   20.662510   22.922623 H          1 MOL1         0.0998
      16    H11     20.448796   20.043165   21.564545 H          1 MOL1         0.0998
      17    C5      21.648985   20.860414   23.172462 C.3        1 MOL1        -0.2317
      18    H12     21.685885   21.869309   22.741374 H          1 MOL1         0.1009
      19    H13     22.576657   20.342563   22.895921 H          1 MOL1         0.1009
      20    H14     21.627176   20.962246   24.265338 H          1 MOL1         0.1009
@<TRIPOS>BOND
    1     1     2    1
    2     1     3    1
    3     1     4    1
    4     1     5    1
    5     5     6    1
    6     5     7    1
    7     7     8    1
    8     7     9    1
    9     7    10    1
   10     5    11    1
   11    11    12    1
   12    11    13    1
   13    11    14    1
   14    14    15    1
   15    14    16    1
   16    14    17    1
   17    17    18    1
   18    17    19    1
   19    17    20    1
@<TRIPOS>SUBSTRUCTURE
       1 MOL1            1 RESIDUE      1      MOL     
@<SCITEGIC>MOL_PROPERTY
VConf Rank
SciTegic.value.IntegerValue
825

@<SCITEGIC>MOL_PROPERTY
Conf_Id
SciTegic.value.IntegerValue
63

@<SCITEGIC>MOL_PROPERTY
Delta U+W
SciTegic.value.DoubleValue
0.420

@<SCITEGIC>MOL_PROPERTY
U+W
SciTegic.value.DoubleValue
-35.856

@<SCITEGIC>MOL_PROPERTY
Grad RMS
SciTegic.value.DoubleValue
0.000000

@<SCITEGIC>MOL_PROPERTY
U
SciTegic.value.DoubleValue
22.625

@<SCITEGIC>MOL_PROPERTY
W
SciTegic.value.DoubleValue
-58.481

@<SCITEGIC>MOL_PROPERTY
W(PB)
SciTegic.value.DoubleValue
-60.400

@<SCITEGIC>MOL_PROPERTY
W(SA)
SciTegic.value.DoubleValue
1.919

@<SCITEGIC>MOL_PROPERTY
Valence
SciTegic.value.DoubleValue
2.404

@<SCITEGIC>MOL_PROPERTY
Coulomb
SciTegic.value.DoubleValue
19.464

@<SCITEGIC>MOL_PROPERTY
VdW
SciTegic.value.DoubleValue
0.757

@<SCITEGIC>MOL_PROPERTY
VdW6
SciTegic.value.DoubleValue
-5.074

@<SCITEGIC>MOL_PROPERTY
VdW12
SciTegic.value.DoubleValue
5.830

@<SCITEGIC>MOL_PROPERTY
Bond
SciTegic.value.DoubleValue
0.172

@<SCITEGIC>MOL_PROPERTY
Angle
SciTegic.value.DoubleValue
1.207

@<SCITEGIC>MOL_PROPERTY
Pdih
SciTegic.value.DoubleValue
1.025

@<SCITEGIC>MOL_PROPERTY
Idih
SciTegic.value.DoubleValue
0.000

@<SCITEGIC>MOL_PROPERTY
Tether
SciTegic.value.DoubleValue
0.000

@<TRIPOS>MOLECULE
guest-s10_confgen4.mol2 : confsearch ligand conformer 826
          20          19           1
SMALL
USER_CHARGES
 
@<TRIPOS>ATOM
       1    N1      19.828650   17.632792   23.904275 N.4        1 MOL1        -0.5937
       2    H1      19.305347   18.238748   24.541335 H          1 MOL1         0.3684
       3    H2      20.786033   17.566989   24.258548 H          1 MOL1         0.3684
       4    H3      19.415744   16.698131   23.963093 H          1 MOL1         0.3684
       5    C1      19.797144   18.162612   22.496271 C.3        1 MOL1         0.1270
       6    H4      18.745400   18.197803   22.196728 H          1 MOL1         0.0960
       7    C2      20.534738   17.210264   21.541022 C.3        1 MOL1        -0.2382
       8    H5      20.099407   16.204290   21.582733 H          1 MOL1         0.1009
       9    H6      21.598335   17.133264   21.799068 H          1 MOL1         0.1009
      10    H7      20.459340   17.562262   20.504666 H          1 MOL1         0.1009
      11    C3      20.379651   19.590236   22.388764 C.3        1 MOL1        -0.1392
      12    H8      21.440951   19.572784   22.670138 H          1 MOL1         0.0998
      13    H9      20.346143   19.911596   21.339225 H          1 MOL1         0.0998
      14    C4      19.643033   20.643629   23.254591 C.3        1 MOL1        -0.1302
      15    H10     20.130604   21.618556   23.114252 H          1 MOL1         0.0998
      16    H11     19.752073   20.402758   24.320733 H          1 MOL1         0.0998
      17    C5      18.144310   20.777856   22.900784 C.3        1 MOL1        -0.2317
      18    H12     18.009894   21.018956   21.838248 H          1 MOL1         0.1009
      19    H13     17.681334   21.582073   23.487262 H          1 MOL1         0.1009
      20    H14     17.593226   19.853534   23.114865 H          1 MOL1         0.1009
@<TRIPOS>BOND
    1     1     2    1
    2     1     3    1
    3     1     4    1
    4     1     5    1
    5     5     6    1
    6     5     7    1
    7     7     8    1
    8     7     9    1
    9     7    10    1
   10     5    11    1
   11    11    12    1
   12    11    13    1
   13    11    14    1
   14    14    15    1
   15    14    16    1
   16    14    17    1
   17    17    18    1
   18    17    19    1
   19    17    20    1
@<TRIPOS>SUBSTRUCTURE
       1 MOL1            1 RESIDUE      1      MOL     
@<SCITEGIC>MOL_PROPERTY
VConf Rank
SciTegic.value.IntegerValue
826

@<SCITEGIC>MOL_PROPERTY
Conf_Id
SciTegic.value.IntegerValue
50

@<SCITEGIC>MOL_PROPERTY
Delta U+W
SciTegic.value.DoubleValue
0.466

@<SCITEGIC>MOL_PROPERTY
U+W
SciTegic.value.DoubleValue
-35.811

@<SCITEGIC>MOL_PROPERTY
Grad RMS
SciTegic.value.DoubleValue
0.000000

@<SCITEGIC>MOL_PROPERTY
U
SciTegic.value.DoubleValue
22.369

@<SCITEGIC>MOL_PROPERTY
W
SciTegic.value.DoubleValue
-58.180

@<SCITEGIC>MOL_PROPERTY
W(PB)
SciTegic.value.DoubleValue
-60.103

@<SCITEGIC>MOL_PROPERTY
W(SA)
SciTegic.value.DoubleValue
1.923

@<SCITEGIC>MOL_PROPERTY
Valence
SciTegic.value.DoubleValue
2.168

@<SCITEGIC>MOL_PROPERTY
Coulomb
SciTegic.value.DoubleValue
19.636

@<SCITEGIC>MOL_PROPERTY
VdW
SciTegic.value.DoubleValue
0.566

@<SCITEGIC>MOL_PROPERTY
VdW6
SciTegic.value.DoubleValue
-5.263

@<SCITEGIC>MOL_PROPERTY
VdW12
SciTegic.value.DoubleValue
5.829

@<SCITEGIC>MOL_PROPERTY
Bond
SciTegic.value.DoubleValue
0.162

@<SCITEGIC>MOL_PROPERTY
Angle
SciTegic.value.DoubleValue
1.066

@<SCITEGIC>MOL_PROPERTY
Pdih
SciTegic.value.DoubleValue
0.939

@<SCITEGIC>MOL_PROPERTY
Idih
SciTegic.value.DoubleValue
0.000

@<SCITEGIC>MOL_PROPERTY
Tether
SciTegic.value.DoubleValue
0.000

@<TRIPOS>MOLECULE
guest-s10_confgen4.mol2 : confsearch ligand conformer 827
          20          19           1
SMALL
USER_CHARGES
 
@<TRIPOS>ATOM
       1    N1      18.867106   19.859628   24.688789 N.4        1 MOL1        -0.5937
       2    H1      19.405360   20.723627   24.797345 H          1 MOL1         0.3684
       3    H2      19.122315   19.239549   25.461603 H          1 MOL1         0.3684
       4    H3      17.879626   20.101987   24.806605 H          1 MOL1         0.3684
       5    C1      19.119800   19.212291   23.353993 C.3        1 MOL1         0.1270
       6    H4      18.822482   19.946053   22.598375 H          1 MOL1         0.0960
       7    C2      18.236827   17.959811   23.200319 C.3        1 MOL1        -0.2382
       8    H5      18.470292   17.214690   23.971004 H          1 MOL1         0.1009
       9    H6      18.375542   17.486555   22.222272 H          1 MOL1         0.1009
      10    H7      17.175688   18.221612   23.292916 H          1 MOL1         0.1009
      11    C3      20.618968   18.885427   23.144500 C.3        1 MOL1        -0.1392
      12    H8      21.216143   19.459847   23.864984 H          1 MOL1         0.0998
      13    H9      20.816858   17.829498   23.372243 H          1 MOL1         0.0998
      14    C4      21.145095   19.232915   21.728794 C.3        1 MOL1        -0.1302
      15    H10     22.226939   19.041325   21.699823 H          1 MOL1         0.0998
      16    H11     21.021046   20.309411   21.544810 H          1 MOL1         0.0998
      17    C5      20.469103   18.437343   20.590227 C.3        1 MOL1        -0.2317
      18    H12     20.538543   17.356112   20.766709 H          1 MOL1         0.1009
      19    H13     20.957271   18.651612   19.630632 H          1 MOL1         0.1009
      20    H14     19.410678   18.706753   20.486383 H          1 MOL1         0.1009
@<TRIPOS>BOND
    1     1     2    1
    2     1     3    1
    3     1     4    1
    4     1     5    1
    5     5     6    1
    6     5     7    1
    7     7     8    1
    8     7     9    1
    9     7    10    1
   10     5    11    1
   11    11    12    1
   12    11    13    1
   13    11    14    1
   14    14    15    1
   15    14    16    1
   16    14    17    1
   17    17    18    1
   18    17    19    1
   19    17    20    1
@<TRIPOS>SUBSTRUCTURE
       1 MOL1            1 RESIDUE      1      MOL     
@<SCITEGIC>MOL_PROPERTY
VConf Rank
SciTegic.value.IntegerValue
827

@<SCITEGIC>MOL_PROPERTY
Conf_Id
SciTegic.value.IntegerValue
3

@<SCITEGIC>MOL_PROPERTY
Delta U+W
SciTegic.value.DoubleValue
3.093

@<SCITEGIC>MOL_PROPERTY
U+W
SciTegic.value.DoubleValue
-33.184

@<SCITEGIC>MOL_PROPERTY
Grad RMS
SciTegic.value.DoubleValue
0.000000

@<SCITEGIC>MOL_PROPERTY
U
SciTegic.value.DoubleValue
25.256

@<SCITEGIC>MOL_PROPERTY
W
SciTegic.value.DoubleValue
-58.439

@<SCITEGIC>MOL_PROPERTY
W(PB)
SciTegic.value.DoubleValue
-60.337

@<SCITEGIC>MOL_PROPERTY
W(SA)
SciTegic.value.DoubleValue
1.898

@<SCITEGIC>MOL_PROPERTY
Valence
SciTegic.value.DoubleValue
4.963

@<SCITEGIC>MOL_PROPERTY
Coulomb
SciTegic.value.DoubleValue
19.511

@<SCITEGIC>MOL_PROPERTY
VdW
SciTegic.value.DoubleValue
0.782

@<SCITEGIC>MOL_PROPERTY
VdW6
SciTegic.value.DoubleValue
-5.429

@<SCITEGIC>MOL_PROPERTY
VdW12
SciTegic.value.DoubleValue
6.211

@<SCITEGIC>MOL_PROPERTY
Bond
SciTegic.value.DoubleValue
0.174

@<SCITEGIC>MOL_PROPERTY
Angle
SciTegic.value.DoubleValue
1.377

@<SCITEGIC>MOL_PROPERTY
Pdih
SciTegic.value.DoubleValue
3.412

@<SCITEGIC>MOL_PROPERTY
Idih
SciTegic.value.DoubleValue
0.000

@<SCITEGIC>MOL_PROPERTY
Tether
SciTegic.value.DoubleValue
0.000

@<TRIPOS>MOLECULE
guest-s10_confgen4.mol2 : confsearch ligand conformer 828
          20          19           1
SMALL
USER_CHARGES
 
@<TRIPOS>ATOM
       1    N1      19.106724   18.621672   24.949246 N.4        1 MOL1        -0.5937
       2    H1      19.790091   18.630805   25.711193 H          1 MOL1         0.3684
       3    H2      18.667841   17.696897   24.947824 H          1 MOL1         0.3684
       4    H3      18.381644   19.304483   25.183154 H          1 MOL1         0.3684
       5    C1      19.752151   18.932169   23.626598 C.3        1 MOL1         0.1270
       6    H4      20.508758   18.158405   23.465571 H          1 MOL1         0.0960
       7    C2      20.458778   20.298758   23.683278 C.3        1 MOL1        -0.2382
       8    H5      21.050187   20.478507   22.778037 H          1 MOL1         0.1009
       9    H6      21.148313   20.342552   24.535192 H          1 MOL1         0.1009
      10    H7      19.734761   21.116128   23.789074 H          1 MOL1         0.1009
      11    C3      18.725768   18.856227   22.471090 C.3        1 MOL1        -0.1392
      12    H8      18.199618   17.894416   22.531201 H          1 MOL1         0.0998
      13    H9      17.960715   19.630989   22.613125 H          1 MOL1         0.0998
      14    C4      19.328202   18.994260   21.049428 C.3        1 MOL1        -0.1302
      15    H10     19.747888   19.999414   20.908708 H          1 MOL1         0.0998
      16    H11     18.517362   18.902167   20.313292 H          1 MOL1         0.0998
      17    C5      20.406362   17.930112   20.742326 C.3        1 MOL1        -0.2317
      18    H12     20.010141   16.915491   20.879109 H          1 MOL1         0.1009
      19    H13     21.284027   18.046483   21.390576 H          1 MOL1         0.1009
      20    H14     20.748975   18.018530   19.703184 H          1 MOL1         0.1009
@<TRIPOS>BOND
    1     1     2    1
    2     1     3    1
    3     1     4    1
    4     1     5    1
    5     5     6    1
    6     5     7    1
    7     7     8    1
    8     7     9    1
    9     7    10    1
   10     5    11    1
   11    11    12    1
   12    11    13    1
   13    11    14    1
   14    14    15    1
   15    14    16    1
   16    14    17    1
   17    17    18    1
   18    17    19    1
   19    17    20    1
@<TRIPOS>SUBSTRUCTURE
       1 MOL1            1 RESIDUE      1      MOL     
@<SCITEGIC>MOL_PROPERTY
VConf Rank
SciTegic.value.IntegerValue
828

@<SCITEGIC>MOL_PROPERTY
Conf_Id
SciTegic.value.IntegerValue
64

@<SCITEGIC>MOL_PROPERTY
Delta U+W
SciTegic.value.DoubleValue
0.544

@<SCITEGIC>MOL_PROPERTY
U+W
SciTegic.value.DoubleValue
-35.732

@<SCITEGIC>MOL_PROPERTY
Grad RMS
SciTegic.value.DoubleValue
0.000000

@<SCITEGIC>MOL_PROPERTY
U
SciTegic.value.DoubleValue
22.800

@<SCITEGIC>MOL_PROPERTY
W
SciTegic.value.DoubleValue
-58.532

@<SCITEGIC>MOL_PROPERTY
W(PB)
SciTegic.value.DoubleValue
-60.437

@<SCITEGIC>MOL_PROPERTY
W(SA)
SciTegic.value.DoubleValue
1.905

@<SCITEGIC>MOL_PROPERTY
Valence
SciTegic.value.DoubleValue
2.662

@<SCITEGIC>MOL_PROPERTY
Coulomb
SciTegic.value.DoubleValue
19.485

@<SCITEGIC>MOL_PROPERTY
VdW
SciTegic.value.DoubleValue
0.653

@<SCITEGIC>MOL_PROPERTY
VdW6
SciTegic.value.DoubleValue
-5.460

@<SCITEGIC>MOL_PROPERTY
VdW12
SciTegic.value.DoubleValue
6.113

@<SCITEGIC>MOL_PROPERTY
Bond
SciTegic.value.DoubleValue
0.174

@<SCITEGIC>MOL_PROPERTY
Angle
SciTegic.value.DoubleValue
1.378

@<SCITEGIC>MOL_PROPERTY
Pdih
SciTegic.value.DoubleValue
1.109

@<SCITEGIC>MOL_PROPERTY
Idih
SciTegic.value.DoubleValue
0.000

@<SCITEGIC>MOL_PROPERTY
Tether
SciTegic.value.DoubleValue
0.000

@<TRIPOS>MOLECULE
guest-s10_confgen4.mol2 : confsearch ligand conformer 829
          20          19           1
SMALL
USER_CHARGES
 
@<TRIPOS>ATOM
       1    N1      21.324649   18.435841   24.061019 N.4        1 MOL1        -0.5937
       2    H1      20.692979   18.987713   24.645572 H          1 MOL1         0.3684
       3    H2      22.272411   18.789579   24.216676 H          1 MOL1         0.3684
       4    H3      21.299781   17.472565   24.406189 H          1 MOL1         0.3684
       5    C1      20.939933   18.513557   22.608165 C.3        1 MOL1         0.1270
       6    H4      21.675125   17.906091   22.071098 H          1 MOL1         0.0960
       7    C2      21.063951   19.953772   22.084595 C.3        1 MOL1        -0.2382
       8    H5      20.450895   20.648269   22.670721 H          1 MOL1         0.1009
       9    H6      20.755058   20.015784   21.033844 H          1 MOL1         0.1009
      10    H7      22.104503   20.295038   22.145917 H          1 MOL1         0.1009
      11    C3      19.549441   17.887946   22.332329 C.3        1 MOL1        -0.1392
      12    H8      19.393239   17.811052   21.248270 H          1 MOL1         0.0998
      13    H9      19.578897   16.851397   22.693135 H          1 MOL1         0.0998
      14    C4      18.333882   18.598027   22.990679 C.3        1 MOL1        -0.1302
      15    H10     18.621621   19.067737   23.940394 H          1 MOL1         0.0998
      16    H11     17.585919   17.835261   23.248984 H          1 MOL1         0.0998
      17    C5      17.650591   19.635592   22.069094 C.3        1 MOL1        -0.2317
      18    H12     18.323244   20.457772   21.801635 H          1 MOL1         0.1009
      19    H13     16.775863   20.073305   22.567314 H          1 MOL1         0.1009
      20    H14     17.302634   19.166647   21.139546 H          1 MOL1         0.1009
@<TRIPOS>BOND
    1     1     2    1
    2     1     3    1
    3     1     4    1
    4     1     5    1
    5     5     6    1
    6     5     7    1
    7     7     8    1
    8     7     9    1
    9     7    10    1
   10     5    11    1
   11    11    12    1
   12    11    13    1
   13    11    14    1
   14    14    15    1
   15    14    16    1
   16    14    17    1
   17    17    18    1
   18    17    19    1
   19    17    20    1
@<TRIPOS>SUBSTRUCTURE
       1 MOL1            1 RESIDUE      1      MOL     
@<SCITEGIC>MOL_PROPERTY
VConf Rank
SciTegic.value.IntegerValue
829

@<SCITEGIC>MOL_PROPERTY
Conf_Id
SciTegic.value.IntegerValue
35

@<SCITEGIC>MOL_PROPERTY
Delta U+W
SciTegic.value.DoubleValue
3.004

@<SCITEGIC>MOL_PROPERTY
U+W
SciTegic.value.DoubleValue
-33.272

@<SCITEGIC>MOL_PROPERTY
Grad RMS
SciTegic.value.DoubleValue
0.000000

@<SCITEGIC>MOL_PROPERTY
U
SciTegic.value.DoubleValue
25.367

@<SCITEGIC>MOL_PROPERTY
W
SciTegic.value.DoubleValue
-58.639

@<SCITEGIC>MOL_PROPERTY
W(PB)
SciTegic.value.DoubleValue
-60.512

@<SCITEGIC>MOL_PROPERTY
W(SA)
SciTegic.value.DoubleValue
1.873

@<SCITEGIC>MOL_PROPERTY
Valence
SciTegic.value.DoubleValue
4.943

@<SCITEGIC>MOL_PROPERTY
Coulomb
SciTegic.value.DoubleValue
19.661

@<SCITEGIC>MOL_PROPERTY
VdW
SciTegic.value.DoubleValue
0.764

@<SCITEGIC>MOL_PROPERTY
VdW6
SciTegic.value.DoubleValue
-5.871

@<SCITEGIC>MOL_PROPERTY
VdW12
SciTegic.value.DoubleValue
6.636

@<SCITEGIC>MOL_PROPERTY
Bond
SciTegic.value.DoubleValue
0.230

@<SCITEGIC>MOL_PROPERTY
Angle
SciTegic.value.DoubleValue
1.857

@<SCITEGIC>MOL_PROPERTY
Pdih
SciTegic.value.DoubleValue
2.855

@<SCITEGIC>MOL_PROPERTY
Idih
SciTegic.value.DoubleValue
0.000

@<SCITEGIC>MOL_PROPERTY
Tether
SciTegic.value.DoubleValue
0.000

@<TRIPOS>MOLECULE
guest-s10_confgen4.mol2 : confsearch ligand conformer 830
          20          19           1
SMALL
USER_CHARGES
 
@<TRIPOS>ATOM
       1    N1      18.138373   18.396668   22.968196 N.4        1 MOL1        -0.5937
       2    H1      17.183247   18.756092   22.889777 H          1 MOL1         0.3684
       3    H2      18.103402   17.566836   23.566308 H          1 MOL1         0.3684
       4    H3      18.432052   18.091419   22.038372 H          1 MOL1         0.3684
       5    C1      19.075281   19.435221   23.521436 C.3        1 MOL1         0.1270
       6    H4      18.689480   19.671161   24.518138 H          1 MOL1         0.0960
       7    C2      19.028516   20.731682   22.693479 C.3        1 MOL1        -0.2382
       8    H5      19.313870   20.555920   21.649460 H          1 MOL1         0.1009
       9    H6      19.705557   21.485845   23.113328 H          1 MOL1         0.1009
      10    H7      18.016360   21.154159   22.697943 H          1 MOL1         0.1009
      11    C3      20.520626   18.908521   23.713471 C.3        1 MOL1        -0.1392
      12    H8      21.038346   19.598810   24.392448 H          1 MOL1         0.0998
      13    H9      20.481664   17.950178   24.247585 H          1 MOL1         0.0998
      14    C4      21.396847   18.749733   22.439258 C.3        1 MOL1        -0.1302
      15    H10     22.395029   18.414235   22.753740 H          1 MOL1         0.0998
      16    H11     21.552052   19.725672   21.959585 H          1 MOL1         0.0998
      17    C5      20.851186   17.741810   21.402307 C.3        1 MOL1        -0.2317
      18    H12     20.605474   16.780568   21.872180 H          1 MOL1         0.1009
      19    H13     21.604068   17.549803   20.626761 H          1 MOL1         0.1009
      20    H14     19.959179   18.127208   20.895297 H          1 MOL1         0.1009
@<TRIPOS>BOND
    1     1     2    1
    2     1     3    1
    3     1     4    1
    4     1     5    1
    5     5     6    1
    6     5     7    1
    7     7     8    1
    8     7     9    1
    9     7    10    1
   10     5    11    1
   11    11    12    1
   12    11    13    1
   13    11    14    1
   14    14    15    1
   15    14    16    1
   16    14    17    1
   17    17    18    1
   18    17    19    1
   19    17    20    1
@<TRIPOS>SUBSTRUCTURE
       1 MOL1            1 RESIDUE      1      MOL     
@<SCITEGIC>MOL_PROPERTY
VConf Rank
SciTegic.value.IntegerValue
830

@<SCITEGIC>MOL_PROPERTY
Conf_Id
SciTegic.value.IntegerValue
55

@<SCITEGIC>MOL_PROPERTY
Delta U+W
SciTegic.value.DoubleValue
2.767

@<SCITEGIC>MOL_PROPERTY
U+W
SciTegic.value.DoubleValue
-33.509

@<SCITEGIC>MOL_PROPERTY
Grad RMS
SciTegic.value.DoubleValue
0.000000

@<SCITEGIC>MOL_PROPERTY
U
SciTegic.value.DoubleValue
24.552

@<SCITEGIC>MOL_PROPERTY
W
SciTegic.value.DoubleValue
-58.061

@<SCITEGIC>MOL_PROPERTY
W(PB)
SciTegic.value.DoubleValue
-59.930

@<SCITEGIC>MOL_PROPERTY
W(SA)
SciTegic.value.DoubleValue
1.869

@<SCITEGIC>MOL_PROPERTY
Valence
SciTegic.value.DoubleValue
3.726

@<SCITEGIC>MOL_PROPERTY
Coulomb
SciTegic.value.DoubleValue
20.219

@<SCITEGIC>MOL_PROPERTY
VdW
SciTegic.value.DoubleValue
0.606

@<SCITEGIC>MOL_PROPERTY
VdW6
SciTegic.value.DoubleValue
-6.395

@<SCITEGIC>MOL_PROPERTY
VdW12
SciTegic.value.DoubleValue
7.001

@<SCITEGIC>MOL_PROPERTY
Bond
SciTegic.value.DoubleValue
0.241

@<SCITEGIC>MOL_PROPERTY
Angle
SciTegic.value.DoubleValue
2.098

@<SCITEGIC>MOL_PROPERTY
Pdih
SciTegic.value.DoubleValue
1.387

@<SCITEGIC>MOL_PROPERTY
Idih
SciTegic.value.DoubleValue
0.000

@<SCITEGIC>MOL_PROPERTY
Tether
SciTegic.value.DoubleValue
0.000

@<TRIPOS>MOLECULE
guest-s10_confgen4.mol2 : confsearch ligand conformer 831
          20          19           1
SMALL
USER_CHARGES
 
@<TRIPOS>ATOM
       1    N1      20.557789   20.490436   21.784660 N.4        1 MOL1        -0.5937
       2    H1      19.993836   21.224837   22.219582 H          1 MOL1         0.3684
       3    H2      20.888630   20.851658   20.885928 H          1 MOL1         0.3684
       4    H3      21.380667   20.344402   22.374683 H          1 MOL1         0.3684
       5    C1      19.769881   19.219928   21.611254 C.3        1 MOL1         0.1270
       6    H4      20.443441   18.492578   21.147395 H          1 MOL1         0.0960
       7    C2      18.580732   19.447024   20.663456 C.3        1 MOL1        -0.2382
       8    H5      18.924248   19.825638   19.692934 H          1 MOL1         0.1009
       9    H6      17.871919   20.172506   21.081852 H          1 MOL1         0.1009
      10    H7      18.041814   18.508808   20.481915 H          1 MOL1         0.1009
      11    C3      19.281218   18.636432   22.955460 C.3        1 MOL1        -0.1392
      12    H8      18.620620   19.358434   23.453697 H          1 MOL1         0.0998
      13    H9      18.673799   17.743910   22.754182 H          1 MOL1         0.0998
      14    C4      20.440630   18.247061   23.903972 C.3        1 MOL1        -0.1302
      15    H10     21.031419   19.135114   24.166187 H          1 MOL1         0.0998
      16    H11     21.120817   17.552098   23.391512 H          1 MOL1         0.0998
      17    C5      19.920187   17.589855   25.200321 C.3        1 MOL1        -0.2317
      18    H12     19.260265   18.272304   25.751704 H          1 MOL1         0.1009
      19    H13     20.754736   17.321722   25.861166 H          1 MOL1         0.1009
      20    H14     19.357358   16.673179   24.980866 H          1 MOL1         0.1009
@<TRIPOS>BOND
    1     1     2    1
    2     1     3    1
    3     1     4    1
    4     1     5    1
    5     5     6    1
    6     5     7    1
    7     7     8    1
    8     7     9    1
    9     7    10    1
   10     5    11    1
   11    11    12    1
   12    11    13    1
   13    11    14    1
   14    14    15    1
   15    14    16    1
   16    14    17    1
   17    17    18    1
   18    17    19    1
   19    17    20    1
@<TRIPOS>SUBSTRUCTURE
       1 MOL1            1 RESIDUE      1      MOL     
@<SCITEGIC>MOL_PROPERTY
VConf Rank
SciTegic.value.IntegerValue
831

@<SCITEGIC>MOL_PROPERTY
Conf_Id
SciTegic.value.IntegerValue
74

@<SCITEGIC>MOL_PROPERTY
Delta U+W
SciTegic.value.DoubleValue
0.000

@<SCITEGIC>MOL_PROPERTY
U+W
SciTegic.value.DoubleValue
-36.276

@<SCITEGIC>MOL_PROPERTY
Grad RMS
SciTegic.value.DoubleValue
0.000000

@<SCITEGIC>MOL_PROPERTY
U
SciTegic.value.DoubleValue
22.080

@<SCITEGIC>MOL_PROPERTY
W
SciTegic.value.DoubleValue
-58.356

@<SCITEGIC>MOL_PROPERTY
W(PB)
SciTegic.value.DoubleValue
-60.289

@<SCITEGIC>MOL_PROPERTY
W(SA)
SciTegic.value.DoubleValue
1.932

@<SCITEGIC>MOL_PROPERTY
Valence
SciTegic.value.DoubleValue
1.885

@<SCITEGIC>MOL_PROPERTY
Coulomb
SciTegic.value.DoubleValue
19.559

@<SCITEGIC>MOL_PROPERTY
VdW
SciTegic.value.DoubleValue
0.637

@<SCITEGIC>MOL_PROPERTY
VdW6
SciTegic.value.DoubleValue
-4.482

@<SCITEGIC>MOL_PROPERTY
VdW12
SciTegic.value.DoubleValue
5.119

@<SCITEGIC>MOL_PROPERTY
Bond
SciTegic.value.DoubleValue
0.136

@<SCITEGIC>MOL_PROPERTY
Angle
SciTegic.value.DoubleValue
0.867

@<SCITEGIC>MOL_PROPERTY
Pdih
SciTegic.value.DoubleValue
0.882

@<SCITEGIC>MOL_PROPERTY
Idih
SciTegic.value.DoubleValue
0.000

@<SCITEGIC>MOL_PROPERTY
Tether
SciTegic.value.DoubleValue
0.000

@<TRIPOS>MOLECULE
guest-s10_confgen4.mol2 : confsearch ligand conformer 832
          20          19           1
SMALL
USER_CHARGES
 
@<TRIPOS>ATOM
       1    N1      19.919243   16.552508   22.586891 N.4        1 MOL1        -0.5937
       2    H1      18.959199   16.259219   22.787271 H          1 MOL1         0.3684
       3    H2      20.469141   16.402075   23.436425 H          1 MOL1         0.3684
       4    H3      20.285530   15.918861   21.871346 H          1 MOL1         0.3684
       5    C1      19.979634   17.986227   22.136035 C.3        1 MOL1         0.1270
       6    H4      19.370805   18.049784   21.228757 H          1 MOL1         0.0960
       7    C2      21.426507   18.372975   21.778569 C.3        1 MOL1        -0.2382
       8    H5      21.852677   17.657143   21.064996 H          1 MOL1         0.1009
       9    H6      22.066001   18.385826   22.669895 H          1 MOL1         0.1009
      10    H7      21.471011   19.362329   21.309078 H          1 MOL1         0.1009
      11    C3      19.368201   18.932046   23.195782 C.3        1 MOL1        -0.1392
      12    H8      18.383920   18.540236   23.484470 H          1 MOL1         0.0998
      13    H9      19.986002   18.918947   24.103526 H          1 MOL1         0.0998
      14    C4      19.192068   20.390075   22.705588 C.3        1 MOL1        -0.1302
      15    H10     18.627249   20.398488   21.762732 H          1 MOL1         0.0998
      16    H11     20.170371   20.842305   22.495085 H          1 MOL1         0.0998
      17    C5      18.456777   21.257347   23.750035 C.3        1 MOL1        -0.2317
      18    H12     17.453668   20.862248   23.957176 H          1 MOL1         0.1009
      19    H13     18.343910   22.287597   23.388188 H          1 MOL1         0.1009
      20    H14     19.012544   21.292002   24.696175 H          1 MOL1         0.1009
@<TRIPOS>BOND
    1     1     2    1
    2     1     3    1
    3     1     4    1
    4     1     5    1
    5     5     6    1
    6     5     7    1
    7     7     8    1
    8     7     9    1
    9     7    10    1
   10     5    11    1
   11    11    12    1
   12    11    13    1
   13    11    14    1
   14    14    15    1
   15    14    16    1
   16    14    17    1
   17    17    18    1
   18    17    19    1
   19    17    20    1
@<TRIPOS>SUBSTRUCTURE
       1 MOL1            1 RESIDUE      1      MOL     
@<SCITEGIC>MOL_PROPERTY
VConf Rank
SciTegic.value.IntegerValue
832

@<SCITEGIC>MOL_PROPERTY
Conf_Id
SciTegic.value.IntegerValue
80

@<SCITEGIC>MOL_PROPERTY
Delta U+W
SciTegic.value.DoubleValue
0.460

@<SCITEGIC>MOL_PROPERTY
U+W
SciTegic.value.DoubleValue
-35.817

@<SCITEGIC>MOL_PROPERTY
Grad RMS
SciTegic.value.DoubleValue
0.000000

@<SCITEGIC>MOL_PROPERTY
U
SciTegic.value.DoubleValue
22.495

@<SCITEGIC>MOL_PROPERTY
W
SciTegic.value.DoubleValue
-58.311

@<SCITEGIC>MOL_PROPERTY
W(PB)
SciTegic.value.DoubleValue
-60.259

@<SCITEGIC>MOL_PROPERTY
W(SA)
SciTegic.value.DoubleValue
1.948

@<SCITEGIC>MOL_PROPERTY
Valence
SciTegic.value.DoubleValue
2.419

@<SCITEGIC>MOL_PROPERTY
Coulomb
SciTegic.value.DoubleValue
19.304

@<SCITEGIC>MOL_PROPERTY
VdW
SciTegic.value.DoubleValue
0.772

@<SCITEGIC>MOL_PROPERTY
VdW6
SciTegic.value.DoubleValue
-4.635

@<SCITEGIC>MOL_PROPERTY
VdW12
SciTegic.value.DoubleValue
5.407

@<SCITEGIC>MOL_PROPERTY
Bond
SciTegic.value.DoubleValue
0.149

@<SCITEGIC>MOL_PROPERTY
Angle
SciTegic.value.DoubleValue
1.142

@<SCITEGIC>MOL_PROPERTY
Pdih
SciTegic.value.DoubleValue
1.129

@<SCITEGIC>MOL_PROPERTY
Idih
SciTegic.value.DoubleValue
0.000

@<SCITEGIC>MOL_PROPERTY
Tether
SciTegic.value.DoubleValue
0.000

@<TRIPOS>MOLECULE
guest-s10_confgen4.mol2 : confsearch ligand conformer 833
          20          19           1
SMALL
USER_CHARGES
 
@<TRIPOS>ATOM
       1    N1      20.524623   16.735004   23.471062 N.4        1 MOL1        -0.5937
       2    H1      20.097280   16.477364   24.364825 H          1 MOL1         0.3684
       3    H2      21.479375   17.046466   23.666327 H          1 MOL1         0.3684
       4    H3      20.591904   15.880987   22.910935 H          1 MOL1         0.3684
       5    C1      19.731372   17.797973   22.761415 C.3        1 MOL1         0.1270
       6    H4      18.736276   17.375230   22.591494 H          1 MOL1         0.0960
       7    C2      20.360048   18.106007   21.391693 C.3        1 MOL1        -0.2382
       8    H5      20.536618   17.180853   20.829504 H          1 MOL1         0.1009
       9    H6      21.319490   18.626386   21.501832 H          1 MOL1         0.1009
      10    H7      19.692806   18.728203   20.784513 H          1 MOL1         0.1009
      11    C3      19.572904   19.057698   23.647596 C.3        1 MOL1        -0.1392
      12    H8      19.154191   18.733128   24.609378 H          1 MOL1         0.0998
      13    H9      20.557586   19.484537   23.879845 H          1 MOL1         0.0998
      14    C4      18.636259   20.151775   23.070242 C.3        1 MOL1        -0.1302
      15    H10     18.076132   20.606572   23.899419 H          1 MOL1         0.0998
      16    H11     17.882406   19.700134   22.410172 H          1 MOL1         0.0998
      17    C5      19.392226   21.281243   22.331426 C.3        1 MOL1        -0.2317
      18    H12     20.094623   21.788727   23.005382 H          1 MOL1         0.1009
      19    H13     18.686942   22.035079   21.958214 H          1 MOL1         0.1009
      20    H14     19.960775   20.905691   21.473374 H          1 MOL1         0.1009
@<TRIPOS>BOND
    1     1     2    1
    2     1     3    1
    3     1     4    1
    4     1     5    1
    5     5     6    1
    6     5     7    1
    7     7     8    1
    8     7     9    1
    9     7    10    1
   10     5    11    1
   11    11    12    1
   12    11    13    1
   13    11    14    1
   14    14    15    1
   15    14    16    1
   16    14    17    1
   17    17    18    1
   18    17    19    1
   19    17    20    1
@<TRIPOS>SUBSTRUCTURE
       1 MOL1            1 RESIDUE      1      MOL     
@<SCITEGIC>MOL_PROPERTY
VConf Rank
SciTegic.value.IntegerValue
833

@<SCITEGIC>MOL_PROPERTY
Conf_Id
SciTegic.value.IntegerValue
52

@<SCITEGIC>MOL_PROPERTY
Delta U+W
SciTegic.value.DoubleValue
2.995

@<SCITEGIC>MOL_PROPERTY
U+W
SciTegic.value.DoubleValue
-33.282

@<SCITEGIC>MOL_PROPERTY
Grad RMS
SciTegic.value.DoubleValue
0.000000

@<SCITEGIC>MOL_PROPERTY
U
SciTegic.value.DoubleValue
25.224

@<SCITEGIC>MOL_PROPERTY
W
SciTegic.value.DoubleValue
-58.506

@<SCITEGIC>MOL_PROPERTY
W(PB)
SciTegic.value.DoubleValue
-60.411

@<SCITEGIC>MOL_PROPERTY
W(SA)
SciTegic.value.DoubleValue
1.905

@<SCITEGIC>MOL_PROPERTY
Valence
SciTegic.value.DoubleValue
4.945

@<SCITEGIC>MOL_PROPERTY
Coulomb
SciTegic.value.DoubleValue
19.467

@<SCITEGIC>MOL_PROPERTY
VdW
SciTegic.value.DoubleValue
0.813

@<SCITEGIC>MOL_PROPERTY
VdW6
SciTegic.value.DoubleValue
-5.458

@<SCITEGIC>MOL_PROPERTY
VdW12
SciTegic.value.DoubleValue
6.270

@<SCITEGIC>MOL_PROPERTY
Bond
SciTegic.value.DoubleValue
0.200

@<SCITEGIC>MOL_PROPERTY
Angle
SciTegic.value.DoubleValue
1.675

@<SCITEGIC>MOL_PROPERTY
Pdih
SciTegic.value.DoubleValue
3.070

@<SCITEGIC>MOL_PROPERTY
Idih
SciTegic.value.DoubleValue
0.000

@<SCITEGIC>MOL_PROPERTY
Tether
SciTegic.value.DoubleValue
0.000

@<TRIPOS>MOLECULE
guest-s10_confgen4.mol2 : confsearch ligand conformer 834
          20          19           1
SMALL
USER_CHARGES
 
@<TRIPOS>ATOM
       1    N1      20.758877   17.987428   23.495826 N.4        1 MOL1        -0.5937
       2    H1      20.405221   17.056831   23.260677 H          1 MOL1         0.3684
       3    H2      21.326672   17.894164   24.342324 H          1 MOL1         0.3684
       4    H3      21.379694   18.279229   22.737918 H          1 MOL1         0.3684
       5    C1      19.634954   18.968503   23.689572 C.3        1 MOL1         0.1270
       6    H4      20.085982   19.921166   23.984092 H          1 MOL1         0.0960
       7    C2      18.721049   18.495444   24.832704 C.3        1 MOL1        -0.2382
       8    H5      18.229080   17.547460   24.581406 H          1 MOL1         0.1009
       9    H6      17.942605   19.238985   25.044403 H          1 MOL1         0.1009
      10    H7      19.296519   18.348077   25.754904 H          1 MOL1         0.1009
      11    C3      18.810942   19.198861   22.400318 C.3        1 MOL1        -0.1392
      12    H8      18.559131   18.234566   21.939558 H          1 MOL1         0.0998
      13    H9      17.852382   19.658966   22.675182 H          1 MOL1         0.0998
      14    C4      19.482343   20.130340   21.357161 C.3        1 MOL1        -0.1302
      15    H10     19.688067   21.109095   21.812958 H          1 MOL1         0.0998
      16    H11     18.759328   20.318422   20.550996 H          1 MOL1         0.0998
      17    C5      20.778750   19.572014   20.727233 C.3        1 MOL1        -0.2317
      18    H12     21.076763   20.185791   19.867144 H          1 MOL1         0.1009
      19    H13     20.638169   18.543984   20.368473 H          1 MOL1         0.1009
      20    H14     21.613863   19.590944   21.436928 H          1 MOL1         0.1009
@<TRIPOS>BOND
    1     1     2    1
    2     1     3    1
    3     1     4    1
    4     1     5    1
    5     5     6    1
    6     5     7    1
    7     7     8    1
    8     7     9    1
    9     7    10    1
   10     5    11    1
   11    11    12    1
   12    11    13    1
   13    11    14    1
   14    14    15    1
   15    14    16    1
   16    14    17    1
   17    17    18    1
   18    17    19    1
   19    17    20    1
@<TRIPOS>SUBSTRUCTURE
       1 MOL1            1 RESIDUE      1      MOL     
@<SCITEGIC>MOL_PROPERTY
VConf Rank
SciTegic.value.IntegerValue
834

@<SCITEGIC>MOL_PROPERTY
Conf_Id
SciTegic.value.IntegerValue
54

@<SCITEGIC>MOL_PROPERTY
Delta U+W
SciTegic.value.DoubleValue
2.752

@<SCITEGIC>MOL_PROPERTY
U+W
SciTegic.value.DoubleValue
-33.525

@<SCITEGIC>MOL_PROPERTY
Grad RMS
SciTegic.value.DoubleValue
0.000000

@<SCITEGIC>MOL_PROPERTY
U
SciTegic.value.DoubleValue
24.337

@<SCITEGIC>MOL_PROPERTY
W
SciTegic.value.DoubleValue
-57.862

@<SCITEGIC>MOL_PROPERTY
W(PB)
SciTegic.value.DoubleValue
-59.764

@<SCITEGIC>MOL_PROPERTY
W(SA)
SciTegic.value.DoubleValue
1.901

@<SCITEGIC>MOL_PROPERTY
Valence
SciTegic.value.DoubleValue
3.593

@<SCITEGIC>MOL_PROPERTY
Coulomb
SciTegic.value.DoubleValue
20.067

@<SCITEGIC>MOL_PROPERTY
VdW
SciTegic.value.DoubleValue
0.677

@<SCITEGIC>MOL_PROPERTY
VdW6
SciTegic.value.DoubleValue
-5.466

@<SCITEGIC>MOL_PROPERTY
VdW12
SciTegic.value.DoubleValue
6.144

@<SCITEGIC>MOL_PROPERTY
Bond
SciTegic.value.DoubleValue
0.191

@<SCITEGIC>MOL_PROPERTY
Angle
SciTegic.value.DoubleValue
1.557

@<SCITEGIC>MOL_PROPERTY
Pdih
SciTegic.value.DoubleValue
1.845

@<SCITEGIC>MOL_PROPERTY
Idih
SciTegic.value.DoubleValue
0.000

@<SCITEGIC>MOL_PROPERTY
Tether
SciTegic.value.DoubleValue
0.000

@<TRIPOS>MOLECULE
guest-s10_confgen4.mol2 : confsearch ligand conformer 835
          20          19           1
SMALL
USER_CHARGES
 
@<TRIPOS>ATOM
       1    N1      18.546940   20.021025   21.405368 N.4        1 MOL1        -0.5937
       2    H1      17.673001   19.994002   20.873246 H          1 MOL1         0.3684
       3    H2      19.199549   20.615650   20.887455 H          1 MOL1         0.3684
       4    H3      18.348528   20.484478   22.294914 H          1 MOL1         0.3684
       5    C1      19.105599   18.640111   21.617178 C.3        1 MOL1         0.1270
       6    H4      19.267613   18.222715   20.618402 H          1 MOL1         0.0960
       7    C2      18.088913   17.736804   22.337753 C.3        1 MOL1        -0.2382
       8    H5      18.500559   16.731678   22.491837 H          1 MOL1         0.1009
       9    H6      17.175926   17.633218   21.738744 H          1 MOL1         0.1009
      10    H7      17.803464   18.145030   23.314437 H          1 MOL1         0.1009
      11    C3      20.477337   18.658946   22.333442 C.3        1 MOL1        -0.1392
      12    H8      20.867909   17.633531   22.374845 H          1 MOL1         0.0998
      13    H9      21.184632   19.225538   21.713673 H          1 MOL1         0.0998
      14    C4      20.460945   19.258330   23.763412 C.3        1 MOL1        -0.1302
      15    H10     19.797329   18.672641   24.413485 H          1 MOL1         0.0998
      16    H11     20.063577   20.281933   23.741124 H          1 MOL1         0.0998
      17    C5      21.874267   19.281110   24.384161 C.3        1 MOL1        -0.2317
      18    H12     21.846510   19.705592   25.396144 H          1 MOL1         0.1009
      19    H13     22.560677   19.891074   23.782491 H          1 MOL1         0.1009
      20    H14     22.290800   18.267898   24.455761 H          1 MOL1         0.1009
@<TRIPOS>BOND
    1     1     2    1
    2     1     3    1
    3     1     4    1
    4     1     5    1
    5     5     6    1
    6     5     7    1
    7     7     8    1
    8     7     9    1
    9     7    10    1
   10     5    11    1
   11    11    12    1
   12    11    13    1
   13    11    14    1
   14    14    15    1
   15    14    16    1
   16    14    17    1
   17    17    18    1
   18    17    19    1
   19    17    20    1
@<TRIPOS>SUBSTRUCTURE
       1 MOL1            1 RESIDUE      1      MOL     
@<SCITEGIC>MOL_PROPERTY
VConf Rank
SciTegic.value.IntegerValue
835

@<SCITEGIC>MOL_PROPERTY
Conf_Id
SciTegic.value.IntegerValue
63

@<SCITEGIC>MOL_PROPERTY
Delta U+W
SciTegic.value.DoubleValue
0.420

@<SCITEGIC>MOL_PROPERTY
U+W
SciTegic.value.DoubleValue
-35.856

@<SCITEGIC>MOL_PROPERTY
Grad RMS
SciTegic.value.DoubleValue
0.000000

@<SCITEGIC>MOL_PROPERTY
U
SciTegic.value.DoubleValue
22.625

@<SCITEGIC>MOL_PROPERTY
W
SciTegic.value.DoubleValue
-58.481

@<SCITEGIC>MOL_PROPERTY
W(PB)
SciTegic.value.DoubleValue
-60.400

@<SCITEGIC>MOL_PROPERTY
W(SA)
SciTegic.value.DoubleValue
1.919

@<SCITEGIC>MOL_PROPERTY
Valence
SciTegic.value.DoubleValue
2.404

@<SCITEGIC>MOL_PROPERTY
Coulomb
SciTegic.value.DoubleValue
19.464

@<SCITEGIC>MOL_PROPERTY
VdW
SciTegic.value.DoubleValue
0.757

@<SCITEGIC>MOL_PROPERTY
VdW6
SciTegic.value.DoubleValue
-5.074

@<SCITEGIC>MOL_PROPERTY
VdW12
SciTegic.value.DoubleValue
5.830

@<SCITEGIC>MOL_PROPERTY
Bond
SciTegic.value.DoubleValue
0.172

@<SCITEGIC>MOL_PROPERTY
Angle
SciTegic.value.DoubleValue
1.207

@<SCITEGIC>MOL_PROPERTY
Pdih
SciTegic.value.DoubleValue
1.025

@<SCITEGIC>MOL_PROPERTY
Idih
SciTegic.value.DoubleValue
0.000

@<SCITEGIC>MOL_PROPERTY
Tether
SciTegic.value.DoubleValue
0.000

@<TRIPOS>MOLECULE
guest-s10_confgen4.mol2 : confsearch ligand conformer 836
          20          19           1
SMALL
USER_CHARGES
 
@<TRIPOS>ATOM
       1    N1      18.871088   20.090631   21.646014 N.4        1 MOL1        -0.5937
       2    H1      19.639263   19.866876   21.008271 H          1 MOL1         0.3684
       3    H2      18.997141   21.058406   21.952516 H          1 MOL1         0.3684
       4    H3      18.003238   20.051672   21.104847 H          1 MOL1         0.3684
       5    C1      18.836353   19.142618   22.814022 C.3        1 MOL1         0.1270
       6    H4      18.696854   18.139152   22.400835 H          1 MOL1         0.0960
       7    C2      17.641265   19.452929   23.729983 C.3        1 MOL1        -0.2382
       8    H5      16.699690   19.406191   23.169188 H          1 MOL1         0.1009
       9    H6      17.727277   20.454098   24.170454 H          1 MOL1         0.1009
      10    H7      17.577505   18.724344   24.547736 H          1 MOL1         0.1009
      11    C3      20.152576   19.154413   23.624206 C.3        1 MOL1        -0.1392
      12    H8      20.302301   20.150533   24.061426 H          1 MOL1         0.0998
      13    H9      20.057946   18.459826   24.469499 H          1 MOL1         0.0998
      14    C4      21.408069   18.767955   22.801840 C.3        1 MOL1        -0.1302
      15    H10     22.287204   18.809647   23.460085 H          1 MOL1         0.0998
      16    H11     21.587801   19.509366   22.011542 H          1 MOL1         0.0998
      17    C5      21.314350   17.355647   22.180574 C.3        1 MOL1        -0.2317
      18    H12     21.134707   16.596189   22.952670 H          1 MOL1         0.1009
      19    H13     22.250866   17.097599   21.669285 H          1 MOL1         0.1009
      20    H14     20.505864   17.291041   21.441607 H          1 MOL1         0.1009
@<TRIPOS>BOND
    1     1     2    1
    2     1     3    1
    3     1     4    1
    4     1     5    1
    5     5     6    1
    6     5     7    1
    7     7     8    1
    8     7     9    1
    9     7    10    1
   10     5    11    1
   11    11    12    1
   12    11    13    1
   13    11    14    1
   14    14    15    1
   15    14    16    1
   16    14    17    1
   17    17    18    1
   18    17    19    1
   19    17    20    1
@<TRIPOS>SUBSTRUCTURE
       1 MOL1            1 RESIDUE      1      MOL     
@<SCITEGIC>MOL_PROPERTY
VConf Rank
SciTegic.value.IntegerValue
836

@<SCITEGIC>MOL_PROPERTY
Conf_Id
SciTegic.value.IntegerValue
50

@<SCITEGIC>MOL_PROPERTY
Delta U+W
SciTegic.value.DoubleValue
0.466

@<SCITEGIC>MOL_PROPERTY
U+W
SciTegic.value.DoubleValue
-35.811

@<SCITEGIC>MOL_PROPERTY
Grad RMS
SciTegic.value.DoubleValue
0.000000

@<SCITEGIC>MOL_PROPERTY
U
SciTegic.value.DoubleValue
22.369

@<SCITEGIC>MOL_PROPERTY
W
SciTegic.value.DoubleValue
-58.180

@<SCITEGIC>MOL_PROPERTY
W(PB)
SciTegic.value.DoubleValue
-60.103

@<SCITEGIC>MOL_PROPERTY
W(SA)
SciTegic.value.DoubleValue
1.923

@<SCITEGIC>MOL_PROPERTY
Valence
SciTegic.value.DoubleValue
2.168

@<SCITEGIC>MOL_PROPERTY
Coulomb
SciTegic.value.DoubleValue
19.636

@<SCITEGIC>MOL_PROPERTY
VdW
SciTegic.value.DoubleValue
0.566

@<SCITEGIC>MOL_PROPERTY
VdW6
SciTegic.value.DoubleValue
-5.263

@<SCITEGIC>MOL_PROPERTY
VdW12
SciTegic.value.DoubleValue
5.829

@<SCITEGIC>MOL_PROPERTY
Bond
SciTegic.value.DoubleValue
0.162

@<SCITEGIC>MOL_PROPERTY
Angle
SciTegic.value.DoubleValue
1.066

@<SCITEGIC>MOL_PROPERTY
Pdih
SciTegic.value.DoubleValue
0.939

@<SCITEGIC>MOL_PROPERTY
Idih
SciTegic.value.DoubleValue
0.000

@<SCITEGIC>MOL_PROPERTY
Tether
SciTegic.value.DoubleValue
0.000

@<TRIPOS>MOLECULE
guest-s10_confgen4.mol2 : confsearch ligand conformer 837
          20          19           1
SMALL
USER_CHARGES
 
@<TRIPOS>ATOM
       1    N1      21.745498   17.864954   23.025384 N.4        1 MOL1        -0.5937
       2    H1      22.324162   18.242926   22.270215 H          1 MOL1         0.3684
       3    H2      21.602389   16.870045   22.834204 H          1 MOL1         0.3684
       4    H3      22.292101   17.933391   23.888098 H          1 MOL1         0.3684
       5    C1      20.437154   18.599156   23.142710 C.3        1 MOL1         0.1270
       6    H4      20.691396   19.644829   23.341934 H          1 MOL1         0.0960
       7    C2      19.630697   18.051311   24.334959 C.3        1 MOL1        -0.2382
       8    H5      19.394603   16.988748   24.197531 H          1 MOL1         0.1009
       9    H6      18.686613   18.591298   24.464989 H          1 MOL1         0.1009
      10    H7      20.200676   18.153763   25.266492 H          1 MOL1         0.1009
      11    C3      19.622963   18.543627   21.826564 C.3        1 MOL1        -0.1392
      12    H8      20.288945   18.251061   21.004040 H          1 MOL1         0.0998
      13    H9      18.858299   17.757308   21.881376 H          1 MOL1         0.0998
      14    C4      18.971554   19.894006   21.434233 C.3        1 MOL1        -0.1302
      15    H10     18.485176   19.777614   20.455550 H          1 MOL1         0.0998
      16    H11     19.754297   20.653384   21.297337 H          1 MOL1         0.0998
      17    C5      17.928057   20.411046   22.449131 C.3        1 MOL1        -0.2317
      18    H12     17.153677   19.656888   22.640467 H          1 MOL1         0.1009
      19    H13     17.430887   21.310431   22.063166 H          1 MOL1         0.1009
      20    H14     18.396535   20.680259   23.403952 H          1 MOL1         0.1009
@<TRIPOS>BOND
    1     1     2    1
    2     1     3    1
    3     1     4    1
    4     1     5    1
    5     5     6    1
    6     5     7    1
    7     7     8    1
    8     7     9    1
    9     7    10    1
   10     5    11    1
   11    11    12    1
   12    11    13    1
   13    11    14    1
   14    14    15    1
   15    14    16    1
   16    14    17    1
   17    17    18    1
   18    17    19    1
   19    17    20    1
@<TRIPOS>SUBSTRUCTURE
       1 MOL1            1 RESIDUE      1      MOL     
@<SCITEGIC>MOL_PROPERTY
VConf Rank
SciTegic.value.IntegerValue
837

@<SCITEGIC>MOL_PROPERTY
Conf_Id
SciTegic.value.IntegerValue
3

@<SCITEGIC>MOL_PROPERTY
Delta U+W
SciTegic.value.DoubleValue
3.093

@<SCITEGIC>MOL_PROPERTY
U+W
SciTegic.value.DoubleValue
-33.184

@<SCITEGIC>MOL_PROPERTY
Grad RMS
SciTegic.value.DoubleValue
0.000000

@<SCITEGIC>MOL_PROPERTY
U
SciTegic.value.DoubleValue
25.256

@<SCITEGIC>MOL_PROPERTY
W
SciTegic.value.DoubleValue
-58.439

@<SCITEGIC>MOL_PROPERTY
W(PB)
SciTegic.value.DoubleValue
-60.337

@<SCITEGIC>MOL_PROPERTY
W(SA)
SciTegic.value.DoubleValue
1.898

@<SCITEGIC>MOL_PROPERTY
Valence
SciTegic.value.DoubleValue
4.963

@<SCITEGIC>MOL_PROPERTY
Coulomb
SciTegic.value.DoubleValue
19.511

@<SCITEGIC>MOL_PROPERTY
VdW
SciTegic.value.DoubleValue
0.782

@<SCITEGIC>MOL_PROPERTY
VdW6
SciTegic.value.DoubleValue
-5.429

@<SCITEGIC>MOL_PROPERTY
VdW12
SciTegic.value.DoubleValue
6.211

@<SCITEGIC>MOL_PROPERTY
Bond
SciTegic.value.DoubleValue
0.174

@<SCITEGIC>MOL_PROPERTY
Angle
SciTegic.value.DoubleValue
1.377

@<SCITEGIC>MOL_PROPERTY
Pdih
SciTegic.value.DoubleValue
3.412

@<SCITEGIC>MOL_PROPERTY
Idih
SciTegic.value.DoubleValue
0.000

@<SCITEGIC>MOL_PROPERTY
Tether
SciTegic.value.DoubleValue
0.000

@<TRIPOS>MOLECULE
guest-s10_confgen4.mol2 : confsearch ligand conformer 838
          20          19           1
SMALL
USER_CHARGES
 
@<TRIPOS>ATOM
       1    N1      20.012831   16.987399   21.631114 N.4        1 MOL1        -0.5937
       2    H1      20.194750   16.095042   22.098276 H          1 MOL1         0.3684
       3    H2      20.825428   17.192059   21.043211 H          1 MOL1         0.3684
       4    H3      19.212467   16.847331   21.009437 H          1 MOL1         0.3684
       5    C1      19.755074   18.086883   22.624633 C.3        1 MOL1         0.1270
       6    H4      20.655540   18.159587   23.241862 H          1 MOL1         0.0960
       7    C2      18.569801   17.718547   23.535434 C.3        1 MOL1        -0.2382
       8    H5      18.456154   18.441026   24.351916 H          1 MOL1         0.1009
       9    H6      18.725085   16.733823   23.992970 H          1 MOL1         0.1009
      10    H7      17.629814   17.687025   22.970703 H          1 MOL1         0.1009
      11    C3      19.541863   19.444927   21.914222 C.3        1 MOL1        -0.1392
      12    H8      20.376738   19.613882   21.221427 H          1 MOL1         0.0998
      13    H9      18.637433   19.392392   21.293753 H          1 MOL1         0.0998
      14    C4      19.437121   20.669384   22.859123 C.3        1 MOL1        -0.1302
      15    H10     18.532710   20.597531   23.478114 H          1 MOL1         0.0998
      16    H11     19.311693   21.574851   22.249010 H          1 MOL1         0.0998
      17    C5      20.677599   20.843779   23.764634 C.3        1 MOL1        -0.2317
      18    H12     21.595819   20.915225   23.167202 H          1 MOL1         0.1009
      19    H13     20.787263   20.005566   24.464231 H          1 MOL1         0.1009
      20    H14     20.593124   21.762205   24.359928 H          1 MOL1         0.1009
@<TRIPOS>BOND
    1     1     2    1
    2     1     3    1
    3     1     4    1
    4     1     5    1
    5     5     6    1
    6     5     7    1
    7     7     8    1
    8     7     9    1
    9     7    10    1
   10     5    11    1
   11    11    12    1
   12    11    13    1
   13    11    14    1
   14    14    15    1
   15    14    16    1
   16    14    17    1
   17    17    18    1
   18    17    19    1
   19    17    20    1
@<TRIPOS>SUBSTRUCTURE
       1 MOL1            1 RESIDUE      1      MOL     
@<SCITEGIC>MOL_PROPERTY
VConf Rank
SciTegic.value.IntegerValue
838

@<SCITEGIC>MOL_PROPERTY
Conf_Id
SciTegic.value.IntegerValue
64

@<SCITEGIC>MOL_PROPERTY
Delta U+W
SciTegic.value.DoubleValue
0.544

@<SCITEGIC>MOL_PROPERTY
U+W
SciTegic.value.DoubleValue
-35.732

@<SCITEGIC>MOL_PROPERTY
Grad RMS
SciTegic.value.DoubleValue
0.000000

@<SCITEGIC>MOL_PROPERTY
U
SciTegic.value.DoubleValue
22.800

@<SCITEGIC>MOL_PROPERTY
W
SciTegic.value.DoubleValue
-58.532

@<SCITEGIC>MOL_PROPERTY
W(PB)
SciTegic.value.DoubleValue
-60.437

@<SCITEGIC>MOL_PROPERTY
W(SA)
SciTegic.value.DoubleValue
1.905

@<SCITEGIC>MOL_PROPERTY
Valence
SciTegic.value.DoubleValue
2.662

@<SCITEGIC>MOL_PROPERTY
Coulomb
SciTegic.value.DoubleValue
19.485

@<SCITEGIC>MOL_PROPERTY
VdW
SciTegic.value.DoubleValue
0.653

@<SCITEGIC>MOL_PROPERTY
VdW6
SciTegic.value.DoubleValue
-5.460

@<SCITEGIC>MOL_PROPERTY
VdW12
SciTegic.value.DoubleValue
6.113

@<SCITEGIC>MOL_PROPERTY
Bond
SciTegic.value.DoubleValue
0.174

@<SCITEGIC>MOL_PROPERTY
Angle
SciTegic.value.DoubleValue
1.378

@<SCITEGIC>MOL_PROPERTY
Pdih
SciTegic.value.DoubleValue
1.109

@<SCITEGIC>MOL_PROPERTY
Idih
SciTegic.value.DoubleValue
0.000

@<SCITEGIC>MOL_PROPERTY
Tether
SciTegic.value.DoubleValue
0.000

@<TRIPOS>MOLECULE
guest-s10_confgen4.mol2 : confsearch ligand conformer 839
          20          19           1
SMALL
USER_CHARGES
 
@<TRIPOS>ATOM
       1    N1      21.173930   17.670383   21.713940 N.4        1 MOL1        -0.5937
       2    H1      21.172965   17.279791   22.658774 H          1 MOL1         0.3684
       3    H2      22.151027   17.780157   21.429609 H          1 MOL1         0.3684
       4    H3      20.753652   16.973628   21.093006 H          1 MOL1         0.3684
       5    C1      20.434130   18.979742   21.658210 C.3        1 MOL1         0.1270
       6    H4      20.501507   19.317445   20.619277 H          1 MOL1         0.0960
       7    C2      21.127446   20.038614   22.531037 C.3        1 MOL1        -0.2382
       8    H5      21.217804   19.704935   23.571327 H          1 MOL1         0.1009
       9    H6      20.571700   20.984234   22.514036 H          1 MOL1         0.1009
      10    H7      22.138590   20.240483   22.157130 H          1 MOL1         0.1009
      11    C3      18.927755   18.819988   21.984174 C.3        1 MOL1        -0.1392
      12    H8      18.405171   19.759411   21.760821 H          1 MOL1         0.0998
      13    H9      18.515637   18.086583   21.278655 H          1 MOL1         0.0998
      14    C4      18.582540   18.355126   23.426379 C.3        1 MOL1        -0.1302
      15    H10     19.372917   17.708389   23.829387 H          1 MOL1         0.0998
      16    H11     17.679176   17.730694   23.381651 H          1 MOL1         0.0998
      17    C5      18.301144   19.522566   24.401390 C.3        1 MOL1        -0.2317
      18    H12     19.174784   20.169795   24.534899 H          1 MOL1         0.1009
      19    H13     18.021631   19.136906   25.390381 H          1 MOL1         0.1009
      20    H14     17.471109   20.144075   24.041095 H          1 MOL1         0.1009
@<TRIPOS>BOND
    1     1     2    1
    2     1     3    1
    3     1     4    1
    4     1     5    1
    5     5     6    1
    6     5     7    1
    7     7     8    1
    8     7     9    1
    9     7    10    1
   10     5    11    1
   11    11    12    1
   12    11    13    1
   13    11    14    1
   14    14    15    1
   15    14    16    1
   16    14    17    1
   17    17    18    1
   18    17    19    1
   19    17    20    1
@<TRIPOS>SUBSTRUCTURE
       1 MOL1            1 RESIDUE      1      MOL     
@<SCITEGIC>MOL_PROPERTY
VConf Rank
SciTegic.value.IntegerValue
839

@<SCITEGIC>MOL_PROPERTY
Conf_Id
SciTegic.value.IntegerValue
35

@<SCITEGIC>MOL_PROPERTY
Delta U+W
SciTegic.value.DoubleValue
3.004

@<SCITEGIC>MOL_PROPERTY
U+W
SciTegic.value.DoubleValue
-33.272

@<SCITEGIC>MOL_PROPERTY
Grad RMS
SciTegic.value.DoubleValue
0.000000

@<SCITEGIC>MOL_PROPERTY
U
SciTegic.value.DoubleValue
25.367

@<SCITEGIC>MOL_PROPERTY
W
SciTegic.value.DoubleValue
-58.639

@<SCITEGIC>MOL_PROPERTY
W(PB)
SciTegic.value.DoubleValue
-60.512

@<SCITEGIC>MOL_PROPERTY
W(SA)
SciTegic.value.DoubleValue
1.873

@<SCITEGIC>MOL_PROPERTY
Valence
SciTegic.value.DoubleValue
4.943

@<SCITEGIC>MOL_PROPERTY
Coulomb
SciTegic.value.DoubleValue
19.661

@<SCITEGIC>MOL_PROPERTY
VdW
SciTegic.value.DoubleValue
0.764

@<SCITEGIC>MOL_PROPERTY
VdW6
SciTegic.value.DoubleValue
-5.871

@<SCITEGIC>MOL_PROPERTY
VdW12
SciTegic.value.DoubleValue
6.636

@<SCITEGIC>MOL_PROPERTY
Bond
SciTegic.value.DoubleValue
0.230

@<SCITEGIC>MOL_PROPERTY
Angle
SciTegic.value.DoubleValue
1.857

@<SCITEGIC>MOL_PROPERTY
Pdih
SciTegic.value.DoubleValue
2.855

@<SCITEGIC>MOL_PROPERTY
Idih
SciTegic.value.DoubleValue
0.000

@<SCITEGIC>MOL_PROPERTY
Tether
SciTegic.value.DoubleValue
0.000

@<TRIPOS>MOLECULE
guest-s10_confgen4.mol2 : confsearch ligand conformer 840
          20          19           1
SMALL
USER_CHARGES
 
@<TRIPOS>ATOM
       1    N1      20.310209   20.626729   23.116848 N.4        1 MOL1        -0.5937
       2    H1      21.002221   21.316113   22.811118 H          1 MOL1         0.3684
       3    H2      19.988979   20.909303   24.046658 H          1 MOL1         0.3684
       4    H3      19.509986   20.689355   22.484616 H          1 MOL1         0.3684
       5    C1      20.884955   19.236797   23.131575 C.3        1 MOL1         0.1270
       6    H4      21.709324   19.272339   23.850657 H          1 MOL1         0.0960
       7    C2      21.485274   18.862915   21.764703 C.3        1 MOL1        -0.2382
       8    H5      20.732149   18.897592   20.968528 H          1 MOL1         0.1009
       9    H6      21.912643   17.852918   21.790830 H          1 MOL1         0.1009
      10    H7      22.290130   19.557688   21.495509 H          1 MOL1         0.1009
      11    C3      19.884598   18.171477   23.648964 C.3        1 MOL1        -0.1392
      12    H8      20.461892   17.278061   23.921143 H          1 MOL1         0.0998
      13    H9      19.440211   18.527404   24.587609 H          1 MOL1         0.0998
      14    C4      18.751578   17.727907   22.681438 C.3        1 MOL1        -0.1302
      15    H10     18.166118   16.943783   23.181649 H          1 MOL1         0.0998
      16    H11     19.178113   17.251905   21.788061 H          1 MOL1         0.0998
      17    C5      17.785850   18.857750   22.257472 C.3        1 MOL1        -0.2317
      18    H12     17.409420   19.408172   23.129526 H          1 MOL1         0.1009
      19    H13     16.919334   18.438515   21.729682 H          1 MOL1         0.1009
      20    H14     18.267627   19.564821   21.572484 H          1 MOL1         0.1009
@<TRIPOS>BOND
    1     1     2    1
    2     1     3    1
    3     1     4    1
    4     1     5    1
    5     5     6    1
    6     5     7    1
    7     7     8    1
    8     7     9    1
    9     7    10    1
   10     5    11    1
   11    11    12    1
   12    11    13    1
   13    11    14    1
   14    14    15    1
   15    14    16    1
   16    14    17    1
   17    17    18    1
   18    17    19    1
   19    17    20    1
@<TRIPOS>SUBSTRUCTURE
       1 MOL1            1 RESIDUE      1      MOL     
@<SCITEGIC>MOL_PROPERTY
VConf Rank
SciTegic.value.IntegerValue
840

@<SCITEGIC>MOL_PROPERTY
Conf_Id
SciTegic.value.IntegerValue
55

@<SCITEGIC>MOL_PROPERTY
Delta U+W
SciTegic.value.DoubleValue
2.767

@<SCITEGIC>MOL_PROPERTY
U+W
SciTegic.value.DoubleValue
-33.509

@<SCITEGIC>MOL_PROPERTY
Grad RMS
SciTegic.value.DoubleValue
0.000000

@<SCITEGIC>MOL_PROPERTY
U
SciTegic.value.DoubleValue
24.552

@<SCITEGIC>MOL_PROPERTY
W
SciTegic.value.DoubleValue
-58.061

@<SCITEGIC>MOL_PROPERTY
W(PB)
SciTegic.value.DoubleValue
-59.930

@<SCITEGIC>MOL_PROPERTY
W(SA)
SciTegic.value.DoubleValue
1.869

@<SCITEGIC>MOL_PROPERTY
Valence
SciTegic.value.DoubleValue
3.726

@<SCITEGIC>MOL_PROPERTY
Coulomb
SciTegic.value.DoubleValue
20.219

@<SCITEGIC>MOL_PROPERTY
VdW
SciTegic.value.DoubleValue
0.606

@<SCITEGIC>MOL_PROPERTY
VdW6
SciTegic.value.DoubleValue
-6.395

@<SCITEGIC>MOL_PROPERTY
VdW12
SciTegic.value.DoubleValue
7.001

@<SCITEGIC>MOL_PROPERTY
Bond
SciTegic.value.DoubleValue
0.241

@<SCITEGIC>MOL_PROPERTY
Angle
SciTegic.value.DoubleValue
2.098

@<SCITEGIC>MOL_PROPERTY
Pdih
SciTegic.value.DoubleValue
1.387

@<SCITEGIC>MOL_PROPERTY
Idih
SciTegic.value.DoubleValue
0.000

@<SCITEGIC>MOL_PROPERTY
Tether
SciTegic.value.DoubleValue
0.000

@<TRIPOS>MOLECULE
guest-s10_confgen4.mol2 : confsearch ligand conformer 841
          20          19           1
SMALL
USER_CHARGES
 
@<TRIPOS>ATOM
       1    N1      18.659543   17.894432   23.975844 N.4        1 MOL1        -0.5937
       2    H1      19.358377   17.810868   24.718268 H          1 MOL1         0.3684
       3    H2      18.013361   17.106852   24.074959 H          1 MOL1         0.3684
       4    H3      18.125474   18.749248   24.150891 H          1 MOL1         0.3684
       5    C1      19.300825   17.912766   22.614417 C.3        1 MOL1         0.1270
       6    H4      18.489814   18.007785   21.885637 H          1 MOL1         0.0960
       7    C2      20.036188   16.589454   22.345983 C.3        1 MOL1        -0.2382
       8    H5      19.350908   15.738120   22.440245 H          1 MOL1         0.1009
       9    H6      20.862179   16.443216   23.053194 H          1 MOL1         0.1009
      10    H7      20.449538   16.571974   21.329875 H          1 MOL1         0.1009
      11    C3      20.260966   19.108183   22.426655 C.3        1 MOL1        -0.1392
      12    H8      21.073184   19.049411   23.163381 H          1 MOL1         0.0998
      13    H9      20.730594   19.033123   21.436765 H          1 MOL1         0.0998
      14    C4      19.550904   20.478836   22.539088 C.3        1 MOL1        -0.1302
      15    H10     19.120034   20.602289   23.541852 H          1 MOL1         0.0998
      16    H11     18.715535   20.522720   21.826013 H          1 MOL1         0.0998
      17    C5      20.520835   21.647564   22.262300 C.3        1 MOL1        -0.2317
      18    H12     21.352318   21.648989   22.979161 H          1 MOL1         0.1009
      19    H13     20.001472   22.610932   22.347566 H          1 MOL1         0.1009
      20    H14     20.941958   21.581165   21.250629 H          1 MOL1         0.1009
@<TRIPOS>BOND
    1     1     2    1
    2     1     3    1
    3     1     4    1
    4     1     5    1
    5     5     6    1
    6     5     7    1
    7     7     8    1
    8     7     9    1
    9     7    10    1
   10     5    11    1
   11    11    12    1
   12    11    13    1
   13    11    14    1
   14    14    15    1
   15    14    16    1
   16    14    17    1
   17    17    18    1
   18    17    19    1
   19    17    20    1
@<TRIPOS>SUBSTRUCTURE
       1 MOL1            1 RESIDUE      1      MOL     
@<SCITEGIC>MOL_PROPERTY
VConf Rank
SciTegic.value.IntegerValue
841

@<SCITEGIC>MOL_PROPERTY
Conf_Id
SciTegic.value.IntegerValue
74

@<SCITEGIC>MOL_PROPERTY
Delta U+W
SciTegic.value.DoubleValue
0.000

@<SCITEGIC>MOL_PROPERTY
U+W
SciTegic.value.DoubleValue
-36.276

@<SCITEGIC>MOL_PROPERTY
Grad RMS
SciTegic.value.DoubleValue
0.000000

@<SCITEGIC>MOL_PROPERTY
U
SciTegic.value.DoubleValue
22.080

@<SCITEGIC>MOL_PROPERTY
W
SciTegic.value.DoubleValue
-58.356

@<SCITEGIC>MOL_PROPERTY
W(PB)
SciTegic.value.DoubleValue
-60.289

@<SCITEGIC>MOL_PROPERTY
W(SA)
SciTegic.value.DoubleValue
1.932

@<SCITEGIC>MOL_PROPERTY
Valence
SciTegic.value.DoubleValue
1.885

@<SCITEGIC>MOL_PROPERTY
Coulomb
SciTegic.value.DoubleValue
19.559

@<SCITEGIC>MOL_PROPERTY
VdW
SciTegic.value.DoubleValue
0.637

@<SCITEGIC>MOL_PROPERTY
VdW6
SciTegic.value.DoubleValue
-4.482

@<SCITEGIC>MOL_PROPERTY
VdW12
SciTegic.value.DoubleValue
5.119

@<SCITEGIC>MOL_PROPERTY
Bond
SciTegic.value.DoubleValue
0.136

@<SCITEGIC>MOL_PROPERTY
Angle
SciTegic.value.DoubleValue
0.867

@<SCITEGIC>MOL_PROPERTY
Pdih
SciTegic.value.DoubleValue
0.882

@<SCITEGIC>MOL_PROPERTY
Idih
SciTegic.value.DoubleValue
0.000

@<SCITEGIC>MOL_PROPERTY
Tether
SciTegic.value.DoubleValue
0.000

@<TRIPOS>MOLECULE
guest-s10_confgen4.mol2 : confsearch ligand conformer 842
          20          19           1
SMALL
USER_CHARGES
 
@<TRIPOS>ATOM
       1    N1      18.740723   17.275168   24.124317 N.4        1 MOL1        -0.5937
       2    H1      19.218600   17.439862   25.014467 H          1 MOL1         0.3684
       3    H2      19.166480   16.449178   23.696301 H          1 MOL1         0.3684
       4    H3      17.769181   17.038058   24.342412 H          1 MOL1         0.3684
       5    C1      18.825295   18.472859   23.218310 C.3        1 MOL1         0.1270
       6    H4      18.346746   19.298705   23.753878 H          1 MOL1         0.0960
       7    C2      18.039803   18.216033   21.919139 C.3        1 MOL1        -0.2382
       8    H5      17.016372   17.891725   22.144161 H          1 MOL1         0.1009
       9    H6      18.517909   17.436198   21.313457 H          1 MOL1         0.1009
      10    H7      17.964274   19.125245   21.311806 H          1 MOL1         0.1009
      11    C3      20.296124   18.863090   22.942865 C.3        1 MOL1        -0.1392
      12    H8      20.824790   18.924933   23.903256 H          1 MOL1         0.0998
      13    H9      20.788411   18.067344   22.368155 H          1 MOL1         0.0998
      14    C4      20.456987   20.215019   22.205592 C.3        1 MOL1        -0.1302
      15    H10     19.911071   21.000071   22.747570 H          1 MOL1         0.0998
      16    H11     20.016942   20.156227   21.201200 H          1 MOL1         0.0998
      17    C5      21.941134   20.620304   22.076233 C.3        1 MOL1        -0.2317
      18    H12     22.408401   20.732479   23.063307 H          1 MOL1         0.1009
      19    H13     22.036889   21.578091   21.548441 H          1 MOL1         0.1009
      20    H14     22.508327   19.867649   21.513151 H          1 MOL1         0.1009
@<TRIPOS>BOND
    1     1     2    1
    2     1     3    1
    3     1     4    1
    4     1     5    1
    5     5     6    1
    6     5     7    1
    7     7     8    1
    8     7     9    1
    9     7    10    1
   10     5    11    1
   11    11    12    1
   12    11    13    1
   13    11    14    1
   14    14    15    1
   15    14    16    1
   16    14    17    1
   17    17    18    1
   18    17    19    1
   19    17    20    1
@<TRIPOS>SUBSTRUCTURE
       1 MOL1            1 RESIDUE      1      MOL     
@<SCITEGIC>MOL_PROPERTY
VConf Rank
SciTegic.value.IntegerValue
842

@<SCITEGIC>MOL_PROPERTY
Conf_Id
SciTegic.value.IntegerValue
80

@<SCITEGIC>MOL_PROPERTY
Delta U+W
SciTegic.value.DoubleValue
0.460

@<SCITEGIC>MOL_PROPERTY
U+W
SciTegic.value.DoubleValue
-35.817

@<SCITEGIC>MOL_PROPERTY
Grad RMS
SciTegic.value.DoubleValue
0.000000

@<SCITEGIC>MOL_PROPERTY
U
SciTegic.value.DoubleValue
22.495

@<SCITEGIC>MOL_PROPERTY
W
SciTegic.value.DoubleValue
-58.311

@<SCITEGIC>MOL_PROPERTY
W(PB)
SciTegic.value.DoubleValue
-60.259

@<SCITEGIC>MOL_PROPERTY
W(SA)
SciTegic.value.DoubleValue
1.948

@<SCITEGIC>MOL_PROPERTY
Valence
SciTegic.value.DoubleValue
2.419

@<SCITEGIC>MOL_PROPERTY
Coulomb
SciTegic.value.DoubleValue
19.304

@<SCITEGIC>MOL_PROPERTY
VdW
SciTegic.value.DoubleValue
0.772

@<SCITEGIC>MOL_PROPERTY
VdW6
SciTegic.value.DoubleValue
-4.635

@<SCITEGIC>MOL_PROPERTY
VdW12
SciTegic.value.DoubleValue
5.407

@<SCITEGIC>MOL_PROPERTY
Bond
SciTegic.value.DoubleValue
0.149

@<SCITEGIC>MOL_PROPERTY
Angle
SciTegic.value.DoubleValue
1.142

@<SCITEGIC>MOL_PROPERTY
Pdih
SciTegic.value.DoubleValue
1.129

@<SCITEGIC>MOL_PROPERTY
Idih
SciTegic.value.DoubleValue
0.000

@<SCITEGIC>MOL_PROPERTY
Tether
SciTegic.value.DoubleValue
0.000

@<TRIPOS>MOLECULE
guest-s10_confgen4.mol2 : confsearch ligand conformer 843
          20          19           1
SMALL
USER_CHARGES
 
@<TRIPOS>ATOM
       1    N1      21.430730   17.402466   21.856417 N.4        1 MOL1        -0.5937
       2    H1      21.031476   16.752878   21.173452 H          1 MOL1         0.3684
       3    H2      21.556566   16.887878   22.731662 H          1 MOL1         0.3684
       4    H3      22.361842   17.661046   21.519100 H          1 MOL1         0.3684
       5    C1      20.558637   18.613018   22.048162 C.3        1 MOL1         0.1270
       6    H4      20.487572   19.097343   21.069296 H          1 MOL1         0.0960
       7    C2      21.224427   19.599817   23.022436 C.3        1 MOL1        -0.2382
       8    H5      22.262262   19.795863   22.726452 H          1 MOL1         0.1009
       9    H6      21.230535   19.205726   24.046208 H          1 MOL1         0.1009
      10    H7      20.703025   20.563740   23.022223 H          1 MOL1         0.1009
      11    C3      19.130813   18.205398   22.486912 C.3        1 MOL1        -0.1392
      12    H8      18.756699   17.477375   21.754988 H          1 MOL1         0.0998
      13    H9      19.166324   17.672429   23.446293 H          1 MOL1         0.0998
      14    C4      18.108990   19.370938   22.557885 C.3        1 MOL1        -0.1302
      15    H10     17.131692   19.001216   22.216839 H          1 MOL1         0.0998
      16    H11     18.390075   20.168910   21.856317 H          1 MOL1         0.0998
      17    C5      17.928978   19.945026   23.983035 C.3        1 MOL1        -0.2317
      18    H12     17.574876   19.170474   24.675709 H          1 MOL1         0.1009
      19    H13     17.185832   20.752932   23.980518 H          1 MOL1         0.1009
      20    H14     18.862485   20.354585   24.384742 H          1 MOL1         0.1009
@<TRIPOS>BOND
    1     1     2    1
    2     1     3    1
    3     1     4    1
    4     1     5    1
    5     5     6    1
    6     5     7    1
    7     7     8    1
    8     7     9    1
    9     7    10    1
   10     5    11    1
   11    11    12    1
   12    11    13    1
   13    11    14    1
   14    14    15    1
   15    14    16    1
   16    14    17    1
   17    17    18    1
   18    17    19    1
   19    17    20    1
@<TRIPOS>SUBSTRUCTURE
       1 MOL1            1 RESIDUE      1      MOL     
@<SCITEGIC>MOL_PROPERTY
VConf Rank
SciTegic.value.IntegerValue
843

@<SCITEGIC>MOL_PROPERTY
Conf_Id
SciTegic.value.IntegerValue
52

@<SCITEGIC>MOL_PROPERTY
Delta U+W
SciTegic.value.DoubleValue
2.995

@<SCITEGIC>MOL_PROPERTY
U+W
SciTegic.value.DoubleValue
-33.282

@<SCITEGIC>MOL_PROPERTY
Grad RMS
SciTegic.value.DoubleValue
0.000000

@<SCITEGIC>MOL_PROPERTY
U
SciTegic.value.DoubleValue
25.224

@<SCITEGIC>MOL_PROPERTY
W
SciTegic.value.DoubleValue
-58.506

@<SCITEGIC>MOL_PROPERTY
W(PB)
SciTegic.value.DoubleValue
-60.411

@<SCITEGIC>MOL_PROPERTY
W(SA)
SciTegic.value.DoubleValue
1.905

@<SCITEGIC>MOL_PROPERTY
Valence
SciTegic.value.DoubleValue
4.945

@<SCITEGIC>MOL_PROPERTY
Coulomb
SciTegic.value.DoubleValue
19.467

@<SCITEGIC>MOL_PROPERTY
VdW
SciTegic.value.DoubleValue
0.813

@<SCITEGIC>MOL_PROPERTY
VdW6
SciTegic.value.DoubleValue
-5.458

@<SCITEGIC>MOL_PROPERTY
VdW12
SciTegic.value.DoubleValue
6.270

@<SCITEGIC>MOL_PROPERTY
Bond
SciTegic.value.DoubleValue
0.200

@<SCITEGIC>MOL_PROPERTY
Angle
SciTegic.value.DoubleValue
1.675

@<SCITEGIC>MOL_PROPERTY
Pdih
SciTegic.value.DoubleValue
3.070

@<SCITEGIC>MOL_PROPERTY
Idih
SciTegic.value.DoubleValue
0.000

@<SCITEGIC>MOL_PROPERTY
Tether
SciTegic.value.DoubleValue
0.000

@<TRIPOS>MOLECULE
guest-s10_confgen4.mol2 : confsearch ligand conformer 844
          20          19           1
SMALL
USER_CHARGES
 
@<TRIPOS>ATOM
       1    N1      21.000976   19.964222   22.328723 N.4        1 MOL1        -0.5937
       2    H1      21.331505   19.585684   21.437748 H          1 MOL1         0.3684
       3    H2      21.769040   20.504998   22.735278 H          1 MOL1         0.3684
       4    H3      20.240641   20.615241   22.121237 H          1 MOL1         0.3684
       5    C1      20.545271   18.869458   23.254506 C.3        1 MOL1         0.1270
       6    H4      20.254524   19.344392   24.196651 H          1 MOL1         0.0960
       7    C2      21.712028   17.908856   23.540308 C.3        1 MOL1        -0.2382
       8    H5      22.033596   17.391988   22.627455 H          1 MOL1         0.1009
       9    H6      21.422642   17.150654   24.278571 H          1 MOL1         0.1009
      10    H7      22.573380   18.453372   23.946398 H          1 MOL1         0.1009
      11    C3      19.326214   18.089566   22.706871 C.3        1 MOL1        -0.1392
      12    H8      19.496509   17.817837   21.656759 H          1 MOL1         0.0998
      13    H9      19.244362   17.140030   23.252550 H          1 MOL1         0.0998
      14    C4      17.966140   18.820757   22.855752 C.3        1 MOL1        -0.1302
      15    H10     17.781509   19.047072   23.915341 H          1 MOL1         0.0998
      16    H11     17.169690   18.127030   22.551719 H          1 MOL1         0.0998
      17    C5      17.829383   20.114242   22.020648 C.3        1 MOL1        -0.2317
      18    H12     16.786256   20.456546   22.020608 H          1 MOL1         0.1009
      19    H13     18.124335   19.948659   20.976185 H          1 MOL1         0.1009
      20    H14     18.432390   20.929667   22.436468 H          1 MOL1         0.1009
@<TRIPOS>BOND
    1     1     2    1
    2     1     3    1
    3     1     4    1
    4     1     5    1
    5     5     6    1
    6     5     7    1
    7     7     8    1
    8     7     9    1
    9     7    10    1
   10     5    11    1
   11    11    12    1
   12    11    13    1
   13    11    14    1
   14    14    15    1
   15    14    16    1
   16    14    17    1
   17    17    18    1
   18    17    19    1
   19    17    20    1
@<TRIPOS>SUBSTRUCTURE
       1 MOL1            1 RESIDUE      1      MOL     
@<SCITEGIC>MOL_PROPERTY
VConf Rank
SciTegic.value.IntegerValue
844

@<SCITEGIC>MOL_PROPERTY
Conf_Id
SciTegic.value.IntegerValue
54

@<SCITEGIC>MOL_PROPERTY
Delta U+W
SciTegic.value.DoubleValue
2.752

@<SCITEGIC>MOL_PROPERTY
U+W
SciTegic.value.DoubleValue
-33.525

@<SCITEGIC>MOL_PROPERTY
Grad RMS
SciTegic.value.DoubleValue
0.000000

@<SCITEGIC>MOL_PROPERTY
U
SciTegic.value.DoubleValue
24.337

@<SCITEGIC>MOL_PROPERTY
W
SciTegic.value.DoubleValue
-57.862

@<SCITEGIC>MOL_PROPERTY
W(PB)
SciTegic.value.DoubleValue
-59.764

@<SCITEGIC>MOL_PROPERTY
W(SA)
SciTegic.value.DoubleValue
1.901

@<SCITEGIC>MOL_PROPERTY
Valence
SciTegic.value.DoubleValue
3.593

@<SCITEGIC>MOL_PROPERTY
Coulomb
SciTegic.value.DoubleValue
20.067

@<SCITEGIC>MOL_PROPERTY
VdW
SciTegic.value.DoubleValue
0.677

@<SCITEGIC>MOL_PROPERTY
VdW6
SciTegic.value.DoubleValue
-5.466

@<SCITEGIC>MOL_PROPERTY
VdW12
SciTegic.value.DoubleValue
6.144

@<SCITEGIC>MOL_PROPERTY
Bond
SciTegic.value.DoubleValue
0.191

@<SCITEGIC>MOL_PROPERTY
Angle
SciTegic.value.DoubleValue
1.557

@<SCITEGIC>MOL_PROPERTY
Pdih
SciTegic.value.DoubleValue
1.845

@<SCITEGIC>MOL_PROPERTY
Idih
SciTegic.value.DoubleValue
0.000

@<SCITEGIC>MOL_PROPERTY
Tether
SciTegic.value.DoubleValue
0.000

@<TRIPOS>MOLECULE
guest-s10_confgen4.mol2 : confsearch ligand conformer 845
          20          19           1
SMALL
USER_CHARGES
 
@<TRIPOS>ATOM
       1    N1      19.882988   17.861112   24.444793 N.4        1 MOL1        -0.5937
       2    H1      19.337154   17.423719   25.192060 H          1 MOL1         0.3684
       3    H2      20.781097   18.140646   24.848491 H          1 MOL1         0.3684
       4    H3      20.071920   17.141494   23.743436 H          1 MOL1         0.3684
       5    C1      19.156078   19.034842   23.846591 C.3        1 MOL1         0.1270
       6    H4      18.985297   19.736310   24.669269 H          1 MOL1         0.0960
       7    C2      17.779095   18.613865   23.302957 C.3        1 MOL1        -0.2382
       8    H5      17.253168   19.471831   22.866187 H          1 MOL1         0.1009
       9    H6      17.152704   18.217094   24.111223 H          1 MOL1         0.1009
      10    H7      17.865979   17.836325   22.534892 H          1 MOL1         0.1009
      11    C3      20.000529   19.775097   22.781707 C.3        1 MOL1        -0.1392
      12    H8      19.451244   20.667512   22.453657 H          1 MOL1         0.0998
      13    H9      20.916559   20.144822   23.260872 H          1 MOL1         0.0998
      14    C4      20.382479   18.925074   21.542385 C.3        1 MOL1        -0.1302
      15    H10     19.477717   18.588437   21.018844 H          1 MOL1         0.0998
      16    H11     20.925115   18.022539   21.854056 H          1 MOL1         0.0998
      17    C5      21.261016   19.724500   20.556271 C.3        1 MOL1        -0.2317
      18    H12     21.521357   19.111114   19.683891 H          1 MOL1         0.1009
      19    H13     22.196529   20.046765   21.031858 H          1 MOL1         0.1009
      20    H14     20.736049   20.618203   20.194432 H          1 MOL1         0.1009
@<TRIPOS>BOND
    1     1     2    1
    2     1     3    1
    3     1     4    1
    4     1     5    1
    5     5     6    1
    6     5     7    1
    7     7     8    1
    8     7     9    1
    9     7    10    1
   10     5    11    1
   11    11    12    1
   12    11    13    1
   13    11    14    1
   14    14    15    1
   15    14    16    1
   16    14    17    1
   17    17    18    1
   18    17    19    1
   19    17    20    1
@<TRIPOS>SUBSTRUCTURE
       1 MOL1            1 RESIDUE      1      MOL     
@<SCITEGIC>MOL_PROPERTY
VConf Rank
SciTegic.value.IntegerValue
845

@<SCITEGIC>MOL_PROPERTY
Conf_Id
SciTegic.value.IntegerValue
63

@<SCITEGIC>MOL_PROPERTY
Delta U+W
SciTegic.value.DoubleValue
0.420

@<SCITEGIC>MOL_PROPERTY
U+W
SciTegic.value.DoubleValue
-35.856

@<SCITEGIC>MOL_PROPERTY
Grad RMS
SciTegic.value.DoubleValue
0.000000

@<SCITEGIC>MOL_PROPERTY
U
SciTegic.value.DoubleValue
22.625

@<SCITEGIC>MOL_PROPERTY
W
SciTegic.value.DoubleValue
-58.481

@<SCITEGIC>MOL_PROPERTY
W(PB)
SciTegic.value.DoubleValue
-60.400

@<SCITEGIC>MOL_PROPERTY
W(SA)
SciTegic.value.DoubleValue
1.919

@<SCITEGIC>MOL_PROPERTY
Valence
SciTegic.value.DoubleValue
2.404

@<SCITEGIC>MOL_PROPERTY
Coulomb
SciTegic.value.DoubleValue
19.464

@<SCITEGIC>MOL_PROPERTY
VdW
SciTegic.value.DoubleValue
0.757

@<SCITEGIC>MOL_PROPERTY
VdW6
SciTegic.value.DoubleValue
-5.074

@<SCITEGIC>MOL_PROPERTY
VdW12
SciTegic.value.DoubleValue
5.830

@<SCITEGIC>MOL_PROPERTY
Bond
SciTegic.value.DoubleValue
0.172

@<SCITEGIC>MOL_PROPERTY
Angle
SciTegic.value.DoubleValue
1.207

@<SCITEGIC>MOL_PROPERTY
Pdih
SciTegic.value.DoubleValue
1.025

@<SCITEGIC>MOL_PROPERTY
Idih
SciTegic.value.DoubleValue
0.000

@<SCITEGIC>MOL_PROPERTY
Tether
SciTegic.value.DoubleValue
0.000

@<TRIPOS>MOLECULE
guest-s10_confgen4.mol2 : confsearch ligand conformer 846
          20          19           1
SMALL
USER_CHARGES
 
@<TRIPOS>ATOM
       1    N1      18.956352   20.535504   23.193550 N.4        1 MOL1        -0.5937
       2    H1      19.919300   20.832015   23.371561 H          1 MOL1         0.3684
       3    H2      18.482599   20.468293   24.097686 H          1 MOL1         0.3684
       4    H3      18.499485   21.282428   22.663532 H          1 MOL1         0.3684
       5    C1      18.915432   19.227275   22.451230 C.3        1 MOL1         0.1270
       6    H4      19.437064   19.387137   21.502824 H          1 MOL1         0.0960
       7    C2      17.464895   18.826078   22.137392 C.3        1 MOL1        -0.2382
       8    H5      16.960988   19.611112   21.560299 H          1 MOL1         0.1009
       9    H6      16.891300   18.656628   23.057190 H          1 MOL1         0.1009
      10    H7      17.435407   17.905106   21.541939 H          1 MOL1         0.1009
      11    C3      19.634643   18.091850   23.214465 C.3        1 MOL1        -0.1392
      12    H8      19.115135   17.904952   24.163683 H          1 MOL1         0.0998
      13    H9      19.553992   17.163718   22.633094 H          1 MOL1         0.0998
      14    C4      21.132019   18.369208   23.502282 C.3        1 MOL1        -0.1302
      15    H10     21.550669   17.512165   24.048279 H          1 MOL1         0.0998
      16    H11     21.236565   19.233520   24.172058 H          1 MOL1         0.0998
      17    C5      21.962996   18.599874   22.219458 C.3        1 MOL1        -0.2317
      18    H12     21.874108   17.747543   21.533303 H          1 MOL1         0.1009
      19    H13     23.025758   18.720894   22.466356 H          1 MOL1         0.1009
      20    H14     21.642648   19.503833   21.686418 H          1 MOL1         0.1009
@<TRIPOS>BOND
    1     1     2    1
    2     1     3    1
    3     1     4    1
    4     1     5    1
    5     5     6    1
    6     5     7    1
    7     7     8    1
    8     7     9    1
    9     7    10    1
   10     5    11    1
   11    11    12    1
   12    11    13    1
   13    11    14    1
   14    14    15    1
   15    14    16    1
   16    14    17    1
   17    17    18    1
   18    17    19    1
   19    17    20    1
@<TRIPOS>SUBSTRUCTURE
       1 MOL1            1 RESIDUE      1      MOL     
@<SCITEGIC>MOL_PROPERTY
VConf Rank
SciTegic.value.IntegerValue
846

@<SCITEGIC>MOL_PROPERTY
Conf_Id
SciTegic.value.IntegerValue
50

@<SCITEGIC>MOL_PROPERTY
Delta U+W
SciTegic.value.DoubleValue
0.466

@<SCITEGIC>MOL_PROPERTY
U+W
SciTegic.value.DoubleValue
-35.811

@<SCITEGIC>MOL_PROPERTY
Grad RMS
SciTegic.value.DoubleValue
0.000000

@<SCITEGIC>MOL_PROPERTY
U
SciTegic.value.DoubleValue
22.369

@<SCITEGIC>MOL_PROPERTY
W
SciTegic.value.DoubleValue
-58.180

@<SCITEGIC>MOL_PROPERTY
W(PB)
SciTegic.value.DoubleValue
-60.103

@<SCITEGIC>MOL_PROPERTY
W(SA)
SciTegic.value.DoubleValue
1.923

@<SCITEGIC>MOL_PROPERTY
Valence
SciTegic.value.DoubleValue
2.168

@<SCITEGIC>MOL_PROPERTY
Coulomb
SciTegic.value.DoubleValue
19.636

@<SCITEGIC>MOL_PROPERTY
VdW
SciTegic.value.DoubleValue
0.566

@<SCITEGIC>MOL_PROPERTY
VdW6
SciTegic.value.DoubleValue
-5.263

@<SCITEGIC>MOL_PROPERTY
VdW12
SciTegic.value.DoubleValue
5.829

@<SCITEGIC>MOL_PROPERTY
Bond
SciTegic.value.DoubleValue
0.162

@<SCITEGIC>MOL_PROPERTY
Angle
SciTegic.value.DoubleValue
1.066

@<SCITEGIC>MOL_PROPERTY
Pdih
SciTegic.value.DoubleValue
0.939

@<SCITEGIC>MOL_PROPERTY
Idih
SciTegic.value.DoubleValue
0.000

@<SCITEGIC>MOL_PROPERTY
Tether
SciTegic.value.DoubleValue
0.000

@<TRIPOS>MOLECULE
guest-s10_confgen4.mol2 : confsearch ligand conformer 847
          20          19           1
SMALL
USER_CHARGES
 
@<TRIPOS>ATOM
       1    N1      18.904281   16.871712   21.973684 N.4        1 MOL1        -0.5937
       2    H1      19.370871   16.744839   21.071357 H          1 MOL1         0.3684
       3    H2      17.906024   16.998081   21.788250 H          1 MOL1         0.3684
       4    H3      19.008665   15.996183   22.493576 H          1 MOL1         0.3684
       5    C1      19.476802   18.036259   22.735676 C.3        1 MOL1         0.1270
       6    H4      20.538159   17.812679   22.881604 H          1 MOL1         0.0960
       7    C2      18.801186   18.146444   24.115302 C.3        1 MOL1        -0.2382
       8    H5      17.723225   18.323897   24.014428 H          1 MOL1         0.1009
       9    H6      19.222996   18.966657   24.706163 H          1 MOL1         0.1009
      10    H7      18.939883   17.221446   24.688250 H          1 MOL1         0.1009
      11    C3      19.368373   19.358925   21.937535 C.3        1 MOL1        -0.1392
      12    H8      19.181653   19.126692   20.880712 H          1 MOL1         0.0998
      13    H9      18.496902   19.937953   22.271118 H          1 MOL1         0.0998
      14    C4      20.645300   20.235017   21.998390 C.3        1 MOL1        -0.1302
      15    H10     20.504007   21.106900   21.344334 H          1 MOL1         0.0998
      16    H11     21.494734   19.675678   21.581638 H          1 MOL1         0.0998
      17    C5      21.004733   20.730966   23.416515 C.3        1 MOL1        -0.2317
      18    H12     20.159734   21.258178   23.878090 H          1 MOL1         0.1009
      19    H13     21.851758   21.428042   23.375571 H          1 MOL1         0.1009
      20    H14     21.296394   19.899497   24.070138 H          1 MOL1         0.1009
@<TRIPOS>BOND
    1     1     2    1
    2     1     3    1
    3     1     4    1
    4     1     5    1
    5     5     6    1
    6     5     7    1
    7     7     8    1
    8     7     9    1
    9     7    10    1
   10     5    11    1
   11    11    12    1
   12    11    13    1
   13    11    14    1
   14    14    15    1
   15    14    16    1
   16    14    17    1
   17    17    18    1
   18    17    19    1
   19    17    20    1
@<TRIPOS>SUBSTRUCTURE
       1 MOL1            1 RESIDUE      1      MOL     
@<SCITEGIC>MOL_PROPERTY
VConf Rank
SciTegic.value.IntegerValue
847

@<SCITEGIC>MOL_PROPERTY
Conf_Id
SciTegic.value.IntegerValue
3

@<SCITEGIC>MOL_PROPERTY
Delta U+W
SciTegic.value.DoubleValue
3.093

@<SCITEGIC>MOL_PROPERTY
U+W
SciTegic.value.DoubleValue
-33.184

@<SCITEGIC>MOL_PROPERTY
Grad RMS
SciTegic.value.DoubleValue
0.000000

@<SCITEGIC>MOL_PROPERTY
U
SciTegic.value.DoubleValue
25.256

@<SCITEGIC>MOL_PROPERTY
W
SciTegic.value.DoubleValue
-58.439

@<SCITEGIC>MOL_PROPERTY
W(PB)
SciTegic.value.DoubleValue
-60.337

@<SCITEGIC>MOL_PROPERTY
W(SA)
SciTegic.value.DoubleValue
1.898

@<SCITEGIC>MOL_PROPERTY
Valence
SciTegic.value.DoubleValue
4.963

@<SCITEGIC>MOL_PROPERTY
Coulomb
SciTegic.value.DoubleValue
19.511

@<SCITEGIC>MOL_PROPERTY
VdW
SciTegic.value.DoubleValue
0.782

@<SCITEGIC>MOL_PROPERTY
VdW6
SciTegic.value.DoubleValue
-5.429

@<SCITEGIC>MOL_PROPERTY
VdW12
SciTegic.value.DoubleValue
6.211

@<SCITEGIC>MOL_PROPERTY
Bond
SciTegic.value.DoubleValue
0.174

@<SCITEGIC>MOL_PROPERTY
Angle
SciTegic.value.DoubleValue
1.377

@<SCITEGIC>MOL_PROPERTY
Pdih
SciTegic.value.DoubleValue
3.412

@<SCITEGIC>MOL_PROPERTY
Idih
SciTegic.value.DoubleValue
0.000

@<SCITEGIC>MOL_PROPERTY
Tether
SciTegic.value.DoubleValue
0.000

@<TRIPOS>MOLECULE
guest-s10_confgen4.mol2 : confsearch ligand conformer 848
          20          19           1
SMALL
USER_CHARGES
 
@<TRIPOS>ATOM
       1    N1      21.141389   20.660881   22.465078 N.4        1 MOL1        -0.5937
       2    H1      22.108172   20.524546   22.157866 H          1 MOL1         0.3684
       3    H2      21.176803   21.103964   23.387170 H          1 MOL1         0.3684
       4    H3      20.709102   21.328011   21.821067 H          1 MOL1         0.3684
       5    C1      20.386595   19.360392   22.502415 C.3        1 MOL1         0.1270
       6    H4      20.920422   18.716276   23.207568 H          1 MOL1         0.0960
       7    C2      20.408802   18.688413   21.117477 C.3        1 MOL1        -0.2382
       8    H5      19.985759   17.678038   21.158863 H          1 MOL1         0.1009
       9    H6      21.437901   18.594335   20.749730 H          1 MOL1         0.1009
      10    H7      19.837276   19.270846   20.384253 H          1 MOL1         0.1009
      11    C3      18.944914   19.564493   23.026178 C.3        1 MOL1        -0.1392
      12    H8      18.990360   20.117219   23.973782 H          1 MOL1         0.0998
      13    H9      18.391412   20.204827   22.326646 H          1 MOL1         0.0998
      14    C4      18.142220   18.259292   23.261200 C.3        1 MOL1        -0.1302
      15    H10     17.961923   17.745166   22.307554 H          1 MOL1         0.0998
      16    H11     17.149434   18.522451   23.652304 H          1 MOL1         0.0998
      17    C5      18.831295   17.294479   24.252896 C.3        1 MOL1        -0.2317
      18    H12     19.024538   17.787926   25.214314 H          1 MOL1         0.1009
      19    H13     19.786184   16.924873   23.858378 H          1 MOL1         0.1009
      20    H14     18.193806   16.422036   24.446461 H          1 MOL1         0.1009
@<TRIPOS>BOND
    1     1     2    1
    2     1     3    1
    3     1     4    1
    4     1     5    1
    5     5     6    1
    6     5     7    1
    7     7     8    1
    8     7     9    1
    9     7    10    1
   10     5    11    1
   11    11    12    1
   12    11    13    1
   13    11    14    1
   14    14    15    1
   15    14    16    1
   16    14    17    1
   17    17    18    1
   18    17    19    1
   19    17    20    1
@<TRIPOS>SUBSTRUCTURE
       1 MOL1            1 RESIDUE      1      MOL     
@<SCITEGIC>MOL_PROPERTY
VConf Rank
SciTegic.value.IntegerValue
848

@<SCITEGIC>MOL_PROPERTY
Conf_Id
SciTegic.value.IntegerValue
64

@<SCITEGIC>MOL_PROPERTY
Delta U+W
SciTegic.value.DoubleValue
0.544

@<SCITEGIC>MOL_PROPERTY
U+W
SciTegic.value.DoubleValue
-35.732

@<SCITEGIC>MOL_PROPERTY
Grad RMS
SciTegic.value.DoubleValue
0.000000

@<SCITEGIC>MOL_PROPERTY
U
SciTegic.value.DoubleValue
22.800

@<SCITEGIC>MOL_PROPERTY
W
SciTegic.value.DoubleValue
-58.532

@<SCITEGIC>MOL_PROPERTY
W(PB)
SciTegic.value.DoubleValue
-60.437

@<SCITEGIC>MOL_PROPERTY
W(SA)
SciTegic.value.DoubleValue
1.905

@<SCITEGIC>MOL_PROPERTY
Valence
SciTegic.value.DoubleValue
2.662

@<SCITEGIC>MOL_PROPERTY
Coulomb
SciTegic.value.DoubleValue
19.485

@<SCITEGIC>MOL_PROPERTY
VdW
SciTegic.value.DoubleValue
0.653

@<SCITEGIC>MOL_PROPERTY
VdW6
SciTegic.value.DoubleValue
-5.460

@<SCITEGIC>MOL_PROPERTY
VdW12
SciTegic.value.DoubleValue
6.113

@<SCITEGIC>MOL_PROPERTY
Bond
SciTegic.value.DoubleValue
0.174

@<SCITEGIC>MOL_PROPERTY
Angle
SciTegic.value.DoubleValue
1.378

@<SCITEGIC>MOL_PROPERTY
Pdih
SciTegic.value.DoubleValue
1.109

@<SCITEGIC>MOL_PROPERTY
Idih
SciTegic.value.DoubleValue
0.000

@<SCITEGIC>MOL_PROPERTY
Tether
SciTegic.value.DoubleValue
0.000

@<TRIPOS>MOLECULE
guest-s10_confgen4.mol2 : confsearch ligand conformer 849
          20          19           1
SMALL
USER_CHARGES
 
@<TRIPOS>ATOM
       1    N1      19.143221   17.280185   23.865225 N.4        1 MOL1        -0.5937
       2    H1      20.010622   17.546521   24.336344 H          1 MOL1         0.3684
       3    H2      19.164840   16.265070   23.736051 H          1 MOL1         0.3684
       4    H3      18.370522   17.488489   24.503353 H          1 MOL1         0.3684
       5    C1      18.986180   17.998799   22.552303 C.3        1 MOL1         0.1270
       6    H4      18.043868   17.640599   22.126036 H          1 MOL1         0.0960
       7    C2      20.108795   17.609482   21.576653 C.3        1 MOL1        -0.2382
       8    H5      21.098489   17.817203   21.999816 H          1 MOL1         0.1009
       9    H6      20.011316   18.155731   20.630372 H          1 MOL1         0.1009
      10    H7      20.062680   16.537745   21.348129 H          1 MOL1         0.1009
      11    C3      18.846518   19.531462   22.732247 C.3        1 MOL1        -0.1392
      12    H8      18.561423   19.986141   21.774393 H          1 MOL1         0.0998
      13    H9      17.992455   19.706734   23.399584 H          1 MOL1         0.0998
      14    C4      20.081933   20.269646   23.318812 C.3        1 MOL1        -0.1302
      15    H10     20.640692   19.616652   24.002016 H          1 MOL1         0.0998
      16    H11     19.724521   21.108470   23.932500 H          1 MOL1         0.0998
      17    C5      21.028434   20.844916   22.239023 C.3        1 MOL1        -0.2317
      18    H12     21.463786   20.060693   21.610183 H          1 MOL1         0.1009
      19    H13     21.857560   21.390701   22.707675 H          1 MOL1         0.1009
      20    H14     20.496759   21.547706   21.584462 H          1 MOL1         0.1009
@<TRIPOS>BOND
    1     1     2    1
    2     1     3    1
    3     1     4    1
    4     1     5    1
    5     5     6    1
    6     5     7    1
    7     7     8    1
    8     7     9    1
    9     7    10    1
   10     5    11    1
   11    11    12    1
   12    11    13    1
   13    11    14    1
   14    14    15    1
   15    14    16    1
   16    14    17    1
   17    17    18    1
   18    17    19    1
   19    17    20    1
@<TRIPOS>SUBSTRUCTURE
       1 MOL1            1 RESIDUE      1      MOL     
@<SCITEGIC>MOL_PROPERTY
VConf Rank
SciTegic.value.IntegerValue
849

@<SCITEGIC>MOL_PROPERTY
Conf_Id
SciTegic.value.IntegerValue
35

@<SCITEGIC>MOL_PROPERTY
Delta U+W
SciTegic.value.DoubleValue
3.004

@<SCITEGIC>MOL_PROPERTY
U+W
SciTegic.value.DoubleValue
-33.272

@<SCITEGIC>MOL_PROPERTY
Grad RMS
SciTegic.value.DoubleValue
0.000000

@<SCITEGIC>MOL_PROPERTY
U
SciTegic.value.DoubleValue
25.367

@<SCITEGIC>MOL_PROPERTY
W
SciTegic.value.DoubleValue
-58.639

@<SCITEGIC>MOL_PROPERTY
W(PB)
SciTegic.value.DoubleValue
-60.512

@<SCITEGIC>MOL_PROPERTY
W(SA)
SciTegic.value.DoubleValue
1.873

@<SCITEGIC>MOL_PROPERTY
Valence
SciTegic.value.DoubleValue
4.943

@<SCITEGIC>MOL_PROPERTY
Coulomb
SciTegic.value.DoubleValue
19.661

@<SCITEGIC>MOL_PROPERTY
VdW
SciTegic.value.DoubleValue
0.764

@<SCITEGIC>MOL_PROPERTY
VdW6
SciTegic.value.DoubleValue
-5.871

@<SCITEGIC>MOL_PROPERTY
VdW12
SciTegic.value.DoubleValue
6.636

@<SCITEGIC>MOL_PROPERTY
Bond
SciTegic.value.DoubleValue
0.230

@<SCITEGIC>MOL_PROPERTY
Angle
SciTegic.value.DoubleValue
1.857

@<SCITEGIC>MOL_PROPERTY
Pdih
SciTegic.value.DoubleValue
2.855

@<SCITEGIC>MOL_PROPERTY
Idih
SciTegic.value.DoubleValue
0.000

@<SCITEGIC>MOL_PROPERTY
Tether
SciTegic.value.DoubleValue
0.000

@<TRIPOS>MOLECULE
guest-s10_confgen4.mol2 : confsearch ligand conformer 850
          20          19           1
SMALL
USER_CHARGES
 
@<TRIPOS>ATOM
       1    N1      21.473228   18.534956   22.246410 N.4        1 MOL1        -0.5937
       2    H1      21.992181   17.708172   21.938650 H          1 MOL1         0.3684
       3    H2      22.158425   19.217178   22.582058 H          1 MOL1         0.3684
       4    H3      21.017087   18.937918   21.425707 H          1 MOL1         0.3684
       5    C1      20.469981   18.191484   23.313175 C.3        1 MOL1         0.1270
       6    H4      21.058475   17.796662   24.147272 H          1 MOL1         0.0960
       7    C2      19.520848   17.071383   22.851623 C.3        1 MOL1        -0.2382
       8    H5      18.959717   17.360005   21.954894 H          1 MOL1         0.1009
       9    H6      18.802316   16.820405   23.641650 H          1 MOL1         0.1009
      10    H7      20.086239   16.161778   22.615150 H          1 MOL1         0.1009
      11    C3      19.706382   19.429320   23.849821 C.3        1 MOL1        -0.1392
      12    H8      19.248095   19.147756   24.807023 H          1 MOL1         0.0998
      13    H9      20.432040   20.215706   24.095250 H          1 MOL1         0.0998
      14    C4      18.590522   20.025571   22.946528 C.3        1 MOL1        -0.1302
      15    H10     18.124111   20.859496   23.489534 H          1 MOL1         0.0998
      16    H11     17.789766   19.289249   22.794049 H          1 MOL1         0.0998
      17    C5      19.080261   20.551751   21.578239 C.3        1 MOL1        -0.2317
      18    H12     19.938828   21.225857   21.694791 H          1 MOL1         0.1009
      19    H13     18.280685   21.115095   21.079751 H          1 MOL1         0.1009
      20    H14     19.361422   19.731801   20.907495 H          1 MOL1         0.1009
@<TRIPOS>BOND
    1     1     2    1
    2     1     3    1
    3     1     4    1
    4     1     5    1
    5     5     6    1
    6     5     7    1
    7     7     8    1
    8     7     9    1
    9     7    10    1
   10     5    11    1
   11    11    12    1
   12    11    13    1
   13    11    14    1
   14    14    15    1
   15    14    16    1
   16    14    17    1
   17    17    18    1
   18    17    19    1
   19    17    20    1
@<TRIPOS>SUBSTRUCTURE
       1 MOL1            1 RESIDUE      1      MOL     
@<SCITEGIC>MOL_PROPERTY
VConf Rank
SciTegic.value.IntegerValue
850

@<SCITEGIC>MOL_PROPERTY
Conf_Id
SciTegic.value.IntegerValue
55

@<SCITEGIC>MOL_PROPERTY
Delta U+W
SciTegic.value.DoubleValue
2.767

@<SCITEGIC>MOL_PROPERTY
U+W
SciTegic.value.DoubleValue
-33.509

@<SCITEGIC>MOL_PROPERTY
Grad RMS
SciTegic.value.DoubleValue
0.000000

@<SCITEGIC>MOL_PROPERTY
U
SciTegic.value.DoubleValue
24.552

@<SCITEGIC>MOL_PROPERTY
W
SciTegic.value.DoubleValue
-58.061

@<SCITEGIC>MOL_PROPERTY
W(PB)
SciTegic.value.DoubleValue
-59.930

@<SCITEGIC>MOL_PROPERTY
W(SA)
SciTegic.value.DoubleValue
1.869

@<SCITEGIC>MOL_PROPERTY
Valence
SciTegic.value.DoubleValue
3.726

@<SCITEGIC>MOL_PROPERTY
Coulomb
SciTegic.value.DoubleValue
20.219

@<SCITEGIC>MOL_PROPERTY
VdW
SciTegic.value.DoubleValue
0.606

@<SCITEGIC>MOL_PROPERTY
VdW6
SciTegic.value.DoubleValue
-6.395

@<SCITEGIC>MOL_PROPERTY
VdW12
SciTegic.value.DoubleValue
7.001

@<SCITEGIC>MOL_PROPERTY
Bond
SciTegic.value.DoubleValue
0.241

@<SCITEGIC>MOL_PROPERTY
Angle
SciTegic.value.DoubleValue
2.098

@<SCITEGIC>MOL_PROPERTY
Pdih
SciTegic.value.DoubleValue
1.387

@<SCITEGIC>MOL_PROPERTY
Idih
SciTegic.value.DoubleValue
0.000

@<SCITEGIC>MOL_PROPERTY
Tether
SciTegic.value.DoubleValue
0.000

@<TRIPOS>MOLECULE
guest-s10_confgen4.mol2 : confsearch ligand conformer 851
          20          19           1
SMALL
USER_CHARGES
 
@<TRIPOS>ATOM
       1    N1      21.555269   18.475763   23.336704 N.4        1 MOL1        -0.5937
       2    H1      21.360201   17.500718   23.577083 H          1 MOL1         0.3684
       3    H2      22.362130   18.771576   23.892695 H          1 MOL1         0.3684
       4    H3      21.838550   18.499568   22.353970 H          1 MOL1         0.3684
       5    C1      20.360421   19.355492   23.588649 C.3        1 MOL1         0.1270
       6    H4      20.651650   20.371284   23.303619 H          1 MOL1         0.0960
       7    C2      19.998753   19.360188   25.083019 C.3        1 MOL1        -0.2382
       8    H5      20.853766   19.684862   25.688662 H          1 MOL1         0.1009
       9    H6      19.699270   18.360794   25.422601 H          1 MOL1         0.1009
      10    H7      19.169854   20.050921   25.281646 H          1 MOL1         0.1009
      11    C3      19.134763   18.948970   22.740916 C.3        1 MOL1        -0.1392
      12    H8      18.836063   17.922309   22.991239 H          1 MOL1         0.0998
      13    H9      18.288381   19.595196   23.009424 H          1 MOL1         0.0998
      14    C4      19.386505   19.063965   21.218115 C.3        1 MOL1        -0.1302
      15    H10     20.193272   18.383460   20.914032 H          1 MOL1         0.0998
      16    H11     19.720049   20.082443   20.973793 H          1 MOL1         0.0998
      17    C5      18.117252   18.732944   20.404036 C.3        1 MOL1        -0.2317
      18    H12     17.775858   17.708827   20.603762 H          1 MOL1         0.1009
      19    H13     18.314003   18.818037   19.327405 H          1 MOL1         0.1009
      20    H14     17.297996   19.420610   20.651354 H          1 MOL1         0.1009
@<TRIPOS>BOND
    1     1     2    1
    2     1     3    1
    3     1     4    1
    4     1     5    1
    5     5     6    1
    6     5     7    1
    7     7     8    1
    8     7     9    1
    9     7    10    1
   10     5    11    1
   11    11    12    1
   12    11    13    1
   13    11    14    1
   14    14    15    1
   15    14    16    1
   16    14    17    1
   17    17    18    1
   18    17    19    1
   19    17    20    1
@<TRIPOS>SUBSTRUCTURE
       1 MOL1            1 RESIDUE      1      MOL     
@<SCITEGIC>MOL_PROPERTY
VConf Rank
SciTegic.value.IntegerValue
851

@<SCITEGIC>MOL_PROPERTY
Conf_Id
SciTegic.value.IntegerValue
74

@<SCITEGIC>MOL_PROPERTY
Delta U+W
SciTegic.value.DoubleValue
0.000

@<SCITEGIC>MOL_PROPERTY
U+W
SciTegic.value.DoubleValue
-36.276

@<SCITEGIC>MOL_PROPERTY
Grad RMS
SciTegic.value.DoubleValue
0.000000

@<SCITEGIC>MOL_PROPERTY
U
SciTegic.value.DoubleValue
22.080

@<SCITEGIC>MOL_PROPERTY
W
SciTegic.value.DoubleValue
-58.356

@<SCITEGIC>MOL_PROPERTY
W(PB)
SciTegic.value.DoubleValue
-60.289

@<SCITEGIC>MOL_PROPERTY
W(SA)
SciTegic.value.DoubleValue
1.932

@<SCITEGIC>MOL_PROPERTY
Valence
SciTegic.value.DoubleValue
1.885

@<SCITEGIC>MOL_PROPERTY
Coulomb
SciTegic.value.DoubleValue
19.559

@<SCITEGIC>MOL_PROPERTY
VdW
SciTegic.value.DoubleValue
0.637

@<SCITEGIC>MOL_PROPERTY
VdW6
SciTegic.value.DoubleValue
-4.482

@<SCITEGIC>MOL_PROPERTY
VdW12
SciTegic.value.DoubleValue
5.119

@<SCITEGIC>MOL_PROPERTY
Bond
SciTegic.value.DoubleValue
0.136

@<SCITEGIC>MOL_PROPERTY
Angle
SciTegic.value.DoubleValue
0.867

@<SCITEGIC>MOL_PROPERTY
Pdih
SciTegic.value.DoubleValue
0.882

@<SCITEGIC>MOL_PROPERTY
Idih
SciTegic.value.DoubleValue
0.000

@<SCITEGIC>MOL_PROPERTY
Tether
SciTegic.value.DoubleValue
0.000

@<TRIPOS>MOLECULE
guest-s10_confgen4.mol2 : confsearch ligand conformer 852
          20          19           1
SMALL
USER_CHARGES
 
@<TRIPOS>ATOM
       1    N1      19.488788   20.612244   21.035969 N.4        1 MOL1        -0.5937
       2    H1      19.457971   21.467896   21.597011 H          1 MOL1         0.3684
       3    H2      18.528877   20.393851   20.757399 H          1 MOL1         0.3684
       4    H3      20.011163   20.829077   20.182865 H          1 MOL1         0.3684
       5    C1      20.117314   19.474143   21.792373 C.3        1 MOL1         0.1270
       6    H4      21.133139   19.794894   22.043540 H          1 MOL1         0.0960
       7    C2      20.209437   18.224611   20.897395 C.3        1 MOL1        -0.2382
       8    H5      20.705332   18.464519   19.948842 H          1 MOL1         0.1009
       9    H6      19.213447   17.825527   20.668672 H          1 MOL1         0.1009
      10    H7      20.795600   17.432324   21.376892 H          1 MOL1         0.1009
      11    C3      19.359433   19.192497   23.110622 C.3        1 MOL1        -0.1392
      12    H8      19.234314   20.141320   23.648899 H          1 MOL1         0.0998
      13    H9      18.348483   18.827740   22.885272 H          1 MOL1         0.0998
      14    C4      20.079944   18.189331   24.044261 C.3        1 MOL1        -0.1302
      15    H10     21.112844   18.521879   24.219185 H          1 MOL1         0.0998
      16    H11     20.139453   17.201231   23.568848 H          1 MOL1         0.0998
      17    C5      19.352013   18.047540   25.398401 C.3        1 MOL1        -0.2317
      18    H12     19.309245   19.008542   25.927442 H          1 MOL1         0.1009
      19    H13     19.873609   17.330628   26.045750 H          1 MOL1         0.1009
      20    H14     18.324051   17.688446   25.258382 H          1 MOL1         0.1009
@<TRIPOS>BOND
    1     1     2    1
    2     1     3    1
    3     1     4    1
    4     1     5    1
    5     5     6    1
    6     5     7    1
    7     7     8    1
    8     7     9    1
    9     7    10    1
   10     5    11    1
   11    11    12    1
   12    11    13    1
   13    11    14    1
   14    14    15    1
   15    14    16    1
   16    14    17    1
   17    17    18    1
   18    17    19    1
   19    17    20    1
@<TRIPOS>SUBSTRUCTURE
       1 MOL1            1 RESIDUE      1      MOL     
@<SCITEGIC>MOL_PROPERTY
VConf Rank
SciTegic.value.IntegerValue
852

@<SCITEGIC>MOL_PROPERTY
Conf_Id
SciTegic.value.IntegerValue
80

@<SCITEGIC>MOL_PROPERTY
Delta U+W
SciTegic.value.DoubleValue
0.460

@<SCITEGIC>MOL_PROPERTY
U+W
SciTegic.value.DoubleValue
-35.817

@<SCITEGIC>MOL_PROPERTY
Grad RMS
SciTegic.value.DoubleValue
0.000000

@<SCITEGIC>MOL_PROPERTY
U
SciTegic.value.DoubleValue
22.495

@<SCITEGIC>MOL_PROPERTY
W
SciTegic.value.DoubleValue
-58.311

@<SCITEGIC>MOL_PROPERTY
W(PB)
SciTegic.value.DoubleValue
-60.259

@<SCITEGIC>MOL_PROPERTY
W(SA)
SciTegic.value.DoubleValue
1.948

@<SCITEGIC>MOL_PROPERTY
Valence
SciTegic.value.DoubleValue
2.419

@<SCITEGIC>MOL_PROPERTY
Coulomb
SciTegic.value.DoubleValue
19.304

@<SCITEGIC>MOL_PROPERTY
VdW
SciTegic.value.DoubleValue
0.772

@<SCITEGIC>MOL_PROPERTY
VdW6
SciTegic.value.DoubleValue
-4.635

@<SCITEGIC>MOL_PROPERTY
VdW12
SciTegic.value.DoubleValue
5.407

@<SCITEGIC>MOL_PROPERTY
Bond
SciTegic.value.DoubleValue
0.149

@<SCITEGIC>MOL_PROPERTY
Angle
SciTegic.value.DoubleValue
1.142

@<SCITEGIC>MOL_PROPERTY
Pdih
SciTegic.value.DoubleValue
1.129

@<SCITEGIC>MOL_PROPERTY
Idih
SciTegic.value.DoubleValue
0.000

@<SCITEGIC>MOL_PROPERTY
Tether
SciTegic.value.DoubleValue
0.000

@<TRIPOS>MOLECULE
guest-s10_confgen4.mol2 : confsearch ligand conformer 853
          20          19           1
SMALL
USER_CHARGES
 
@<TRIPOS>ATOM
       1    N1      20.101032   19.483676   20.428081 N.4        1 MOL1        -0.5937
       2    H1      19.481616   18.952615   19.809931 H          1 MOL1         0.3684
       3    H2      21.030880   19.061428   20.366620 H          1 MOL1         0.3684
       4    H3      20.170984   20.430300   20.045163 H          1 MOL1         0.3684
       5    C1      19.593908   19.498523   21.844186 C.3        1 MOL1         0.1270
       6    H4      18.606420   19.969221   21.810865 H          1 MOL1         0.0960
       7    C2      20.507120   20.365646   22.727587 C.3        1 MOL1        -0.2382
       8    H5      20.675281   21.346314   22.265898 H          1 MOL1         0.1009
       9    H6      21.483221   19.888764   22.880113 H          1 MOL1         0.1009
      10    H7      20.049604   20.546131   23.706930 H          1 MOL1         0.1009
      11    C3      19.421508   18.059047   22.387805 C.3        1 MOL1        -0.1392
      12    H8      18.789295   17.511828   21.676081 H          1 MOL1         0.0998
      13    H9      20.387350   17.536684   22.391589 H          1 MOL1         0.0998
      14    C4      18.753044   17.961505   23.784689 C.3        1 MOL1        -0.1302
      15    H10     18.103022   17.075317   23.800824 H          1 MOL1         0.0998
      16    H11     18.091346   18.822830   23.952742 H          1 MOL1         0.0998
      17    C5      19.768204   17.827450   24.944221 C.3        1 MOL1        -0.2317
      18    H12     20.383883   16.926575   24.823885 H          1 MOL1         0.1009
      19    H13     19.244536   17.745609   25.905500 H          1 MOL1         0.1009
      20    H14     20.441581   18.689596   25.005938 H          1 MOL1         0.1009
@<TRIPOS>BOND
    1     1     2    1
    2     1     3    1
    3     1     4    1
    4     1     5    1
    5     5     6    1
    6     5     7    1
    7     7     8    1
    8     7     9    1
    9     7    10    1
   10     5    11    1
   11    11    12    1
   12    11    13    1
   13    11    14    1
   14    14    15    1
   15    14    16    1
   16    14    17    1
   17    17    18    1
   18    17    19    1
   19    17    20    1
@<TRIPOS>SUBSTRUCTURE
       1 MOL1            1 RESIDUE      1      MOL     
@<SCITEGIC>MOL_PROPERTY
VConf Rank
SciTegic.value.IntegerValue
853

@<SCITEGIC>MOL_PROPERTY
Conf_Id
SciTegic.value.IntegerValue
52

@<SCITEGIC>MOL_PROPERTY
Delta U+W
SciTegic.value.DoubleValue
2.995

@<SCITEGIC>MOL_PROPERTY
U+W
SciTegic.value.DoubleValue
-33.282

@<SCITEGIC>MOL_PROPERTY
Grad RMS
SciTegic.value.DoubleValue
0.000000

@<SCITEGIC>MOL_PROPERTY
U
SciTegic.value.DoubleValue
25.224

@<SCITEGIC>MOL_PROPERTY
W
SciTegic.value.DoubleValue
-58.506

@<SCITEGIC>MOL_PROPERTY
W(PB)
SciTegic.value.DoubleValue
-60.411

@<SCITEGIC>MOL_PROPERTY
W(SA)
SciTegic.value.DoubleValue
1.905

@<SCITEGIC>MOL_PROPERTY
Valence
SciTegic.value.DoubleValue
4.945

@<SCITEGIC>MOL_PROPERTY
Coulomb
SciTegic.value.DoubleValue
19.467

@<SCITEGIC>MOL_PROPERTY
VdW
SciTegic.value.DoubleValue
0.813

@<SCITEGIC>MOL_PROPERTY
VdW6
SciTegic.value.DoubleValue
-5.458

@<SCITEGIC>MOL_PROPERTY
VdW12
SciTegic.value.DoubleValue
6.270

@<SCITEGIC>MOL_PROPERTY
Bond
SciTegic.value.DoubleValue
0.200

@<SCITEGIC>MOL_PROPERTY
Angle
SciTegic.value.DoubleValue
1.675

@<SCITEGIC>MOL_PROPERTY
Pdih
SciTegic.value.DoubleValue
3.070

@<SCITEGIC>MOL_PROPERTY
Idih
SciTegic.value.DoubleValue
0.000

@<SCITEGIC>MOL_PROPERTY
Tether
SciTegic.value.DoubleValue
0.000

@<TRIPOS>MOLECULE
guest-s10_confgen4.mol2 : confsearch ligand conformer 854
          20          19           1
SMALL
USER_CHARGES
 
@<TRIPOS>ATOM
       1    N1      18.574109   18.976446   23.859018 N.4        1 MOL1        -0.5937
       2    H1      18.844720   18.224588   24.497654 H          1 MOL1         0.3684
       3    H2      17.567688   19.125615   23.970875 H          1 MOL1         0.3684
       4    H3      19.048908   19.826944   24.169185 H          1 MOL1         0.3684
       5    C1      18.928296   18.641287   22.435828 C.3        1 MOL1         0.1270
       6    H4      18.566992   19.464309   21.811464 H          1 MOL1         0.0960
       7    C2      18.200349   17.356327   22.006025 C.3        1 MOL1        -0.2382
       8    H5      18.538679   16.493077   22.592702 H          1 MOL1         0.1009
       9    H6      18.380543   17.140722   20.945511 H          1 MOL1         0.1009
      10    H7      17.116788   17.459101   22.142662 H          1 MOL1         0.1009
      11    C3      20.453010   18.496996   22.215236 C.3        1 MOL1        -0.1392
      12    H8      20.886791   17.864295   23.000792 H          1 MOL1         0.0998
      13    H9      20.620885   17.960579   21.271753 H          1 MOL1         0.0998
      14    C4      21.226406   19.838545   22.121892 C.3        1 MOL1        -0.1302
      15    H10     20.816632   20.445891   21.302593 H          1 MOL1         0.0998
      16    H11     22.265661   19.615557   21.842154 H          1 MOL1         0.0998
      17    C5      21.241270   20.671529   23.423860 C.3        1 MOL1        -0.2317
      18    H12     21.965769   21.492136   23.340242 H          1 MOL1         0.1009
      19    H13     21.532176   20.058700   24.287070 H          1 MOL1         0.1009
      20    H14     20.264719   21.127628   23.623260 H          1 MOL1         0.1009
@<TRIPOS>BOND
    1     1     2    1
    2     1     3    1
    3     1     4    1
    4     1     5    1
    5     5     6    1
    6     5     7    1
    7     7     8    1
    8     7     9    1
    9     7    10    1
   10     5    11    1
   11    11    12    1
   12    11    13    1
   13    11    14    1
   14    14    15    1
   15    14    16    1
   16    14    17    1
   17    17    18    1
   18    17    19    1
   19    17    20    1
@<TRIPOS>SUBSTRUCTURE
       1 MOL1            1 RESIDUE      1      MOL     
@<SCITEGIC>MOL_PROPERTY
VConf Rank
SciTegic.value.IntegerValue
854

@<SCITEGIC>MOL_PROPERTY
Conf_Id
SciTegic.value.IntegerValue
54

@<SCITEGIC>MOL_PROPERTY
Delta U+W
SciTegic.value.DoubleValue
2.752

@<SCITEGIC>MOL_PROPERTY
U+W
SciTegic.value.DoubleValue
-33.525

@<SCITEGIC>MOL_PROPERTY
Grad RMS
SciTegic.value.DoubleValue
0.000000

@<SCITEGIC>MOL_PROPERTY
U
SciTegic.value.DoubleValue
24.337

@<SCITEGIC>MOL_PROPERTY
W
SciTegic.value.DoubleValue
-57.862

@<SCITEGIC>MOL_PROPERTY
W(PB)
SciTegic.value.DoubleValue
-59.764

@<SCITEGIC>MOL_PROPERTY
W(SA)
SciTegic.value.DoubleValue
1.901

@<SCITEGIC>MOL_PROPERTY
Valence
SciTegic.value.DoubleValue
3.593

@<SCITEGIC>MOL_PROPERTY
Coulomb
SciTegic.value.DoubleValue
20.067

@<SCITEGIC>MOL_PROPERTY
VdW
SciTegic.value.DoubleValue
0.677

@<SCITEGIC>MOL_PROPERTY
VdW6
SciTegic.value.DoubleValue
-5.466

@<SCITEGIC>MOL_PROPERTY
VdW12
SciTegic.value.DoubleValue
6.144

@<SCITEGIC>MOL_PROPERTY
Bond
SciTegic.value.DoubleValue
0.191

@<SCITEGIC>MOL_PROPERTY
Angle
SciTegic.value.DoubleValue
1.557

@<SCITEGIC>MOL_PROPERTY
Pdih
SciTegic.value.DoubleValue
1.845

@<SCITEGIC>MOL_PROPERTY
Idih
SciTegic.value.DoubleValue
0.000

@<SCITEGIC>MOL_PROPERTY
Tether
SciTegic.value.DoubleValue
0.000

@<TRIPOS>MOLECULE
guest-s10_confgen4.mol2 : confsearch ligand conformer 855
          20          19           1
SMALL
USER_CHARGES
 
@<TRIPOS>ATOM
       1    N1      18.911351   19.071332   20.815486 N.4        1 MOL1        -0.5937
       2    H1      18.189178   18.681287   20.203943 H          1 MOL1         0.3684
       3    H2      19.680358   19.383583   20.216455 H          1 MOL1         0.3684
       4    H3      18.515785   19.900176   21.264923 H          1 MOL1         0.3684
       5    C1      19.375752   18.063450   21.831552 C.3        1 MOL1         0.1270
       6    H4      19.762944   17.213997   21.260120 H          1 MOL1         0.0960
       7    C2      18.198764   17.552476   22.681522 C.3        1 MOL1        -0.2382
       8    H5      18.541677   16.819368   23.422086 H          1 MOL1         0.1009
       9    H6      17.453105   17.058717   22.046478 H          1 MOL1         0.1009
      10    H7      17.696809   18.369442   23.213172 H          1 MOL1         0.1009
      11    C3      20.537177   18.594674   22.705591 C.3        1 MOL1        -0.1392
      12    H8      20.886098   17.784311   23.359274 H          1 MOL1         0.0998
      13    H9      21.383016   18.836814   22.048832 H          1 MOL1         0.0998
      14    C4      20.192163   19.835716   23.568797 C.3        1 MOL1        -0.1302
      15    H10     19.381127   19.597544   24.269873 H          1 MOL1         0.0998
      16    H11     19.832048   20.653585   22.930386 H          1 MOL1         0.0998
      17    C5      21.416823   20.325908   24.370823 C.3        1 MOL1        -0.2317
      18    H12     21.156978   21.202695   24.978105 H          1 MOL1         0.1009
      19    H13     22.238931   20.612014   23.701866 H          1 MOL1         0.1009
      20    H14     21.783992   19.544214   25.048587 H          1 MOL1         0.1009
@<TRIPOS>BOND
    1     1     2    1
    2     1     3    1
    3     1     4    1
    4     1     5    1
    5     5     6    1
    6     5     7    1
    7     7     8    1
    8     7     9    1
    9     7    10    1
   10     5    11    1
   11    11    12    1
   12    11    13    1
   13    11    14    1
   14    14    15    1
   15    14    16    1
   16    14    17    1
   17    17    18    1
   18    17    19    1
   19    17    20    1
@<TRIPOS>SUBSTRUCTURE
       1 MOL1            1 RESIDUE      1      MOL     
@<SCITEGIC>MOL_PROPERTY
VConf Rank
SciTegic.value.IntegerValue
855

@<SCITEGIC>MOL_PROPERTY
Conf_Id
SciTegic.value.IntegerValue
63

@<SCITEGIC>MOL_PROPERTY
Delta U+W
SciTegic.value.DoubleValue
0.420

@<SCITEGIC>MOL_PROPERTY
U+W
SciTegic.value.DoubleValue
-35.856

@<SCITEGIC>MOL_PROPERTY
Grad RMS
SciTegic.value.DoubleValue
0.000000

@<SCITEGIC>MOL_PROPERTY
U
SciTegic.value.DoubleValue
22.625

@<SCITEGIC>MOL_PROPERTY
W
SciTegic.value.DoubleValue
-58.481

@<SCITEGIC>MOL_PROPERTY
W(PB)
SciTegic.value.DoubleValue
-60.400

@<SCITEGIC>MOL_PROPERTY
W(SA)
SciTegic.value.DoubleValue
1.919

@<SCITEGIC>MOL_PROPERTY
Valence
SciTegic.value.DoubleValue
2.404

@<SCITEGIC>MOL_PROPERTY
Coulomb
SciTegic.value.DoubleValue
19.464

@<SCITEGIC>MOL_PROPERTY
VdW
SciTegic.value.DoubleValue
0.757

@<SCITEGIC>MOL_PROPERTY
VdW6
SciTegic.value.DoubleValue
-5.074

@<SCITEGIC>MOL_PROPERTY
VdW12
SciTegic.value.DoubleValue
5.830

@<SCITEGIC>MOL_PROPERTY
Bond
SciTegic.value.DoubleValue
0.172

@<SCITEGIC>MOL_PROPERTY
Angle
SciTegic.value.DoubleValue
1.207

@<SCITEGIC>MOL_PROPERTY
Pdih
SciTegic.value.DoubleValue
1.025

@<SCITEGIC>MOL_PROPERTY
Idih
SciTegic.value.DoubleValue
0.000

@<SCITEGIC>MOL_PROPERTY
Tether
SciTegic.value.DoubleValue
0.000

@<TRIPOS>MOLECULE
guest-s10_confgen4.mol2 : confsearch ligand conformer 856
          20          19           1
SMALL
USER_CHARGES
 
@<TRIPOS>ATOM
       1    N1      19.379335   19.256613   24.484235 N.4        1 MOL1        -0.5937
       2    H1      18.758285   20.002180   24.159733 H          1 MOL1         0.3684
       3    H2      20.190086   19.700130   24.922866 H          1 MOL1         0.3684
       4    H3      18.881307   18.739759   25.213874 H          1 MOL1         0.3684
       5    C1      19.789829   18.355173   23.351505 C.3        1 MOL1         0.1270
       6    H4      18.870803   17.923201   22.944173 H          1 MOL1         0.0960
       7    C2      20.671993   17.205438   23.864741 C.3        1 MOL1        -0.2382
       8    H5      20.150649   16.632919   24.641696 H          1 MOL1         0.1009
       9    H6      21.609998   17.583375   24.290255 H          1 MOL1         0.1009
      10    H7      20.920689   16.512174   23.051625 H          1 MOL1         0.1009
      11    C3      20.509379   19.120718   22.217852 C.3        1 MOL1        -0.1392
      12    H8      21.444242   19.548641   22.603529 H          1 MOL1         0.0998
      13    H9      20.798942   18.408539   21.433708 H          1 MOL1         0.0998
      14    C4      19.662400   20.248877   21.576149 C.3        1 MOL1        -0.1302
      15    H10     20.258217   20.733158   20.789779 H          1 MOL1         0.0998
      16    H11     19.447921   21.031236   22.316743 H          1 MOL1         0.0998
      17    C5      18.340314   19.737881   20.959431 C.3        1 MOL1        -0.2317
      18    H12     18.529550   18.953789   20.214737 H          1 MOL1         0.1009
      19    H13     17.809436   20.556169   20.455804 H          1 MOL1         0.1009
      20    H14     17.667983   19.329163   21.724164 H          1 MOL1         0.1009
@<TRIPOS>BOND
    1     1     2    1
    2     1     3    1
    3     1     4    1
    4     1     5    1
    5     5     6    1
    6     5     7    1
    7     7     8    1
    8     7     9    1
    9     7    10    1
   10     5    11    1
   11    11    12    1
   12    11    13    1
   13    11    14    1
   14    14    15    1
   15    14    16    1
   16    14    17    1
   17    17    18    1
   18    17    19    1
   19    17    20    1
@<TRIPOS>SUBSTRUCTURE
       1 MOL1            1 RESIDUE      1      MOL     
@<SCITEGIC>MOL_PROPERTY
VConf Rank
SciTegic.value.IntegerValue
856

@<SCITEGIC>MOL_PROPERTY
Conf_Id
SciTegic.value.IntegerValue
50

@<SCITEGIC>MOL_PROPERTY
Delta U+W
SciTegic.value.DoubleValue
0.466

@<SCITEGIC>MOL_PROPERTY
U+W
SciTegic.value.DoubleValue
-35.811

@<SCITEGIC>MOL_PROPERTY
Grad RMS
SciTegic.value.DoubleValue
0.000000

@<SCITEGIC>MOL_PROPERTY
U
SciTegic.value.DoubleValue
22.369

@<SCITEGIC>MOL_PROPERTY
W
SciTegic.value.DoubleValue
-58.180

@<SCITEGIC>MOL_PROPERTY
W(PB)
SciTegic.value.DoubleValue
-60.103

@<SCITEGIC>MOL_PROPERTY
W(SA)
SciTegic.value.DoubleValue
1.923

@<SCITEGIC>MOL_PROPERTY
Valence
SciTegic.value.DoubleValue
2.168

@<SCITEGIC>MOL_PROPERTY
Coulomb
SciTegic.value.DoubleValue
19.636

@<SCITEGIC>MOL_PROPERTY
VdW
SciTegic.value.DoubleValue
0.566

@<SCITEGIC>MOL_PROPERTY
VdW6
SciTegic.value.DoubleValue
-5.263

@<SCITEGIC>MOL_PROPERTY
VdW12
SciTegic.value.DoubleValue
5.829

@<SCITEGIC>MOL_PROPERTY
Bond
SciTegic.value.DoubleValue
0.162

@<SCITEGIC>MOL_PROPERTY
Angle
SciTegic.value.DoubleValue
1.066

@<SCITEGIC>MOL_PROPERTY
Pdih
SciTegic.value.DoubleValue
0.939

@<SCITEGIC>MOL_PROPERTY
Idih
SciTegic.value.DoubleValue
0.000

@<SCITEGIC>MOL_PROPERTY
Tether
SciTegic.value.DoubleValue
0.000

@<TRIPOS>MOLECULE
guest-s10_confgen4.mol2 : confsearch ligand conformer 857
          20          19           1
SMALL
USER_CHARGES
 
@<TRIPOS>ATOM
       1    N1      21.387747   19.552772   21.335133 N.4        1 MOL1        -0.5937
       2    H1      21.769896   18.678105   20.965111 H          1 MOL1         0.3684
       3    H2      22.111635   19.982611   21.916595 H          1 MOL1         0.3684
       4    H3      21.229183   20.174526   20.537628 H          1 MOL1         0.3684
       5    C1      20.120353   19.319848   22.112333 C.3        1 MOL1         0.1270
       6    H4      19.414962   18.859078   21.413853 H          1 MOL1         0.0960
       7    C2      19.538454   20.664663   22.586498 C.3        1 MOL1        -0.2382
       8    H5      20.237010   21.184097   23.254236 H          1 MOL1         0.1009
       9    H6      18.595736   20.527580   23.127127 H          1 MOL1         0.1009
      10    H7      19.336185   21.321000   21.731257 H          1 MOL1         0.1009
      11    C3      20.337687   18.341627   23.293045 C.3        1 MOL1        -0.1392
      12    H8      21.276108   17.793187   23.137313 H          1 MOL1         0.0998
      13    H9      20.472075   18.896477   24.231178 H          1 MOL1         0.0998
      14    C4      19.210299   17.290275   23.452538 C.3        1 MOL1        -0.1302
      15    H10     19.488244   16.597537   24.259255 H          1 MOL1         0.0998
      16    H11     19.142485   16.682935   22.538963 H          1 MOL1         0.0998
      17    C5      17.824150   17.893081   23.771053 C.3        1 MOL1        -0.2317
      18    H12     17.867561   18.541049   24.656085 H          1 MOL1         0.1009
      19    H13     17.097372   17.096150   23.975349 H          1 MOL1         0.1009
      20    H14     17.438538   18.479445   22.927780 H          1 MOL1         0.1009
@<TRIPOS>BOND
    1     1     2    1
    2     1     3    1
    3     1     4    1
    4     1     5    1
    5     5     6    1
    6     5     7    1
    7     7     8    1
    8     7     9    1
    9     7    10    1
   10     5    11    1
   11    11    12    1
   12    11    13    1
   13    11    14    1
   14    14    15    1
   15    14    16    1
   16    14    17    1
   17    17    18    1
   18    17    19    1
   19    17    20    1
@<TRIPOS>SUBSTRUCTURE
       1 MOL1            1 RESIDUE      1      MOL     
@<SCITEGIC>MOL_PROPERTY
VConf Rank
SciTegic.value.IntegerValue
857

@<SCITEGIC>MOL_PROPERTY
Conf_Id
SciTegic.value.IntegerValue
3

@<SCITEGIC>MOL_PROPERTY
Delta U+W
SciTegic.value.DoubleValue
3.093

@<SCITEGIC>MOL_PROPERTY
U+W
SciTegic.value.DoubleValue
-33.184

@<SCITEGIC>MOL_PROPERTY
Grad RMS
SciTegic.value.DoubleValue
0.000000

@<SCITEGIC>MOL_PROPERTY
U
SciTegic.value.DoubleValue
25.256

@<SCITEGIC>MOL_PROPERTY
W
SciTegic.value.DoubleValue
-58.439

@<SCITEGIC>MOL_PROPERTY
W(PB)
SciTegic.value.DoubleValue
-60.337

@<SCITEGIC>MOL_PROPERTY
W(SA)
SciTegic.value.DoubleValue
1.898

@<SCITEGIC>MOL_PROPERTY
Valence
SciTegic.value.DoubleValue
4.963

@<SCITEGIC>MOL_PROPERTY
Coulomb
SciTegic.value.DoubleValue
19.511

@<SCITEGIC>MOL_PROPERTY
VdW
SciTegic.value.DoubleValue
0.782

@<SCITEGIC>MOL_PROPERTY
VdW6
SciTegic.value.DoubleValue
-5.429

@<SCITEGIC>MOL_PROPERTY
VdW12
SciTegic.value.DoubleValue
6.211

@<SCITEGIC>MOL_PROPERTY
Bond
SciTegic.value.DoubleValue
0.174

@<SCITEGIC>MOL_PROPERTY
Angle
SciTegic.value.DoubleValue
1.377

@<SCITEGIC>MOL_PROPERTY
Pdih
SciTegic.value.DoubleValue
3.412

@<SCITEGIC>MOL_PROPERTY
Idih
SciTegic.value.DoubleValue
0.000

@<SCITEGIC>MOL_PROPERTY
Tether
SciTegic.value.DoubleValue
0.000

@<TRIPOS>MOLECULE
guest-s10_confgen4.mol2 : confsearch ligand conformer 858
          20          19           1
SMALL
USER_CHARGES
 
@<TRIPOS>ATOM
       1    N1      20.030072   16.983925   21.642415 N.4        1 MOL1        -0.5937
       2    H1      19.727134   16.073414   21.998551 H          1 MOL1         0.3684
       3    H2      21.048505   16.947261   21.546078 H          1 MOL1         0.3684
       4    H3      19.637179   17.089065   20.703658 H          1 MOL1         0.3684
       5    C1      19.598017   18.102262   22.550728 C.3        1 MOL1         0.1270
       6    H4      20.059574   17.903494   23.522609 H          1 MOL1         0.0960
       7    C2      18.068681   18.088522   22.726922 C.3        1 MOL1        -0.2382
       8    H5      17.750075   18.805720   23.492201 H          1 MOL1         0.1009
       9    H6      17.725284   17.097539   23.048116 H          1 MOL1         0.1009
      10    H7      17.558520   18.337774   21.788254 H          1 MOL1         0.1009
      11    C3      20.111730   19.469338   22.039228 C.3        1 MOL1        -0.1392
      12    H8      21.191743   19.392911   21.856867 H          1 MOL1         0.0998
      13    H9      19.653516   19.688579   21.065724 H          1 MOL1         0.0998
      14    C4      19.862279   20.662905   22.996450 C.3        1 MOL1        -0.1302
      15    H10     18.785224   20.853135   23.096645 H          1 MOL1         0.0998
      16    H11     20.286309   21.570665   22.544777 H          1 MOL1         0.0998
      17    C5      20.489302   20.459611   24.394543 C.3        1 MOL1        -0.2317
      18    H12     21.567063   20.264774   24.319525 H          1 MOL1         0.1009
      19    H13     20.024621   19.620012   24.926717 H          1 MOL1         0.1009
      20    H14     20.353479   21.357559   25.011194 H          1 MOL1         0.1009
@<TRIPOS>BOND
    1     1     2    1
    2     1     3    1
    3     1     4    1
    4     1     5    1
    5     5     6    1
    6     5     7    1
    7     7     8    1
    8     7     9    1
    9     7    10    1
   10     5    11    1
   11    11    12    1
   12    11    13    1
   13    11    14    1
   14    14    15    1
   15    14    16    1
   16    14    17    1
   17    17    18    1
   18    17    19    1
   19    17    20    1
@<TRIPOS>SUBSTRUCTURE
       1 MOL1            1 RESIDUE      1      MOL     
@<SCITEGIC>MOL_PROPERTY
VConf Rank
SciTegic.value.IntegerValue
858

@<SCITEGIC>MOL_PROPERTY
Conf_Id
SciTegic.value.IntegerValue
64

@<SCITEGIC>MOL_PROPERTY
Delta U+W
SciTegic.value.DoubleValue
0.544

@<SCITEGIC>MOL_PROPERTY
U+W
SciTegic.value.DoubleValue
-35.732

@<SCITEGIC>MOL_PROPERTY
Grad RMS
SciTegic.value.DoubleValue
0.000000

@<SCITEGIC>MOL_PROPERTY
U
SciTegic.value.DoubleValue
22.800

@<SCITEGIC>MOL_PROPERTY
W
SciTegic.value.DoubleValue
-58.532

@<SCITEGIC>MOL_PROPERTY
W(PB)
SciTegic.value.DoubleValue
-60.437

@<SCITEGIC>MOL_PROPERTY
W(SA)
SciTegic.value.DoubleValue
1.905

@<SCITEGIC>MOL_PROPERTY
Valence
SciTegic.value.DoubleValue
2.662

@<SCITEGIC>MOL_PROPERTY
Coulomb
SciTegic.value.DoubleValue
19.485

@<SCITEGIC>MOL_PROPERTY
VdW
SciTegic.value.DoubleValue
0.653

@<SCITEGIC>MOL_PROPERTY
VdW6
SciTegic.value.DoubleValue
-5.460

@<SCITEGIC>MOL_PROPERTY
VdW12
SciTegic.value.DoubleValue
6.113

@<SCITEGIC>MOL_PROPERTY
Bond
SciTegic.value.DoubleValue
0.174

@<SCITEGIC>MOL_PROPERTY
Angle
SciTegic.value.DoubleValue
1.378

@<SCITEGIC>MOL_PROPERTY
Pdih
SciTegic.value.DoubleValue
1.109

@<SCITEGIC>MOL_PROPERTY
Idih
SciTegic.value.DoubleValue
0.000

@<SCITEGIC>MOL_PROPERTY
Tether
SciTegic.value.DoubleValue
0.000

@<TRIPOS>MOLECULE
guest-s10_confgen4.mol2 : confsearch ligand conformer 859
          20          19           1
SMALL
USER_CHARGES
 
@<TRIPOS>ATOM
       1    N1      18.453614   19.170879   24.319535 N.4        1 MOL1        -0.5937
       2    H1      18.631194   20.138693   24.041912 H          1 MOL1         0.3684
       3    H2      18.555756   19.121072   25.336737 H          1 MOL1         0.3684
       4    H3      17.475106   18.963534   24.102304 H          1 MOL1         0.3684
       5    C1      19.388897   18.217995   23.625210 C.3        1 MOL1         0.1270
       6    H4      19.128387   17.220998   23.994120 H          1 MOL1         0.0960
       7    C2      20.847374   18.490101   24.028357 C.3        1 MOL1        -0.2382
       8    H5      21.138112   19.524225   23.809801 H          1 MOL1         0.1009
       9    H6      21.531631   17.815185   23.499568 H          1 MOL1         0.1009
      10    H7      20.984051   18.326122   25.104183 H          1 MOL1         0.1009
      11    C3      19.179570   18.200224   22.090020 C.3        1 MOL1        -0.1392
      12    H8      19.754504   17.372883   21.653609 H          1 MOL1         0.0998
      13    H9      18.127015   17.948071   21.905557 H          1 MOL1         0.0998
      14    C4      19.502710   19.520936   21.337341 C.3        1 MOL1        -0.1302
      15    H10     19.310806   20.393037   21.976085 H          1 MOL1         0.0998
      16    H11     18.810400   19.613793   20.488774 H          1 MOL1         0.0998
      17    C5      20.943994   19.577162   20.778516 C.3        1 MOL1        -0.2317
      18    H12     21.697497   19.534926   21.572509 H          1 MOL1         0.1009
      19    H13     21.102934   20.509694   20.221660 H          1 MOL1         0.1009
      20    H14     21.131065   18.743413   20.089380 H          1 MOL1         0.1009
@<TRIPOS>BOND
    1     1     2    1
    2     1     3    1
    3     1     4    1
    4     1     5    1
    5     5     6    1
    6     5     7    1
    7     7     8    1
    8     7     9    1
    9     7    10    1
   10     5    11    1
   11    11    12    1
   12    11    13    1
   13    11    14    1
   14    14    15    1
   15    14    16    1
   16    14    17    1
   17    17    18    1
   18    17    19    1
   19    17    20    1
@<TRIPOS>SUBSTRUCTURE
       1 MOL1            1 RESIDUE      1      MOL     
@<SCITEGIC>MOL_PROPERTY
VConf Rank
SciTegic.value.IntegerValue
859

@<SCITEGIC>MOL_PROPERTY
Conf_Id
SciTegic.value.IntegerValue
35

@<SCITEGIC>MOL_PROPERTY
Delta U+W
SciTegic.value.DoubleValue
3.004

@<SCITEGIC>MOL_PROPERTY
U+W
SciTegic.value.DoubleValue
-33.272

@<SCITEGIC>MOL_PROPERTY
Grad RMS
SciTegic.value.DoubleValue
0.000000

@<SCITEGIC>MOL_PROPERTY
U
SciTegic.value.DoubleValue
25.367

@<SCITEGIC>MOL_PROPERTY
W
SciTegic.value.DoubleValue
-58.639

@<SCITEGIC>MOL_PROPERTY
W(PB)
SciTegic.value.DoubleValue
-60.512

@<SCITEGIC>MOL_PROPERTY
W(SA)
SciTegic.value.DoubleValue
1.873

@<SCITEGIC>MOL_PROPERTY
Valence
SciTegic.value.DoubleValue
4.943

@<SCITEGIC>MOL_PROPERTY
Coulomb
SciTegic.value.DoubleValue
19.661

@<SCITEGIC>MOL_PROPERTY
VdW
SciTegic.value.DoubleValue
0.764

@<SCITEGIC>MOL_PROPERTY
VdW6
SciTegic.value.DoubleValue
-5.871

@<SCITEGIC>MOL_PROPERTY
VdW12
SciTegic.value.DoubleValue
6.636

@<SCITEGIC>MOL_PROPERTY
Bond
SciTegic.value.DoubleValue
0.230

@<SCITEGIC>MOL_PROPERTY
Angle
SciTegic.value.DoubleValue
1.857

@<SCITEGIC>MOL_PROPERTY
Pdih
SciTegic.value.DoubleValue
2.855

@<SCITEGIC>MOL_PROPERTY
Idih
SciTegic.value.DoubleValue
0.000

@<SCITEGIC>MOL_PROPERTY
Tether
SciTegic.value.DoubleValue
0.000

@<TRIPOS>MOLECULE
guest-s10_confgen4.mol2 : confsearch ligand conformer 860
          20          19           1
SMALL
USER_CHARGES
 
@<TRIPOS>ATOM
       1    N1      19.692255   17.683592   21.468736 N.4        1 MOL1        -0.5937
       2    H1      20.318424   17.150532   20.859343 H          1 MOL1         0.3684
       3    H2      18.744838   17.583125   21.094718 H          1 MOL1         0.3684
       4    H3      19.705921   17.241773   22.389935 H          1 MOL1         0.3684
       5    C1      20.101157   19.128704   21.551898 C.3        1 MOL1         0.1270
       6    H4      20.028078   19.509295   20.528308 H          1 MOL1         0.0960
       7    C2      21.569376   19.272470   21.990275 C.3        1 MOL1        -0.2382
       8    H5      21.743169   18.825551   22.976355 H          1 MOL1         0.1009
       9    H6      21.860155   20.329290   22.034987 H          1 MOL1         0.1009
      10    H7      22.234646   18.774542   21.274418 H          1 MOL1         0.1009
      11    C3      19.139681   19.983009   22.417369 C.3        1 MOL1        -0.1392
      12    H8      19.319940   21.037825   22.171580 H          1 MOL1         0.0998
      13    H9      18.106804   19.783835   22.103184 H          1 MOL1         0.0998
      14    C4      19.244154   19.830773   23.960906 C.3        1 MOL1        -0.1302
      15    H10     18.533109   20.531996   24.419736 H          1 MOL1         0.0998
      16    H11     20.236527   20.148323   24.308742 H          1 MOL1         0.0998
      17    C5      18.936695   18.412112   24.491746 C.3        1 MOL1        -0.2317
      18    H12     17.987740   18.033504   24.090149 H          1 MOL1         0.1009
      19    H13     18.852350   18.426215   25.586213 H          1 MOL1         0.1009
      20    H14     19.735589   17.705078   24.240471 H          1 MOL1         0.1009
@<TRIPOS>BOND
    1     1     2    1
    2     1     3    1
    3     1     4    1
    4     1     5    1
    5     5     6    1
    6     5     7    1
    7     7     8    1
    8     7     9    1
    9     7    10    1
   10     5    11    1
   11    11    12    1
   12    11    13    1
   13    11    14    1
   14    14    15    1
   15    14    16    1
   16    14    17    1
   17    17    18    1
   18    17    19    1
   19    17    20    1
@<TRIPOS>SUBSTRUCTURE
       1 MOL1            1 RESIDUE      1      MOL     
@<SCITEGIC>MOL_PROPERTY
VConf Rank
SciTegic.value.IntegerValue
860

@<SCITEGIC>MOL_PROPERTY
Conf_Id
SciTegic.value.IntegerValue
55

@<SCITEGIC>MOL_PROPERTY
Delta U+W
SciTegic.value.DoubleValue
2.767

@<SCITEGIC>MOL_PROPERTY
U+W
SciTegic.value.DoubleValue
-33.509

@<SCITEGIC>MOL_PROPERTY
Grad RMS
SciTegic.value.DoubleValue
0.000000

@<SCITEGIC>MOL_PROPERTY
U
SciTegic.value.DoubleValue
24.552

@<SCITEGIC>MOL_PROPERTY
W
SciTegic.value.DoubleValue
-58.061

@<SCITEGIC>MOL_PROPERTY
W(PB)
SciTegic.value.DoubleValue
-59.930

@<SCITEGIC>MOL_PROPERTY
W(SA)
SciTegic.value.DoubleValue
1.869

@<SCITEGIC>MOL_PROPERTY
Valence
SciTegic.value.DoubleValue
3.726

@<SCITEGIC>MOL_PROPERTY
Coulomb
SciTegic.value.DoubleValue
20.219

@<SCITEGIC>MOL_PROPERTY
VdW
SciTegic.value.DoubleValue
0.606

@<SCITEGIC>MOL_PROPERTY
VdW6
SciTegic.value.DoubleValue
-6.395

@<SCITEGIC>MOL_PROPERTY
VdW12
SciTegic.value.DoubleValue
7.001

@<SCITEGIC>MOL_PROPERTY
Bond
SciTegic.value.DoubleValue
0.241

@<SCITEGIC>MOL_PROPERTY
Angle
SciTegic.value.DoubleValue
2.098

@<SCITEGIC>MOL_PROPERTY
Pdih
SciTegic.value.DoubleValue
1.387

@<SCITEGIC>MOL_PROPERTY
Idih
SciTegic.value.DoubleValue
0.000

@<SCITEGIC>MOL_PROPERTY
Tether
SciTegic.value.DoubleValue
0.000

@<TRIPOS>MOLECULE
guest-s10_confgen4.mol2 : confsearch ligand conformer 861
          20          19           1
SMALL
USER_CHARGES
 
@<TRIPOS>ATOM
       1    N1      18.114315   19.937982   22.207922 N.4        1 MOL1        -0.5937
       2    H1      18.565039   20.659008   21.639139 H          1 MOL1         0.3684
       3    H2      17.223392   20.320607   22.535811 H          1 MOL1         0.3684
       4    H3      17.898154   19.150521   21.591675 H          1 MOL1         0.3684
       5    C1      18.988927   19.515808   23.357654 C.3        1 MOL1         0.1270
       6    H4      18.437390   18.746291   23.906779 H          1 MOL1         0.0960
       7    C2      19.239853   20.698222   24.307865 C.3        1 MOL1        -0.2382
       8    H5      18.291521   21.110922   24.673391 H          1 MOL1         0.1009
       9    H6      19.791172   21.502382   23.804706 H          1 MOL1         0.1009
      10    H7      19.822065   20.379871   25.181548 H          1 MOL1         0.1009
      11    C3      20.330208   18.908007   22.891079 C.3        1 MOL1        -0.1392
      12    H8      20.894173   19.654279   22.315807 H          1 MOL1         0.0998
      13    H9      20.937509   18.669931   23.774579 H          1 MOL1         0.0998
      14    C4      20.151875   17.622700   22.047455 C.3        1 MOL1        -0.1302
      15    H10     19.594492   17.846261   21.127798 H          1 MOL1         0.0998
      16    H11     19.556567   16.889908   22.610365 H          1 MOL1         0.0998
      17    C5      21.511105   16.995262   21.670468 C.3        1 MOL1        -0.2317
      18    H12     22.118325   17.693719   21.079962 H          1 MOL1         0.1009
      19    H13     21.365995   16.086558   21.071899 H          1 MOL1         0.1009
      20    H14     22.081930   16.719685   22.566821 H          1 MOL1         0.1009
@<TRIPOS>BOND
    1     1     2    1
    2     1     3    1
    3     1     4    1
    4     1     5    1
    5     5     6    1
    6     5     7    1
    7     7     8    1
    8     7     9    1
    9     7    10    1
   10     5    11    1
   11    11    12    1
   12    11    13    1
   13    11    14    1
   14    14    15    1
   15    14    16    1
   16    14    17    1
   17    17    18    1
   18    17    19    1
   19    17    20    1
@<TRIPOS>SUBSTRUCTURE
       1 MOL1            1 RESIDUE      1      MOL     
@<SCITEGIC>MOL_PROPERTY
VConf Rank
SciTegic.value.IntegerValue
861

@<SCITEGIC>MOL_PROPERTY
Conf_Id
SciTegic.value.IntegerValue
74

@<SCITEGIC>MOL_PROPERTY
Delta U+W
SciTegic.value.DoubleValue
0.000

@<SCITEGIC>MOL_PROPERTY
U+W
SciTegic.value.DoubleValue
-36.276

@<SCITEGIC>MOL_PROPERTY
Grad RMS
SciTegic.value.DoubleValue
0.000000

@<SCITEGIC>MOL_PROPERTY
U
SciTegic.value.DoubleValue
22.080

@<SCITEGIC>MOL_PROPERTY
W
SciTegic.value.DoubleValue
-58.356

@<SCITEGIC>MOL_PROPERTY
W(PB)
SciTegic.value.DoubleValue
-60.289

@<SCITEGIC>MOL_PROPERTY
W(SA)
SciTegic.value.DoubleValue
1.932

@<SCITEGIC>MOL_PROPERTY
Valence
SciTegic.value.DoubleValue
1.885

@<SCITEGIC>MOL_PROPERTY
Coulomb
SciTegic.value.DoubleValue
19.559

@<SCITEGIC>MOL_PROPERTY
VdW
SciTegic.value.DoubleValue
0.637

@<SCITEGIC>MOL_PROPERTY
VdW6
SciTegic.value.DoubleValue
-4.482

@<SCITEGIC>MOL_PROPERTY
VdW12
SciTegic.value.DoubleValue
5.119

@<SCITEGIC>MOL_PROPERTY
Bond
SciTegic.value.DoubleValue
0.136

@<SCITEGIC>MOL_PROPERTY
Angle
SciTegic.value.DoubleValue
0.867

@<SCITEGIC>MOL_PROPERTY
Pdih
SciTegic.value.DoubleValue
0.882

@<SCITEGIC>MOL_PROPERTY
Idih
SciTegic.value.DoubleValue
0.000

@<SCITEGIC>MOL_PROPERTY
Tether
SciTegic.value.DoubleValue
0.000

@<TRIPOS>MOLECULE
guest-s10_confgen4.mol2 : confsearch ligand conformer 862
          20          19           1
SMALL
USER_CHARGES
 
@<TRIPOS>ATOM
       1    N1      21.365693   18.626200   20.993960 N.4        1 MOL1        -0.5937
       2    H1      22.205480   18.403645   21.535332 H          1 MOL1         0.3684
       3    H2      21.443591   19.601486   20.694835 H          1 MOL1         0.3684
       4    H3      21.387682   18.046730   20.150509 H          1 MOL1         0.3684
       5    C1      20.112082   18.391035   21.791220 C.3        1 MOL1         0.1270
       6    H4      20.113693   17.330648   22.062225 H          1 MOL1         0.0960
       7    C2      18.869127   18.669789   20.926259 C.3        1 MOL1        -0.2382
       8    H5      18.918433   18.106669   19.986213 H          1 MOL1         0.1009
       9    H6      18.787550   19.735732   20.679906 H          1 MOL1         0.1009
      10    H7      17.949600   18.363771   21.438165 H          1 MOL1         0.1009
      11    C3      20.113844   19.223151   23.094703 C.3        1 MOL1        -0.1392
      12    H8      21.070494   19.061352   23.608808 H          1 MOL1         0.0998
      13    H9      20.069607   20.292870   22.850583 H          1 MOL1         0.0998
      14    C4      18.965583   18.862376   24.068612 C.3        1 MOL1        -0.1302
      15    H10     18.971004   17.780704   24.263616 H          1 MOL1         0.0998
      16    H11     17.993439   19.099824   23.616446 H          1 MOL1         0.0998
      17    C5      19.092298   19.623782   25.405731 C.3        1 MOL1        -0.2317
      18    H12     20.035073   19.379707   25.912526 H          1 MOL1         0.1009
      19    H13     18.269077   19.359224   26.082049 H          1 MOL1         0.1009
      20    H14     19.061107   20.709541   25.246319 H          1 MOL1         0.1009
@<TRIPOS>BOND
    1     1     2    1
    2     1     3    1
    3     1     4    1
    4     1     5    1
    5     5     6    1
    6     5     7    1
    7     7     8    1
    8     7     9    1
    9     7    10    1
   10     5    11    1
   11    11    12    1
   12    11    13    1
   13    11    14    1
   14    14    15    1
   15    14    16    1
   16    14    17    1
   17    17    18    1
   18    17    19    1
   19    17    20    1
@<TRIPOS>SUBSTRUCTURE
       1 MOL1            1 RESIDUE      1      MOL     
@<SCITEGIC>MOL_PROPERTY
VConf Rank
SciTegic.value.IntegerValue
862

@<SCITEGIC>MOL_PROPERTY
Conf_Id
SciTegic.value.IntegerValue
80

@<SCITEGIC>MOL_PROPERTY
Delta U+W
SciTegic.value.DoubleValue
0.460

@<SCITEGIC>MOL_PROPERTY
U+W
SciTegic.value.DoubleValue
-35.817

@<SCITEGIC>MOL_PROPERTY
Grad RMS
SciTegic.value.DoubleValue
0.000000

@<SCITEGIC>MOL_PROPERTY
U
SciTegic.value.DoubleValue
22.495

@<SCITEGIC>MOL_PROPERTY
W
SciTegic.value.DoubleValue
-58.311

@<SCITEGIC>MOL_PROPERTY
W(PB)
SciTegic.value.DoubleValue
-60.259

@<SCITEGIC>MOL_PROPERTY
W(SA)
SciTegic.value.DoubleValue
1.948

@<SCITEGIC>MOL_PROPERTY
Valence
SciTegic.value.DoubleValue
2.419

@<SCITEGIC>MOL_PROPERTY
Coulomb
SciTegic.value.DoubleValue
19.304

@<SCITEGIC>MOL_PROPERTY
VdW
SciTegic.value.DoubleValue
0.772

@<SCITEGIC>MOL_PROPERTY
VdW6
SciTegic.value.DoubleValue
-4.635

@<SCITEGIC>MOL_PROPERTY
VdW12
SciTegic.value.DoubleValue
5.407

@<SCITEGIC>MOL_PROPERTY
Bond
SciTegic.value.DoubleValue
0.149

@<SCITEGIC>MOL_PROPERTY
Angle
SciTegic.value.DoubleValue
1.142

@<SCITEGIC>MOL_PROPERTY
Pdih
SciTegic.value.DoubleValue
1.129

@<SCITEGIC>MOL_PROPERTY
Idih
SciTegic.value.DoubleValue
0.000

@<SCITEGIC>MOL_PROPERTY
Tether
SciTegic.value.DoubleValue
0.000

@<TRIPOS>MOLECULE
guest-s10_confgen4.mol2 : confsearch ligand conformer 863
          20          19           1
SMALL
USER_CHARGES
 
@<TRIPOS>ATOM
       1    N1      18.106395   17.394244   21.816539 N.4        1 MOL1        -0.5937
       2    H1      17.248914   17.896243   21.570502 H          1 MOL1         0.3684
       3    H2      17.932992   16.905249   22.698301 H          1 MOL1         0.3684
       4    H3      18.255969   16.681181   21.097662 H          1 MOL1         0.3684
       5    C1      19.283926   18.324184   21.923224 C.3        1 MOL1         0.1270
       6    H4      19.394303   18.792475   20.940208 H          1 MOL1         0.0960
       7    C2      20.566073   17.527721   22.219874 C.3        1 MOL1        -0.2382
       8    H5      20.674348   16.692077   21.517649 H          1 MOL1         0.1009
       9    H6      20.554147   17.118420   23.237609 H          1 MOL1         0.1009
      10    H7      21.455016   18.158712   22.107458 H          1 MOL1         0.1009
      11    C3      19.016775   19.442326   22.960397 C.3        1 MOL1        -0.1392
      12    H8      18.069414   19.925500   22.687009 H          1 MOL1         0.0998
      13    H9      18.853076   19.006252   23.954766 H          1 MOL1         0.0998
      14    C4      20.105993   20.545192   23.030635 C.3        1 MOL1        -0.1302
      15    H10     19.614442   21.512167   23.207991 H          1 MOL1         0.0998
      16    H11     20.616376   20.640561   22.061934 H          1 MOL1         0.0998
      17    C5      21.136074   20.320967   24.162752 C.3        1 MOL1        -0.2317
      18    H12     20.642571   20.300015   25.143125 H          1 MOL1         0.1009
      19    H13     21.872103   21.135203   24.179005 H          1 MOL1         0.1009
      20    H14     21.684929   19.380371   24.042007 H          1 MOL1         0.1009
@<TRIPOS>BOND
    1     1     2    1
    2     1     3    1
    3     1     4    1
    4     1     5    1
    5     5     6    1
    6     5     7    1
    7     7     8    1
    8     7     9    1
    9     7    10    1
   10     5    11    1
   11    11    12    1
   12    11    13    1
   13    11    14    1
   14    14    15    1
   15    14    16    1
   16    14    17    1
   17    17    18    1
   18    17    19    1
   19    17    20    1
@<TRIPOS>SUBSTRUCTURE
       1 MOL1            1 RESIDUE      1      MOL     
@<SCITEGIC>MOL_PROPERTY
VConf Rank
SciTegic.value.IntegerValue
863

@<SCITEGIC>MOL_PROPERTY
Conf_Id
SciTegic.value.IntegerValue
52

@<SCITEGIC>MOL_PROPERTY
Delta U+W
SciTegic.value.DoubleValue
2.995

@<SCITEGIC>MOL_PROPERTY
U+W
SciTegic.value.DoubleValue
-33.282

@<SCITEGIC>MOL_PROPERTY
Grad RMS
SciTegic.value.DoubleValue
0.000000

@<SCITEGIC>MOL_PROPERTY
U
SciTegic.value.DoubleValue
25.224

@<SCITEGIC>MOL_PROPERTY
W
SciTegic.value.DoubleValue
-58.506

@<SCITEGIC>MOL_PROPERTY
W(PB)
SciTegic.value.DoubleValue
-60.411

@<SCITEGIC>MOL_PROPERTY
W(SA)
SciTegic.value.DoubleValue
1.905

@<SCITEGIC>MOL_PROPERTY
Valence
SciTegic.value.DoubleValue
4.945

@<SCITEGIC>MOL_PROPERTY
Coulomb
SciTegic.value.DoubleValue
19.467

@<SCITEGIC>MOL_PROPERTY
VdW
SciTegic.value.DoubleValue
0.813

@<SCITEGIC>MOL_PROPERTY
VdW6
SciTegic.value.DoubleValue
-5.458

@<SCITEGIC>MOL_PROPERTY
VdW12
SciTegic.value.DoubleValue
6.270

@<SCITEGIC>MOL_PROPERTY
Bond
SciTegic.value.DoubleValue
0.200

@<SCITEGIC>MOL_PROPERTY
Angle
SciTegic.value.DoubleValue
1.675

@<SCITEGIC>MOL_PROPERTY
Pdih
SciTegic.value.DoubleValue
3.070

@<SCITEGIC>MOL_PROPERTY
Idih
SciTegic.value.DoubleValue
0.000

@<SCITEGIC>MOL_PROPERTY
Tether
SciTegic.value.DoubleValue
0.000

@<TRIPOS>MOLECULE
guest-s10_confgen4.mol2 : confsearch ligand conformer 864
          20          19           1
SMALL
USER_CHARGES
 
@<TRIPOS>ATOM
       1    N1      20.236912   17.908328   23.827767 N.4        1 MOL1        -0.5937
       2    H1      21.248414   17.837566   23.692731 H          1 MOL1         0.3684
       3    H2      19.929494   17.050098   24.293151 H          1 MOL1         0.3684
       4    H3      20.067671   18.685615   24.469770 H          1 MOL1         0.3684
       5    C1      19.522083   18.114415   22.520175 C.3        1 MOL1         0.1270
       6    H4      18.449770   18.131449   22.738328 H          1 MOL1         0.0960
       7    C2      19.802714   16.929834   21.580082 C.3        1 MOL1        -0.2382
       8    H5      20.866249   16.875897   21.315805 H          1 MOL1         0.1009
       9    H6      19.224138   17.021046   20.652410 H          1 MOL1         0.1009
      10    H7      19.519649   15.981875   22.053984 H          1 MOL1         0.1009
      11    C3      19.899720   19.448864   21.833974 C.3        1 MOL1        -0.1392
      12    H8      20.990592   19.573646   21.832620 H          1 MOL1         0.0998
      13    H9      19.602958   19.395591   20.777954 H          1 MOL1         0.0998
      14    C4      19.218935   20.705646   22.436998 C.3        1 MOL1        -0.1302
      15    H10     18.126587   20.592846   22.391320 H          1 MOL1         0.0998
      16    H11     19.460875   21.565969   21.797204 H          1 MOL1         0.0998
      17    C5      19.642611   21.042008   23.884950 C.3        1 MOL1        -0.2317
      18    H12     19.280681   22.040429   24.163249 H          1 MOL1         0.1009
      19    H13     20.735298   21.043527   23.991489 H          1 MOL1         0.1009
      20    H14     19.215042   20.335622   24.605812 H          1 MOL1         0.1009
@<TRIPOS>BOND
    1     1     2    1
    2     1     3    1
    3     1     4    1
    4     1     5    1
    5     5     6    1
    6     5     7    1
    7     7     8    1
    8     7     9    1
    9     7    10    1
   10     5    11    1
   11    11    12    1
   12    11    13    1
   13    11    14    1
   14    14    15    1
   15    14    16    1
   16    14    17    1
   17    17    18    1
   18    17    19    1
   19    17    20    1
@<TRIPOS>SUBSTRUCTURE
       1 MOL1            1 RESIDUE      1      MOL     
@<SCITEGIC>MOL_PROPERTY
VConf Rank
SciTegic.value.IntegerValue
864

@<SCITEGIC>MOL_PROPERTY
Conf_Id
SciTegic.value.IntegerValue
54

@<SCITEGIC>MOL_PROPERTY
Delta U+W
SciTegic.value.DoubleValue
2.752

@<SCITEGIC>MOL_PROPERTY
U+W
SciTegic.value.DoubleValue
-33.525

@<SCITEGIC>MOL_PROPERTY
Grad RMS
SciTegic.value.DoubleValue
0.000000

@<SCITEGIC>MOL_PROPERTY
U
SciTegic.value.DoubleValue
24.337

@<SCITEGIC>MOL_PROPERTY
W
SciTegic.value.DoubleValue
-57.862

@<SCITEGIC>MOL_PROPERTY
W(PB)
SciTegic.value.DoubleValue
-59.764

@<SCITEGIC>MOL_PROPERTY
W(SA)
SciTegic.value.DoubleValue
1.901

@<SCITEGIC>MOL_PROPERTY
Valence
SciTegic.value.DoubleValue
3.593

@<SCITEGIC>MOL_PROPERTY
Coulomb
SciTegic.value.DoubleValue
20.067

@<SCITEGIC>MOL_PROPERTY
VdW
SciTegic.value.DoubleValue
0.677

@<SCITEGIC>MOL_PROPERTY
VdW6
SciTegic.value.DoubleValue
-5.466

@<SCITEGIC>MOL_PROPERTY
VdW12
SciTegic.value.DoubleValue
6.144

@<SCITEGIC>MOL_PROPERTY
Bond
SciTegic.value.DoubleValue
0.191

@<SCITEGIC>MOL_PROPERTY
Angle
SciTegic.value.DoubleValue
1.557

@<SCITEGIC>MOL_PROPERTY
Pdih
SciTegic.value.DoubleValue
1.845

@<SCITEGIC>MOL_PROPERTY
Idih
SciTegic.value.DoubleValue
0.000

@<SCITEGIC>MOL_PROPERTY
Tether
SciTegic.value.DoubleValue
0.000

@<TRIPOS>MOLECULE
guest-s10_confgen4.mol2 : confsearch ligand conformer 865
          20          19           1
SMALL
USER_CHARGES
 
@<TRIPOS>ATOM
       1    N1      21.366877   19.996191   23.465811 N.4        1 MOL1        -0.5937
       2    H1      22.375658   20.146978   23.380501 H          1 MOL1         0.3684
       3    H2      21.119199   20.147251   24.447416 H          1 MOL1         0.3684
       4    H3      20.902098   20.722436   22.916268 H          1 MOL1         0.3684
       5    C1      20.974672   18.619679   23.001833 C.3        1 MOL1         0.1270
       6    H4      21.530482   17.918149   23.631874 H          1 MOL1         0.0960
       7    C2      21.412006   18.381499   21.545518 C.3        1 MOL1        -0.2382
       8    H5      21.122739   17.377723   21.210510 H          1 MOL1         0.1009
       9    H6      22.502263   18.460224   21.454806 H          1 MOL1         0.1009
      10    H7      20.965926   19.113936   20.862444 H          1 MOL1         0.1009
      11    C3      19.469076   18.329769   23.212036 C.3        1 MOL1        -0.1392
      12    H8      19.269410   17.285085   22.939082 H          1 MOL1         0.0998
      13    H9      19.247016   18.408300   24.284383 H          1 MOL1         0.0998
      14    C4      18.507717   19.257066   22.424475 C.3        1 MOL1        -0.1302
      15    H10     18.679536   19.153792   21.344741 H          1 MOL1         0.0998
      16    H11     18.700785   20.307797   22.679132 H          1 MOL1         0.0998
      17    C5      17.029867   18.929610   22.727889 C.3        1 MOL1        -0.2317
      18    H12     16.361874   19.592020   22.162146 H          1 MOL1         0.1009
      19    H13     16.807104   19.059299   23.795025 H          1 MOL1         0.1009
      20    H14     16.789773   17.894499   22.451982 H          1 MOL1         0.1009
@<TRIPOS>BOND
    1     1     2    1
    2     1     3    1
    3     1     4    1
    4     1     5    1
    5     5     6    1
    6     5     7    1
    7     7     8    1
    8     7     9    1
    9     7    10    1
   10     5    11    1
   11    11    12    1
   12    11    13    1
   13    11    14    1
   14    14    15    1
   15    14    16    1
   16    14    17    1
   17    17    18    1
   18    17    19    1
   19    17    20    1
@<TRIPOS>SUBSTRUCTURE
       1 MOL1            1 RESIDUE      1      MOL     
@<SCITEGIC>MOL_PROPERTY
VConf Rank
SciTegic.value.IntegerValue
865

@<SCITEGIC>MOL_PROPERTY
Conf_Id
SciTegic.value.IntegerValue
63

@<SCITEGIC>MOL_PROPERTY
Delta U+W
SciTegic.value.DoubleValue
0.420

@<SCITEGIC>MOL_PROPERTY
U+W
SciTegic.value.DoubleValue
-35.856

@<SCITEGIC>MOL_PROPERTY
Grad RMS
SciTegic.value.DoubleValue
0.000000

@<SCITEGIC>MOL_PROPERTY
U
SciTegic.value.DoubleValue
22.625

@<SCITEGIC>MOL_PROPERTY
W
SciTegic.value.DoubleValue
-58.481

@<SCITEGIC>MOL_PROPERTY
W(PB)
SciTegic.value.DoubleValue
-60.400

@<SCITEGIC>MOL_PROPERTY
W(SA)
SciTegic.value.DoubleValue
1.919

@<SCITEGIC>MOL_PROPERTY
Valence
SciTegic.value.DoubleValue
2.404

@<SCITEGIC>MOL_PROPERTY
Coulomb
SciTegic.value.DoubleValue
19.464

@<SCITEGIC>MOL_PROPERTY
VdW
SciTegic.value.DoubleValue
0.757

@<SCITEGIC>MOL_PROPERTY
VdW6
SciTegic.value.DoubleValue
-5.074

@<SCITEGIC>MOL_PROPERTY
VdW12
SciTegic.value.DoubleValue
5.830

@<SCITEGIC>MOL_PROPERTY
Bond
SciTegic.value.DoubleValue
0.172

@<SCITEGIC>MOL_PROPERTY
Angle
SciTegic.value.DoubleValue
1.207

@<SCITEGIC>MOL_PROPERTY
Pdih
SciTegic.value.DoubleValue
1.025

@<SCITEGIC>MOL_PROPERTY
Idih
SciTegic.value.DoubleValue
0.000

@<SCITEGIC>MOL_PROPERTY
Tether
SciTegic.value.DoubleValue
0.000

@<TRIPOS>MOLECULE
guest-s10_confgen4.mol2 : confsearch ligand conformer 866
          20          19           1
SMALL
USER_CHARGES
 
@<TRIPOS>ATOM
       1    N1      20.041665   17.245546   22.851123 N.4        1 MOL1        -0.5937
       2    H1      19.274578   17.146474   22.181320 H          1 MOL1         0.3684
       3    H2      19.722409   16.861911   23.744052 H          1 MOL1         0.3684
       4    H3      20.811937   16.656806   22.523085 H          1 MOL1         0.3684
       5    C1      20.465275   18.682842   22.988638 C.3        1 MOL1         0.1270
       6    H4      20.792011   19.010858   21.997286 H          1 MOL1         0.0960
       7    C2      21.657838   18.807865   23.950758 C.3        1 MOL1        -0.2382
       8    H5      22.498168   18.190661   23.609963 H          1 MOL1         0.1009
       9    H6      21.386645   18.486357   24.964089 H          1 MOL1         0.1009
      10    H7      22.008300   19.846107   24.004168 H          1 MOL1         0.1009
      11    C3      19.307319   19.599257   23.445042 C.3        1 MOL1        -0.1392
      12    H8      18.975793   19.295772   24.446950 H          1 MOL1         0.0998
      13    H9      19.682684   20.626451   23.544552 H          1 MOL1         0.0998
      14    C4      18.088103   19.606400   22.488298 C.3        1 MOL1        -0.1302
      15    H10     17.321957   20.279116   22.898634 H          1 MOL1         0.0998
      16    H11     17.626833   18.610132   22.453001 H          1 MOL1         0.0998
      17    C5      18.444172   20.067375   21.056487 C.3        1 MOL1        -0.2317
      18    H12     18.907387   21.062622   21.066246 H          1 MOL1         0.1009
      19    H13     17.540883   20.125102   20.435355 H          1 MOL1         0.1009
      20    H14     19.137400   19.371478   20.567551 H          1 MOL1         0.1009
@<TRIPOS>BOND
    1     1     2    1
    2     1     3    1
    3     1     4    1
    4     1     5    1
    5     5     6    1
    6     5     7    1
    7     7     8    1
    8     7     9    1
    9     7    10    1
   10     5    11    1
   11    11    12    1
   12    11    13    1
   13    11    14    1
   14    14    15    1
   15    14    16    1
   16    14    17    1
   17    17    18    1
   18    17    19    1
   19    17    20    1
@<TRIPOS>SUBSTRUCTURE
       1 MOL1            1 RESIDUE      1      MOL     
@<SCITEGIC>MOL_PROPERTY
VConf Rank
SciTegic.value.IntegerValue
866

@<SCITEGIC>MOL_PROPERTY
Conf_Id
SciTegic.value.IntegerValue
50

@<SCITEGIC>MOL_PROPERTY
Delta U+W
SciTegic.value.DoubleValue
0.466

@<SCITEGIC>MOL_PROPERTY
U+W
SciTegic.value.DoubleValue
-35.811

@<SCITEGIC>MOL_PROPERTY
Grad RMS
SciTegic.value.DoubleValue
0.000000

@<SCITEGIC>MOL_PROPERTY
U
SciTegic.value.DoubleValue
22.369

@<SCITEGIC>MOL_PROPERTY
W
SciTegic.value.DoubleValue
-58.180

@<SCITEGIC>MOL_PROPERTY
W(PB)
SciTegic.value.DoubleValue
-60.103

@<SCITEGIC>MOL_PROPERTY
W(SA)
SciTegic.value.DoubleValue
1.923

@<SCITEGIC>MOL_PROPERTY
Valence
SciTegic.value.DoubleValue
2.168

@<SCITEGIC>MOL_PROPERTY
Coulomb
SciTegic.value.DoubleValue
19.636

@<SCITEGIC>MOL_PROPERTY
VdW
SciTegic.value.DoubleValue
0.566

@<SCITEGIC>MOL_PROPERTY
VdW6
SciTegic.value.DoubleValue
-5.263

@<SCITEGIC>MOL_PROPERTY
VdW12
SciTegic.value.DoubleValue
5.829

@<SCITEGIC>MOL_PROPERTY
Bond
SciTegic.value.DoubleValue
0.162

@<SCITEGIC>MOL_PROPERTY
Angle
SciTegic.value.DoubleValue
1.066

@<SCITEGIC>MOL_PROPERTY
Pdih
SciTegic.value.DoubleValue
0.939

@<SCITEGIC>MOL_PROPERTY
Idih
SciTegic.value.DoubleValue
0.000

@<SCITEGIC>MOL_PROPERTY
Tether
SciTegic.value.DoubleValue
0.000

@<TRIPOS>MOLECULE
guest-s10_confgen4.mol2 : confsearch ligand conformer 867
          20          19           1
SMALL
USER_CHARGES
 
@<TRIPOS>ATOM
       1    N1      20.158354   20.908375   23.790870 N.4        1 MOL1        -0.5937
       2    H1      21.180594   20.957173   23.816162 H          1 MOL1         0.3684
       3    H2      19.830676   20.827408   24.756760 H          1 MOL1         0.3684
       4    H3      19.821889   21.805063   23.429653 H          1 MOL1         0.3684
       5    C1      19.678286   19.759292   22.946048 C.3        1 MOL1         0.1270
       6    H4      20.078297   19.931382   21.941987 H          1 MOL1         0.0960
       7    C2      18.139938   19.766108   22.872543 C.3        1 MOL1        -0.2382
       8    H5      17.696146   19.643503   23.868376 H          1 MOL1         0.1009
       9    H6      17.763426   18.958855   22.235072 H          1 MOL1         0.1009
      10    H7      17.777439   20.713233   22.454600 H          1 MOL1         0.1009
      11    C3      20.221394   18.401187   23.454789 C.3        1 MOL1        -0.1392
      12    H8      21.072622   18.582559   24.124257 H          1 MOL1         0.0998
      13    H9      19.466446   17.891668   24.068349 H          1 MOL1         0.0998
      14    C4      20.714615   17.460239   22.326458 C.3        1 MOL1        -0.1302
      15    H10     21.150804   16.561559   22.784766 H          1 MOL1         0.0998
      16    H11     21.530098   17.946597   21.772811 H          1 MOL1         0.0998
      17    C5      19.610514   17.027062   21.336733 C.3        1 MOL1        -0.2317
      18    H12     18.760489   16.575048   21.864149 H          1 MOL1         0.1009
      19    H13     19.999772   16.282679   20.630042 H          1 MOL1         0.1009
      20    H14     19.243879   17.877055   20.747904 H          1 MOL1         0.1009
@<TRIPOS>BOND
    1     1     2    1
    2     1     3    1
    3     1     4    1
    4     1     5    1
    5     5     6    1
    6     5     7    1
    7     7     8    1
    8     7     9    1
    9     7    10    1
   10     5    11    1
   11    11    12    1
   12    11    13    1
   13    11    14    1
   14    14    15    1
   15    14    16    1
   16    14    17    1
   17    17    18    1
   18    17    19    1
   19    17    20    1
@<TRIPOS>SUBSTRUCTURE
       1 MOL1            1 RESIDUE      1      MOL     
@<SCITEGIC>MOL_PROPERTY
VConf Rank
SciTegic.value.IntegerValue
867

@<SCITEGIC>MOL_PROPERTY
Conf_Id
SciTegic.value.IntegerValue
3

@<SCITEGIC>MOL_PROPERTY
Delta U+W
SciTegic.value.DoubleValue
3.093

@<SCITEGIC>MOL_PROPERTY
U+W
SciTegic.value.DoubleValue
-33.184

@<SCITEGIC>MOL_PROPERTY
Grad RMS
SciTegic.value.DoubleValue
0.000000

@<SCITEGIC>MOL_PROPERTY
U
SciTegic.value.DoubleValue
25.256

@<SCITEGIC>MOL_PROPERTY
W
SciTegic.value.DoubleValue
-58.439

@<SCITEGIC>MOL_PROPERTY
W(PB)
SciTegic.value.DoubleValue
-60.337

@<SCITEGIC>MOL_PROPERTY
W(SA)
SciTegic.value.DoubleValue
1.898

@<SCITEGIC>MOL_PROPERTY
Valence
SciTegic.value.DoubleValue
4.963

@<SCITEGIC>MOL_PROPERTY
Coulomb
SciTegic.value.DoubleValue
19.511

@<SCITEGIC>MOL_PROPERTY
VdW
SciTegic.value.DoubleValue
0.782

@<SCITEGIC>MOL_PROPERTY
VdW6
SciTegic.value.DoubleValue
-5.429

@<SCITEGIC>MOL_PROPERTY
VdW12
SciTegic.value.DoubleValue
6.211

@<SCITEGIC>MOL_PROPERTY
Bond
SciTegic.value.DoubleValue
0.174

@<SCITEGIC>MOL_PROPERTY
Angle
SciTegic.value.DoubleValue
1.377

@<SCITEGIC>MOL_PROPERTY
Pdih
SciTegic.value.DoubleValue
3.412

@<SCITEGIC>MOL_PROPERTY
Idih
SciTegic.value.DoubleValue
0.000

@<SCITEGIC>MOL_PROPERTY
Tether
SciTegic.value.DoubleValue
0.000

@<TRIPOS>MOLECULE
guest-s10_confgen4.mol2 : confsearch ligand conformer 868
          20          19           1
SMALL
USER_CHARGES
 
@<TRIPOS>ATOM
       1    N1      17.655911   18.208322   23.529469 N.4        1 MOL1        -0.5937
       2    H1      17.539603   17.337823   24.055148 H          1 MOL1         0.3684
       3    H2      17.096071   18.123626   22.676687 H          1 MOL1         0.3684
       4    H3      17.246960   18.959384   24.091029 H          1 MOL1         0.3684
       5    C1      19.103281   18.475486   23.219428 C.3        1 MOL1         0.1270
       6    H4      19.451501   17.625282   22.625297 H          1 MOL1         0.0960
       7    C2      19.927747   18.531069   24.518376 C.3        1 MOL1        -0.2382
       8    H5      21.001698   18.585363   24.305731 H          1 MOL1         0.1009
       9    H6      19.761561   17.629616   25.120786 H          1 MOL1         0.1009
      10    H7      19.652986   19.402022   25.126188 H          1 MOL1         0.1009
      11    C3      19.266636   19.759931   22.372111 C.3        1 MOL1        -0.1392
      12    H8      18.596699   19.696065   21.504568 H          1 MOL1         0.0998
      13    H9      18.927060   20.625862   22.955709 H          1 MOL1         0.0998
      14    C4      20.704645   20.027837   21.858827 C.3        1 MOL1        -0.1302
      15    H10     21.379277   20.229825   22.701647 H          1 MOL1         0.0998
      16    H11     20.697101   20.945581   21.254238 H          1 MOL1         0.0998
      17    C5      21.268421   18.869935   21.004092 C.3        1 MOL1        -0.2317
      18    H12     20.608335   18.647668   20.155540 H          1 MOL1         0.1009
      19    H13     21.388224   17.953407   21.595436 H          1 MOL1         0.1009
      20    H14     22.254591   19.134362   20.600897 H          1 MOL1         0.1009
@<TRIPOS>BOND
    1     1     2    1
    2     1     3    1
    3     1     4    1
    4     1     5    1
    5     5     6    1
    6     5     7    1
    7     7     8    1
    8     7     9    1
    9     7    10    1
   10     5    11    1
   11    11    12    1
   12    11    13    1
   13    11    14    1
   14    14    15    1
   15    14    16    1
   16    14    17    1
   17    17    18    1
   18    17    19    1
   19    17    20    1
@<TRIPOS>SUBSTRUCTURE
       1 MOL1            1 RESIDUE      1      MOL     
@<SCITEGIC>MOL_PROPERTY
VConf Rank
SciTegic.value.IntegerValue
868

@<SCITEGIC>MOL_PROPERTY
Conf_Id
SciTegic.value.IntegerValue
64

@<SCITEGIC>MOL_PROPERTY
Delta U+W
SciTegic.value.DoubleValue
0.544

@<SCITEGIC>MOL_PROPERTY
U+W
SciTegic.value.DoubleValue
-35.732

@<SCITEGIC>MOL_PROPERTY
Grad RMS
SciTegic.value.DoubleValue
0.000000

@<SCITEGIC>MOL_PROPERTY
U
SciTegic.value.DoubleValue
22.800

@<SCITEGIC>MOL_PROPERTY
W
SciTegic.value.DoubleValue
-58.532

@<SCITEGIC>MOL_PROPERTY
W(PB)
SciTegic.value.DoubleValue
-60.437

@<SCITEGIC>MOL_PROPERTY
W(SA)
SciTegic.value.DoubleValue
1.905

@<SCITEGIC>MOL_PROPERTY
Valence
SciTegic.value.DoubleValue
2.662

@<SCITEGIC>MOL_PROPERTY
Coulomb
SciTegic.value.DoubleValue
19.485

@<SCITEGIC>MOL_PROPERTY
VdW
SciTegic.value.DoubleValue
0.653

@<SCITEGIC>MOL_PROPERTY
VdW6
SciTegic.value.DoubleValue
-5.460

@<SCITEGIC>MOL_PROPERTY
VdW12
SciTegic.value.DoubleValue
6.113

@<SCITEGIC>MOL_PROPERTY
Bond
SciTegic.value.DoubleValue
0.174

@<SCITEGIC>MOL_PROPERTY
Angle
SciTegic.value.DoubleValue
1.378

@<SCITEGIC>MOL_PROPERTY
Pdih
SciTegic.value.DoubleValue
1.109

@<SCITEGIC>MOL_PROPERTY
Idih
SciTegic.value.DoubleValue
0.000

@<SCITEGIC>MOL_PROPERTY
Tether
SciTegic.value.DoubleValue
0.000

@<TRIPOS>MOLECULE
guest-s10_confgen4.mol2 : confsearch ligand conformer 869
          20          19           1
SMALL
USER_CHARGES
 
@<TRIPOS>ATOM
       1    N1      18.493163   18.183105   21.198667 N.4        1 MOL1        -0.5937
       2    H1      17.894202   18.858860   21.678119 H          1 MOL1         0.3684
       3    H2      17.952964   17.320897   21.087329 H          1 MOL1         0.3684
       4    H3      18.678676   18.548230   20.260622 H          1 MOL1         0.3684
       5    C1      19.768143   17.939260   21.960112 C.3        1 MOL1         0.1270
       6    H4      20.328383   17.201582   21.377081 H          1 MOL1         0.0960
       7    C2      19.475252   17.312773   23.333229 C.3        1 MOL1        -0.2382
       8    H5      18.800977   17.941824   23.925983 H          1 MOL1         0.1009
       9    H6      20.402234   17.162572   23.900224 H          1 MOL1         0.1009
      10    H7      18.996784   16.333216   23.212787 H          1 MOL1         0.1009
      11    C3      20.652247   19.208514   22.051200 C.3        1 MOL1        -0.1392
      12    H8      21.636289   18.938598   22.456543 H          1 MOL1         0.0998
      13    H9      20.846647   19.546983   21.024980 H          1 MOL1         0.0998
      14    C4      20.061216   20.401235   22.853275 C.3        1 MOL1        -0.1302
      15    H10     18.965675   20.416250   22.782966 H          1 MOL1         0.0998
      16    H11     20.403539   21.335527   22.386480 H          1 MOL1         0.0998
      17    C5      20.499906   20.426652   24.336397 C.3        1 MOL1        -0.2317
      18    H12     20.155277   19.543308   24.884950 H          1 MOL1         0.1009
      19    H13     20.089729   21.310324   24.842206 H          1 MOL1         0.1009
      20    H14     21.593314   20.473235   24.422028 H          1 MOL1         0.1009
@<TRIPOS>BOND
    1     1     2    1
    2     1     3    1
    3     1     4    1
    4     1     5    1
    5     5     6    1
    6     5     7    1
    7     7     8    1
    8     7     9    1
    9     7    10    1
   10     5    11    1
   11    11    12    1
   12    11    13    1
   13    11    14    1
   14    14    15    1
   15    14    16    1
   16    14    17    1
   17    17    18    1
   18    17    19    1
   19    17    20    1
@<TRIPOS>SUBSTRUCTURE
       1 MOL1            1 RESIDUE      1      MOL     
@<SCITEGIC>MOL_PROPERTY
VConf Rank
SciTegic.value.IntegerValue
869

@<SCITEGIC>MOL_PROPERTY
Conf_Id
SciTegic.value.IntegerValue
35

@<SCITEGIC>MOL_PROPERTY
Delta U+W
SciTegic.value.DoubleValue
3.004

@<SCITEGIC>MOL_PROPERTY
U+W
SciTegic.value.DoubleValue
-33.272

@<SCITEGIC>MOL_PROPERTY
Grad RMS
SciTegic.value.DoubleValue
0.000000

@<SCITEGIC>MOL_PROPERTY
U
SciTegic.value.DoubleValue
25.367

@<SCITEGIC>MOL_PROPERTY
W
SciTegic.value.DoubleValue
-58.639

@<SCITEGIC>MOL_PROPERTY
W(PB)
SciTegic.value.DoubleValue
-60.512

@<SCITEGIC>MOL_PROPERTY
W(SA)
SciTegic.value.DoubleValue
1.873

@<SCITEGIC>MOL_PROPERTY
Valence
SciTegic.value.DoubleValue
4.943

@<SCITEGIC>MOL_PROPERTY
Coulomb
SciTegic.value.DoubleValue
19.661

@<SCITEGIC>MOL_PROPERTY
VdW
SciTegic.value.DoubleValue
0.764

@<SCITEGIC>MOL_PROPERTY
VdW6
SciTegic.value.DoubleValue
-5.871

@<SCITEGIC>MOL_PROPERTY
VdW12
SciTegic.value.DoubleValue
6.636

@<SCITEGIC>MOL_PROPERTY
Bond
SciTegic.value.DoubleValue
0.230

@<SCITEGIC>MOL_PROPERTY
Angle
SciTegic.value.DoubleValue
1.857

@<SCITEGIC>MOL_PROPERTY
Pdih
SciTegic.value.DoubleValue
2.855

@<SCITEGIC>MOL_PROPERTY
Idih
SciTegic.value.DoubleValue
0.000

@<SCITEGIC>MOL_PROPERTY
Tether
SciTegic.value.DoubleValue
0.000

@<TRIPOS>MOLECULE
guest-s10_confgen4.mol2 : confsearch ligand conformer 870
          20          19           1
SMALL
USER_CHARGES
 
@<TRIPOS>ATOM
       1    N1      18.032306   19.073960   22.537755 N.4        1 MOL1        -0.5937
       2    H1      17.207779   19.075706   23.144182 H          1 MOL1         0.3684
       3    H2      17.712850   18.856798   21.589931 H          1 MOL1         0.3684
       4    H3      18.408738   20.023747   22.523610 H          1 MOL1         0.3684
       5    C1      19.063569   18.086596   23.011117 C.3        1 MOL1         0.1270
       6    H4      18.571878   17.109894   22.963994 H          1 MOL1         0.0960
       7    C2      19.446823   18.336014   24.480613 C.3        1 MOL1        -0.2382
       8    H5      19.863493   19.339830   24.625649 H          1 MOL1         0.1009
       9    H6      20.189370   17.602695   24.818677 H          1 MOL1         0.1009
      10    H7      18.566983   18.241261   25.128588 H          1 MOL1         0.1009
      11    C3      20.302320   18.009987   22.082172 C.3        1 MOL1        -0.1392
      12    H8      20.832905   17.076650   22.312183 H          1 MOL1         0.0998
      13    H9      19.961952   17.902487   21.043995 H          1 MOL1         0.0998
      14    C4      21.329956   19.173354   22.166652 C.3        1 MOL1        -0.1302
      15    H10     22.160081   18.942782   21.484338 H          1 MOL1         0.0998
      16    H11     21.776333   19.215303   23.169458 H          1 MOL1         0.0998
      17    C5      20.765020   20.562024   21.790665 C.3        1 MOL1        -0.2317
      18    H12     20.236676   20.530058   20.828911 H          1 MOL1         0.1009
      19    H13     21.580374   21.291239   21.697853 H          1 MOL1         0.1009
      20    H14     20.081203   20.941160   22.558726 H          1 MOL1         0.1009
@<TRIPOS>BOND
    1     1     2    1
    2     1     3    1
    3     1     4    1
    4     1     5    1
    5     5     6    1
    6     5     7    1
    7     7     8    1
    8     7     9    1
    9     7    10    1
   10     5    11    1
   11    11    12    1
   12    11    13    1
   13    11    14    1
   14    14    15    1
   15    14    16    1
   16    14    17    1
   17    17    18    1
   18    17    19    1
   19    17    20    1
@<TRIPOS>SUBSTRUCTURE
       1 MOL1            1 RESIDUE      1      MOL     
@<SCITEGIC>MOL_PROPERTY
VConf Rank
SciTegic.value.IntegerValue
870

@<SCITEGIC>MOL_PROPERTY
Conf_Id
SciTegic.value.IntegerValue
55

@<SCITEGIC>MOL_PROPERTY
Delta U+W
SciTegic.value.DoubleValue
2.767

@<SCITEGIC>MOL_PROPERTY
U+W
SciTegic.value.DoubleValue
-33.509

@<SCITEGIC>MOL_PROPERTY
Grad RMS
SciTegic.value.DoubleValue
0.000000

@<SCITEGIC>MOL_PROPERTY
U
SciTegic.value.DoubleValue
24.552

@<SCITEGIC>MOL_PROPERTY
W
SciTegic.value.DoubleValue
-58.061

@<SCITEGIC>MOL_PROPERTY
W(PB)
SciTegic.value.DoubleValue
-59.930

@<SCITEGIC>MOL_PROPERTY
W(SA)
SciTegic.value.DoubleValue
1.869

@<SCITEGIC>MOL_PROPERTY
Valence
SciTegic.value.DoubleValue
3.726

@<SCITEGIC>MOL_PROPERTY
Coulomb
SciTegic.value.DoubleValue
20.219

@<SCITEGIC>MOL_PROPERTY
VdW
SciTegic.value.DoubleValue
0.606

@<SCITEGIC>MOL_PROPERTY
VdW6
SciTegic.value.DoubleValue
-6.395

@<SCITEGIC>MOL_PROPERTY
VdW12
SciTegic.value.DoubleValue
7.001

@<SCITEGIC>MOL_PROPERTY
Bond
SciTegic.value.DoubleValue
0.241

@<SCITEGIC>MOL_PROPERTY
Angle
SciTegic.value.DoubleValue
2.098

@<SCITEGIC>MOL_PROPERTY
Pdih
SciTegic.value.DoubleValue
1.387

@<SCITEGIC>MOL_PROPERTY
Idih
SciTegic.value.DoubleValue
0.000

@<SCITEGIC>MOL_PROPERTY
Tether
SciTegic.value.DoubleValue
0.000

@<TRIPOS>MOLECULE
guest-s10_confgen4.mol2 : confsearch ligand conformer 871
          20          19           1
SMALL
USER_CHARGES
 
@<TRIPOS>ATOM
       1    N1      20.681424   18.585943   21.022513 N.4        1 MOL1        -0.5937
       2    H1      21.111388   17.699386   21.297635 H          1 MOL1         0.3684
       3    H2      21.252746   18.982013   20.271263 H          1 MOL1         0.3684
       4    H3      19.763200   18.372310   20.625263 H          1 MOL1         0.3684
       5    C1      20.572501   19.531279   22.188504 C.3        1 MOL1         0.1270
       6    H4      20.102305   20.444496   21.810564 H          1 MOL1         0.0960
       7    C2      21.968186   19.894069   22.721810 C.3        1 MOL1        -0.2382
       8    H5      22.586945   20.328513   21.927040 H          1 MOL1         0.1009
       9    H6      22.486254   19.009739   23.113421 H          1 MOL1         0.1009
      10    H7      21.897276   20.633631   23.529064 H          1 MOL1         0.1009
      11    C3      19.691810   18.970528   23.326964 C.3        1 MOL1        -0.1392
      12    H8      20.130040   18.038844   23.708848 H          1 MOL1         0.0998
      13    H9      19.696307   19.683594   24.162179 H          1 MOL1         0.0998
      14    C4      18.227436   18.720337   22.892759 C.3        1 MOL1        -0.1302
      15    H10     18.191410   17.966692   22.094545 H          1 MOL1         0.0998
      16    H11     17.801279   19.644552   22.477477 H          1 MOL1         0.0998
      17    C5      17.356474   18.241976   24.074241 C.3        1 MOL1        -0.2317
      18    H12     17.739875   17.302080   24.492397 H          1 MOL1         0.1009
      19    H13     16.322662   18.068281   23.748437 H          1 MOL1         0.1009
      20    H14     17.334489   18.989665   24.877802 H          1 MOL1         0.1009
@<TRIPOS>BOND
    1     1     2    1
    2     1     3    1
    3     1     4    1
    4     1     5    1
    5     5     6    1
    6     5     7    1
    7     7     8    1
    8     7     9    1
    9     7    10    1
   10     5    11    1
   11    11    12    1
   12    11    13    1
   13    11    14    1
   14    14    15    1
   15    14    16    1
   16    14    17    1
   17    17    18    1
   18    17    19    1
   19    17    20    1
@<TRIPOS>SUBSTRUCTURE
       1 MOL1            1 RESIDUE      1      MOL     
@<SCITEGIC>MOL_PROPERTY
VConf Rank
SciTegic.value.IntegerValue
871

@<SCITEGIC>MOL_PROPERTY
Conf_Id
SciTegic.value.IntegerValue
74

@<SCITEGIC>MOL_PROPERTY
Delta U+W
SciTegic.value.DoubleValue
0.000

@<SCITEGIC>MOL_PROPERTY
U+W
SciTegic.value.DoubleValue
-36.276

@<SCITEGIC>MOL_PROPERTY
Grad RMS
SciTegic.value.DoubleValue
0.000000

@<SCITEGIC>MOL_PROPERTY
U
SciTegic.value.DoubleValue
22.080

@<SCITEGIC>MOL_PROPERTY
W
SciTegic.value.DoubleValue
-58.356

@<SCITEGIC>MOL_PROPERTY
W(PB)
SciTegic.value.DoubleValue
-60.289

@<SCITEGIC>MOL_PROPERTY
W(SA)
SciTegic.value.DoubleValue
1.932

@<SCITEGIC>MOL_PROPERTY
Valence
SciTegic.value.DoubleValue
1.885

@<SCITEGIC>MOL_PROPERTY
Coulomb
SciTegic.value.DoubleValue
19.559

@<SCITEGIC>MOL_PROPERTY
VdW
SciTegic.value.DoubleValue
0.637

@<SCITEGIC>MOL_PROPERTY
VdW6
SciTegic.value.DoubleValue
-4.482

@<SCITEGIC>MOL_PROPERTY
VdW12
SciTegic.value.DoubleValue
5.119

@<SCITEGIC>MOL_PROPERTY
Bond
SciTegic.value.DoubleValue
0.136

@<SCITEGIC>MOL_PROPERTY
Angle
SciTegic.value.DoubleValue
0.867

@<SCITEGIC>MOL_PROPERTY
Pdih
SciTegic.value.DoubleValue
0.882

@<SCITEGIC>MOL_PROPERTY
Idih
SciTegic.value.DoubleValue
0.000

@<SCITEGIC>MOL_PROPERTY
Tether
SciTegic.value.DoubleValue
0.000

@<TRIPOS>MOLECULE
guest-s10_confgen4.mol2 : confsearch ligand conformer 872
          20          19           1
SMALL
USER_CHARGES
 
@<TRIPOS>ATOM
       1    N1      17.570874   18.082071   22.181820 N.4        1 MOL1        -0.5937
       2    H1      16.972244   18.883646   22.398557 H          1 MOL1         0.3684
       3    H2      17.482317   17.416103   22.953423 H          1 MOL1         0.3684
       4    H3      17.184338   17.633402   21.346975 H          1 MOL1         0.3684
       5    C1      19.001167   18.497454   21.971617 C.3        1 MOL1         0.1270
       6    H4      18.997674   19.200727   21.133011 H          1 MOL1         0.0960
       7    C2      19.858879   17.279773   21.581252 C.3        1 MOL1        -0.2382
       8    H5      19.413081   16.749998   20.730474 H          1 MOL1         0.1009
       9    H6      19.945933   16.571641   22.414649 H          1 MOL1         0.1009
      10    H7      20.868346   17.582394   21.280221 H          1 MOL1         0.1009
      11    C3      19.559386   19.229532   23.214172 C.3        1 MOL1        -0.1392
      12    H8      18.848477   20.014867   23.503168 H          1 MOL1         0.0998
      13    H9      19.613094   18.532455   24.060959 H          1 MOL1         0.0998
      14    C4      20.945243   19.881110   22.986115 C.3        1 MOL1        -0.1302
      15    H10     20.908197   20.530677   22.100249 H          1 MOL1         0.0998
      16    H11     21.700550   19.109912   22.784458 H          1 MOL1         0.0998
      17    C5      21.393506   20.709539   24.209409 C.3        1 MOL1        -0.2317
      18    H12     20.684837   21.521390   24.418988 H          1 MOL1         0.1009
      19    H13     22.378432   21.160773   24.032219 H          1 MOL1         0.1009
      20    H14     21.467881   20.080777   25.106285 H          1 MOL1         0.1009
@<TRIPOS>BOND
    1     1     2    1
    2     1     3    1
    3     1     4    1
    4     1     5    1
    5     5     6    1
    6     5     7    1
    7     7     8    1
    8     7     9    1
    9     7    10    1
   10     5    11    1
   11    11    12    1
   12    11    13    1
   13    11    14    1
   14    14    15    1
   15    14    16    1
   16    14    17    1
   17    17    18    1
   18    17    19    1
   19    17    20    1
@<TRIPOS>SUBSTRUCTURE
       1 MOL1            1 RESIDUE      1      MOL     
@<SCITEGIC>MOL_PROPERTY
VConf Rank
SciTegic.value.IntegerValue
872

@<SCITEGIC>MOL_PROPERTY
Conf_Id
SciTegic.value.IntegerValue
80

@<SCITEGIC>MOL_PROPERTY
Delta U+W
SciTegic.value.DoubleValue
0.460

@<SCITEGIC>MOL_PROPERTY
U+W
SciTegic.value.DoubleValue
-35.817

@<SCITEGIC>MOL_PROPERTY
Grad RMS
SciTegic.value.DoubleValue
0.000000

@<SCITEGIC>MOL_PROPERTY
U
SciTegic.value.DoubleValue
22.495

@<SCITEGIC>MOL_PROPERTY
W
SciTegic.value.DoubleValue
-58.311

@<SCITEGIC>MOL_PROPERTY
W(PB)
SciTegic.value.DoubleValue
-60.259

@<SCITEGIC>MOL_PROPERTY
W(SA)
SciTegic.value.DoubleValue
1.948

@<SCITEGIC>MOL_PROPERTY
Valence
SciTegic.value.DoubleValue
2.419

@<SCITEGIC>MOL_PROPERTY
Coulomb
SciTegic.value.DoubleValue
19.304

@<SCITEGIC>MOL_PROPERTY
VdW
SciTegic.value.DoubleValue
0.772

@<SCITEGIC>MOL_PROPERTY
VdW6
SciTegic.value.DoubleValue
-4.635

@<SCITEGIC>MOL_PROPERTY
VdW12
SciTegic.value.DoubleValue
5.407

@<SCITEGIC>MOL_PROPERTY
Bond
SciTegic.value.DoubleValue
0.149

@<SCITEGIC>MOL_PROPERTY
Angle
SciTegic.value.DoubleValue
1.142

@<SCITEGIC>MOL_PROPERTY
Pdih
SciTegic.value.DoubleValue
1.129

@<SCITEGIC>MOL_PROPERTY
Idih
SciTegic.value.DoubleValue
0.000

@<SCITEGIC>MOL_PROPERTY
Tether
SciTegic.value.DoubleValue
0.000

@<TRIPOS>MOLECULE
guest-s10_confgen4.mol2 : confsearch ligand conformer 873
          20          19           1
SMALL
USER_CHARGES
 
@<TRIPOS>ATOM
       1    N1      22.151062   18.970921   22.602596 N.4        1 MOL1        -0.5937
       2    H1      22.465046   19.163788   21.647595 H          1 MOL1         0.3684
       3    H2      22.283883   17.970884   22.772816 H          1 MOL1         0.3684
       4    H3      22.780106   19.473192   23.234769 H          1 MOL1         0.3684
       5    C1      20.718765   19.380896   22.810430 C.3        1 MOL1         0.1270
       6    H4      20.676538   20.456644   22.613493 H          1 MOL1         0.0960
       7    C2      20.304780   19.146205   24.273233 C.3        1 MOL1        -0.2382
       8    H5      21.037043   19.589540   24.959082 H          1 MOL1         0.1009
       9    H6      20.230783   18.075277   24.499266 H          1 MOL1         0.1009
      10    H7      19.338327   19.616188   24.487923 H          1 MOL1         0.1009
      11    C3      19.785246   18.670782   21.799680 C.3        1 MOL1        -0.1392
      12    H8      20.180417   18.865099   20.793811 H          1 MOL1         0.0998
      13    H9      19.837026   17.582364   21.935312 H          1 MOL1         0.0998
      14    C4      18.308177   19.145338   21.826252 C.3        1 MOL1        -0.1302
      15    H10     17.923259   19.150188   20.796722 H          1 MOL1         0.0998
      16    H11     18.247241   20.185858   22.174923 H          1 MOL1         0.0998
      17    C5      17.385879   18.237922   22.674189 C.3        1 MOL1        -0.2317
      18    H12     17.381933   17.211080   22.285993 H          1 MOL1         0.1009
      19    H13     16.352571   18.607341   22.646116 H          1 MOL1         0.1009
      20    H14     17.695756   18.199552   23.724449 H          1 MOL1         0.1009
@<TRIPOS>BOND
    1     1     2    1
    2     1     3    1
    3     1     4    1
    4     1     5    1
    5     5     6    1
    6     5     7    1
    7     7     8    1
    8     7     9    1
    9     7    10    1
   10     5    11    1
   11    11    12    1
   12    11    13    1
   13    11    14    1
   14    14    15    1
   15    14    16    1
   16    14    17    1
   17    17    18    1
   18    17    19    1
   19    17    20    1
@<TRIPOS>SUBSTRUCTURE
       1 MOL1            1 RESIDUE      1      MOL     
@<SCITEGIC>MOL_PROPERTY
VConf Rank
SciTegic.value.IntegerValue
873

@<SCITEGIC>MOL_PROPERTY
Conf_Id
SciTegic.value.IntegerValue
52

@<SCITEGIC>MOL_PROPERTY
Delta U+W
SciTegic.value.DoubleValue
2.995

@<SCITEGIC>MOL_PROPERTY
U+W
SciTegic.value.DoubleValue
-33.282

@<SCITEGIC>MOL_PROPERTY
Grad RMS
SciTegic.value.DoubleValue
0.000000

@<SCITEGIC>MOL_PROPERTY
U
SciTegic.value.DoubleValue
25.224

@<SCITEGIC>MOL_PROPERTY
W
SciTegic.value.DoubleValue
-58.506

@<SCITEGIC>MOL_PROPERTY
W(PB)
SciTegic.value.DoubleValue
-60.411

@<SCITEGIC>MOL_PROPERTY
W(SA)
SciTegic.value.DoubleValue
1.905

@<SCITEGIC>MOL_PROPERTY
Valence
SciTegic.value.DoubleValue
4.945

@<SCITEGIC>MOL_PROPERTY
Coulomb
SciTegic.value.DoubleValue
19.467

@<SCITEGIC>MOL_PROPERTY
VdW
SciTegic.value.DoubleValue
0.813

@<SCITEGIC>MOL_PROPERTY
VdW6
SciTegic.value.DoubleValue
-5.458

@<SCITEGIC>MOL_PROPERTY
VdW12
SciTegic.value.DoubleValue
6.270

@<SCITEGIC>MOL_PROPERTY
Bond
SciTegic.value.DoubleValue
0.200

@<SCITEGIC>MOL_PROPERTY
Angle
SciTegic.value.DoubleValue
1.675

@<SCITEGIC>MOL_PROPERTY
Pdih
SciTegic.value.DoubleValue
3.070

@<SCITEGIC>MOL_PROPERTY
Idih
SciTegic.value.DoubleValue
0.000

@<SCITEGIC>MOL_PROPERTY
Tether
SciTegic.value.DoubleValue
0.000

@<TRIPOS>MOLECULE
guest-s10_confgen4.mol2 : confsearch ligand conformer 874
          20          19           1
SMALL
USER_CHARGES
 
@<TRIPOS>ATOM
       1    N1      19.983591   20.361306   23.617965 N.4        1 MOL1        -0.5937
       2    H1      20.356112   20.030467   24.511358 H          1 MOL1         0.3684
       3    H2      19.593358   21.294294   23.775758 H          1 MOL1         0.3684
       4    H3      20.772576   20.460937   22.975655 H          1 MOL1         0.3684
       5    C1      18.949854   19.415222   23.070641 C.3        1 MOL1         0.1270
       6    H4      18.565713   19.857378   22.146158 H          1 MOL1         0.0960
       7    C2      17.782306   19.287195   24.063718 C.3        1 MOL1        -0.2382
       8    H5      18.111034   18.832574   25.006647 H          1 MOL1         0.1009
       9    H6      16.979967   18.666220   23.646241 H          1 MOL1         0.1009
      10    H7      17.354379   20.271652   24.289680 H          1 MOL1         0.1009
      11    C3      19.530184   18.020043   22.737585 C.3        1 MOL1        -0.1392
      12    H8      20.144200   17.660531   23.573832 H          1 MOL1         0.0998
      13    H9      18.699188   17.307635   22.648112 H          1 MOL1         0.0998
      14    C4      20.336393   17.950126   21.414049 C.3        1 MOL1        -0.1302
      15    H10     19.699955   18.266618   20.575709 H          1 MOL1         0.0998
      16    H11     20.587925   16.897591   21.221882 H          1 MOL1         0.0998
      17    C5      21.645404   18.772101   21.406806 C.3        1 MOL1        -0.2317
      18    H12     22.250245   18.513387   20.527874 H          1 MOL1         0.1009
      19    H13     22.251402   18.566403   22.298866 H          1 MOL1         0.1009
      20    H14     21.446605   19.848591   21.351240 H          1 MOL1         0.1009
@<TRIPOS>BOND
    1     1     2    1
    2     1     3    1
    3     1     4    1
    4     1     5    1
    5     5     6    1
    6     5     7    1
    7     7     8    1
    8     7     9    1
    9     7    10    1
   10     5    11    1
   11    11    12    1
   12    11    13    1
   13    11    14    1
   14    14    15    1
   15    14    16    1
   16    14    17    1
   17    17    18    1
   18    17    19    1
   19    17    20    1
@<TRIPOS>SUBSTRUCTURE
       1 MOL1            1 RESIDUE      1      MOL     
@<SCITEGIC>MOL_PROPERTY
VConf Rank
SciTegic.value.IntegerValue
874

@<SCITEGIC>MOL_PROPERTY
Conf_Id
SciTegic.value.IntegerValue
54

@<SCITEGIC>MOL_PROPERTY
Delta U+W
SciTegic.value.DoubleValue
2.752

@<SCITEGIC>MOL_PROPERTY
U+W
SciTegic.value.DoubleValue
-33.525

@<SCITEGIC>MOL_PROPERTY
Grad RMS
SciTegic.value.DoubleValue
0.000000

@<SCITEGIC>MOL_PROPERTY
U
SciTegic.value.DoubleValue
24.337

@<SCITEGIC>MOL_PROPERTY
W
SciTegic.value.DoubleValue
-57.862

@<SCITEGIC>MOL_PROPERTY
W(PB)
SciTegic.value.DoubleValue
-59.764

@<SCITEGIC>MOL_PROPERTY
W(SA)
SciTegic.value.DoubleValue
1.901

@<SCITEGIC>MOL_PROPERTY
Valence
SciTegic.value.DoubleValue
3.593

@<SCITEGIC>MOL_PROPERTY
Coulomb
SciTegic.value.DoubleValue
20.067

@<SCITEGIC>MOL_PROPERTY
VdW
SciTegic.value.DoubleValue
0.677

@<SCITEGIC>MOL_PROPERTY
VdW6
SciTegic.value.DoubleValue
-5.466

@<SCITEGIC>MOL_PROPERTY
VdW12
SciTegic.value.DoubleValue
6.144

@<SCITEGIC>MOL_PROPERTY
Bond
SciTegic.value.DoubleValue
0.191

@<SCITEGIC>MOL_PROPERTY
Angle
SciTegic.value.DoubleValue
1.557

@<SCITEGIC>MOL_PROPERTY
Pdih
SciTegic.value.DoubleValue
1.845

@<SCITEGIC>MOL_PROPERTY
Idih
SciTegic.value.DoubleValue
0.000

@<SCITEGIC>MOL_PROPERTY
Tether
SciTegic.value.DoubleValue
0.000

@<TRIPOS>MOLECULE
guest-s10_confgen4.mol2 : confsearch ligand conformer 875
          20          19           1
SMALL
USER_CHARGES
 
@<TRIPOS>ATOM
       1    N1      18.153758   17.741076   22.222942 N.4        1 MOL1        -0.5937
       2    H1      17.150479   17.731570   22.020470 H          1 MOL1         0.3684
       3    H2      18.384109   16.844009   22.658742 H          1 MOL1         0.3684
       4    H3      18.645523   17.783044   21.327479 H          1 MOL1         0.3684
       5    C1      18.525659   18.898481   23.109502 C.3        1 MOL1         0.1270
       6    H4      17.941759   18.776556   24.027227 H          1 MOL1         0.0960
       7    C2      18.113759   20.237657   22.472488 C.3        1 MOL1        -0.2382
       8    H5      18.388149   21.078888   23.120958 H          1 MOL1         0.1009
       9    H6      17.027593   20.273658   22.324048 H          1 MOL1         0.1009
      10    H7      18.589755   20.386502   21.496110 H          1 MOL1         0.1009
      11    C3      20.019909   18.880800   23.511942 C.3        1 MOL1        -0.1392
      12    H8      20.202558   19.694303   24.226497 H          1 MOL1         0.0998
      13    H9      20.221189   17.949823   24.057996 H          1 MOL1         0.0998
      14    C4      21.017351   19.003463   22.331092 C.3        1 MOL1        -0.1302
      15    H10     20.865908   19.954240   21.802793 H          1 MOL1         0.0998
      16    H11     20.841811   18.201627   21.601430 H          1 MOL1         0.0998
      17    C5      22.481109   18.930117   22.816233 C.3        1 MOL1        -0.2317
      18    H12     23.174952   19.020439   21.970367 H          1 MOL1         0.1009
      19    H13     22.684309   17.974593   23.317136 H          1 MOL1         0.1009
      20    H14     22.704436   19.740457   23.522419 H          1 MOL1         0.1009
@<TRIPOS>BOND
    1     1     2    1
    2     1     3    1
    3     1     4    1
    4     1     5    1
    5     5     6    1
    6     5     7    1
    7     7     8    1
    8     7     9    1
    9     7    10    1
   10     5    11    1
   11    11    12    1
   12    11    13    1
   13    11    14    1
   14    14    15    1
   15    14    16    1
   16    14    17    1
   17    17    18    1
   18    17    19    1
   19    17    20    1
@<TRIPOS>SUBSTRUCTURE
       1 MOL1            1 RESIDUE      1      MOL     
@<SCITEGIC>MOL_PROPERTY
VConf Rank
SciTegic.value.IntegerValue
875

@<SCITEGIC>MOL_PROPERTY
Conf_Id
SciTegic.value.IntegerValue
63

@<SCITEGIC>MOL_PROPERTY
Delta U+W
SciTegic.value.DoubleValue
0.420

@<SCITEGIC>MOL_PROPERTY
U+W
SciTegic.value.DoubleValue
-35.856

@<SCITEGIC>MOL_PROPERTY
Grad RMS
SciTegic.value.DoubleValue
0.000000

@<SCITEGIC>MOL_PROPERTY
U
SciTegic.value.DoubleValue
22.625

@<SCITEGIC>MOL_PROPERTY
W
SciTegic.value.DoubleValue
-58.481

@<SCITEGIC>MOL_PROPERTY
W(PB)
SciTegic.value.DoubleValue
-60.400

@<SCITEGIC>MOL_PROPERTY
W(SA)
SciTegic.value.DoubleValue
1.919

@<SCITEGIC>MOL_PROPERTY
Valence
SciTegic.value.DoubleValue
2.404

@<SCITEGIC>MOL_PROPERTY
Coulomb
SciTegic.value.DoubleValue
19.464

@<SCITEGIC>MOL_PROPERTY
VdW
SciTegic.value.DoubleValue
0.757

@<SCITEGIC>MOL_PROPERTY
VdW6
SciTegic.value.DoubleValue
-5.074

@<SCITEGIC>MOL_PROPERTY
VdW12
SciTegic.value.DoubleValue
5.830

@<SCITEGIC>MOL_PROPERTY
Bond
SciTegic.value.DoubleValue
0.172

@<SCITEGIC>MOL_PROPERTY
Angle
SciTegic.value.DoubleValue
1.207

@<SCITEGIC>MOL_PROPERTY
Pdih
SciTegic.value.DoubleValue
1.025

@<SCITEGIC>MOL_PROPERTY
Idih
SciTegic.value.DoubleValue
0.000

@<SCITEGIC>MOL_PROPERTY
Tether
SciTegic.value.DoubleValue
0.000

@<TRIPOS>MOLECULE
guest-s10_confgen4.mol2 : confsearch ligand conformer 876
          20          19           1
SMALL
USER_CHARGES
 
@<TRIPOS>ATOM
       1    N1      18.903867   18.828313   24.344559 N.4        1 MOL1        -0.5937
       2    H1      18.824383   19.847398   24.299598 H          1 MOL1         0.3684
       3    H2      19.596389   18.604765   25.063490 H          1 MOL1         0.3684
       4    H3      18.002173   18.465158   24.664885 H          1 MOL1         0.3684
       5    C1      19.288968   18.250483   23.009648 C.3        1 MOL1         0.1270
       6    H4      18.500029   18.531633   22.305618 H          1 MOL1         0.0960
       7    C2      19.344253   16.715618   23.077816 C.3        1 MOL1        -0.2382
       8    H5      18.382221   16.306710   23.410271 H          1 MOL1         0.1009
       9    H6      20.119419   16.376256   23.776174 H          1 MOL1         0.1009
      10    H7      19.563300   16.289325   22.090945 H          1 MOL1         0.1009
      11    C3      20.629350   18.814473   22.485937 C.3        1 MOL1        -0.1392
      12    H8      21.437790   18.528323   23.171778 H          1 MOL1         0.0998
      13    H9      20.863423   18.342413   21.522455 H          1 MOL1         0.0998
      14    C4      20.642174   20.353193   22.301349 C.3        1 MOL1        -0.1302
      15    H10     21.632306   20.655748   21.932563 H          1 MOL1         0.0998
      16    H11     20.515936   20.853392   23.271107 H          1 MOL1         0.0998
      17    C5      19.565054   20.853774   21.312108 C.3        1 MOL1        -0.2317
      18    H12     19.671221   20.367055   20.333837 H          1 MOL1         0.1009
      19    H13     19.657668   21.936779   21.158510 H          1 MOL1         0.1009
      20    H14     18.551433   20.658324   21.683952 H          1 MOL1         0.1009
@<TRIPOS>BOND
    1     1     2    1
    2     1     3    1
    3     1     4    1
    4     1     5    1
    5     5     6    1
    6     5     7    1
    7     7     8    1
    8     7     9    1
    9     7    10    1
   10     5    11    1
   11    11    12    1
   12    11    13    1
   13    11    14    1
   14    14    15    1
   15    14    16    1
   16    14    17    1
   17    17    18    1
   18    17    19    1
   19    17    20    1
@<TRIPOS>SUBSTRUCTURE
       1 MOL1            1 RESIDUE      1      MOL     
@<SCITEGIC>MOL_PROPERTY
VConf Rank
SciTegic.value.IntegerValue
876

@<SCITEGIC>MOL_PROPERTY
Conf_Id
SciTegic.value.IntegerValue
50

@<SCITEGIC>MOL_PROPERTY
Delta U+W
SciTegic.value.DoubleValue
0.466

@<SCITEGIC>MOL_PROPERTY
U+W
SciTegic.value.DoubleValue
-35.811

@<SCITEGIC>MOL_PROPERTY
Grad RMS
SciTegic.value.DoubleValue
0.000000

@<SCITEGIC>MOL_PROPERTY
U
SciTegic.value.DoubleValue
22.369

@<SCITEGIC>MOL_PROPERTY
W
SciTegic.value.DoubleValue
-58.180

@<SCITEGIC>MOL_PROPERTY
W(PB)
SciTegic.value.DoubleValue
-60.103

@<SCITEGIC>MOL_PROPERTY
W(SA)
SciTegic.value.DoubleValue
1.923

@<SCITEGIC>MOL_PROPERTY
Valence
SciTegic.value.DoubleValue
2.168

@<SCITEGIC>MOL_PROPERTY
Coulomb
SciTegic.value.DoubleValue
19.636

@<SCITEGIC>MOL_PROPERTY
VdW
SciTegic.value.DoubleValue
0.566

@<SCITEGIC>MOL_PROPERTY
VdW6
SciTegic.value.DoubleValue
-5.263

@<SCITEGIC>MOL_PROPERTY
VdW12
SciTegic.value.DoubleValue
5.829

@<SCITEGIC>MOL_PROPERTY
Bond
SciTegic.value.DoubleValue
0.162

@<SCITEGIC>MOL_PROPERTY
Angle
SciTegic.value.DoubleValue
1.066

@<SCITEGIC>MOL_PROPERTY
Pdih
SciTegic.value.DoubleValue
0.939

@<SCITEGIC>MOL_PROPERTY
Idih
SciTegic.value.DoubleValue
0.000

@<SCITEGIC>MOL_PROPERTY
Tether
SciTegic.value.DoubleValue
0.000

@<TRIPOS>MOLECULE
guest-s10_confgen4.mol2 : confsearch ligand conformer 877
          20          19           1
SMALL
USER_CHARGES
 
@<TRIPOS>ATOM
       1    N1      18.405883   20.641283   23.547779 N.4        1 MOL1        -0.5937
       2    H1      17.459999   20.255602   23.615218 H          1 MOL1         0.3684
       3    H2      18.395638   21.353356   22.813123 H          1 MOL1         0.3684
       4    H3      18.601147   21.118996   24.431747 H          1 MOL1         0.3684
       5    C1      19.423447   19.569388   23.264608 C.3        1 MOL1         0.1270
       6    H4      19.357671   18.859794   24.095217 H          1 MOL1         0.0960
       7    C2      20.838182   20.177777   23.245810 C.3        1 MOL1        -0.2382
       8    H5      20.933571   20.931985   22.454774 H          1 MOL1         0.1009
       9    H6      21.603461   19.412944   23.075028 H          1 MOL1         0.1009
      10    H7      21.063206   20.661827   24.204032 H          1 MOL1         0.1009
      11    C3      19.110404   18.806861   21.953582 C.3        1 MOL1        -0.1392
      12    H8      18.066508   18.994297   21.669292 H          1 MOL1         0.0998
      13    H9      19.716838   19.200221   21.126830 H          1 MOL1         0.0998
      14    C4      19.289937   17.271390   22.062570 C.3        1 MOL1        -0.1302
      15    H10     18.972052   16.812962   21.115614 H          1 MOL1         0.0998
      16    H11     18.614408   16.876444   22.834425 H          1 MOL1         0.0998
      17    C5      20.736227   16.824229   22.370025 C.3        1 MOL1        -0.2317
      18    H12     21.443028   17.238629   21.639456 H          1 MOL1         0.1009
      19    H13     20.816039   15.730153   22.329173 H          1 MOL1         0.1009
      20    H14     21.048034   17.137905   23.374024 H          1 MOL1         0.1009
@<TRIPOS>BOND
    1     1     2    1
    2     1     3    1
    3     1     4    1
    4     1     5    1
    5     5     6    1
    6     5     7    1
    7     7     8    1
    8     7     9    1
    9     7    10    1
   10     5    11    1
   11    11    12    1
   12    11    13    1
   13    11    14    1
   14    14    15    1
   15    14    16    1
   16    14    17    1
   17    17    18    1
   18    17    19    1
   19    17    20    1
@<TRIPOS>SUBSTRUCTURE
       1 MOL1            1 RESIDUE      1      MOL     
@<SCITEGIC>MOL_PROPERTY
VConf Rank
SciTegic.value.IntegerValue
877

@<SCITEGIC>MOL_PROPERTY
Conf_Id
SciTegic.value.IntegerValue
3

@<SCITEGIC>MOL_PROPERTY
Delta U+W
SciTegic.value.DoubleValue
3.093

@<SCITEGIC>MOL_PROPERTY
U+W
SciTegic.value.DoubleValue
-33.184

@<SCITEGIC>MOL_PROPERTY
Grad RMS
SciTegic.value.DoubleValue
0.000000

@<SCITEGIC>MOL_PROPERTY
U
SciTegic.value.DoubleValue
25.256

@<SCITEGIC>MOL_PROPERTY
W
SciTegic.value.DoubleValue
-58.439

@<SCITEGIC>MOL_PROPERTY
W(PB)
SciTegic.value.DoubleValue
-60.337

@<SCITEGIC>MOL_PROPERTY
W(SA)
SciTegic.value.DoubleValue
1.898

@<SCITEGIC>MOL_PROPERTY
Valence
SciTegic.value.DoubleValue
4.963

@<SCITEGIC>MOL_PROPERTY
Coulomb
SciTegic.value.DoubleValue
19.511

@<SCITEGIC>MOL_PROPERTY
VdW
SciTegic.value.DoubleValue
0.782

@<SCITEGIC>MOL_PROPERTY
VdW6
SciTegic.value.DoubleValue
-5.429

@<SCITEGIC>MOL_PROPERTY
VdW12
SciTegic.value.DoubleValue
6.211

@<SCITEGIC>MOL_PROPERTY
Bond
SciTegic.value.DoubleValue
0.174

@<SCITEGIC>MOL_PROPERTY
Angle
SciTegic.value.DoubleValue
1.377

@<SCITEGIC>MOL_PROPERTY
Pdih
SciTegic.value.DoubleValue
3.412

@<SCITEGIC>MOL_PROPERTY
Idih
SciTegic.value.DoubleValue
0.000

@<SCITEGIC>MOL_PROPERTY
Tether
SciTegic.value.DoubleValue
0.000

@<TRIPOS>MOLECULE
guest-s10_confgen4.mol2 : confsearch ligand conformer 878
          20          19           1
SMALL
USER_CHARGES
 
@<TRIPOS>ATOM
       1    N1      20.508407   16.832211   22.491966 N.4        1 MOL1        -0.5937
       2    H1      20.705584   16.204510   23.276024 H          1 MOL1         0.3684
       3    H2      21.392423   16.988527   22.000120 H          1 MOL1         0.3684
       4    H3      19.885927   16.332689   21.851903 H          1 MOL1         0.3684
       5    C1      19.897664   18.124327   22.960806 C.3        1 MOL1         0.1270
       6    H4      20.627073   18.580690   23.636670 H          1 MOL1         0.0960
       7    C2      18.606302   17.849925   23.752759 C.3        1 MOL1        -0.2382
       8    H5      18.223927   18.765099   24.219429 H          1 MOL1         0.1009
       9    H6      18.792292   17.128606   24.557892 H          1 MOL1         0.1009
      10    H7      17.821857   17.441019   23.103968 H          1 MOL1         0.1009
      11    C3      19.659046   19.092701   21.777699 C.3        1 MOL1        -0.1392
      12    H8      20.591868   19.185553   21.206080 H          1 MOL1         0.0998
      13    H9      18.923759   18.653006   21.090853 H          1 MOL1         0.0998
      14    C4      19.189780   20.514578   22.179143 C.3        1 MOL1        -0.1302
      15    H10     18.192288   20.472241   22.636845 H          1 MOL1         0.0998
      16    H11     19.076023   21.117928   21.267624 H          1 MOL1         0.0998
      17    C5      20.172745   21.230064   23.133611 C.3        1 MOL1        -0.2317
      18    H12     21.179045   21.282049   22.697932 H          1 MOL1         0.1009
      19    H13     20.243011   20.715368   24.100159 H          1 MOL1         0.1009
      20    H14     19.839284   22.257373   23.329720 H          1 MOL1         0.1009
@<TRIPOS>BOND
    1     1     2    1
    2     1     3    1
    3     1     4    1
    4     1     5    1
    5     5     6    1
    6     5     7    1
    7     7     8    1
    8     7     9    1
    9     7    10    1
   10     5    11    1
   11    11    12    1
   12    11    13    1
   13    11    14    1
   14    14    15    1
   15    14    16    1
   16    14    17    1
   17    17    18    1
   18    17    19    1
   19    17    20    1
@<TRIPOS>SUBSTRUCTURE
       1 MOL1            1 RESIDUE      1      MOL     
@<SCITEGIC>MOL_PROPERTY
VConf Rank
SciTegic.value.IntegerValue
878

@<SCITEGIC>MOL_PROPERTY
Conf_Id
SciTegic.value.IntegerValue
64

@<SCITEGIC>MOL_PROPERTY
Delta U+W
SciTegic.value.DoubleValue
0.544

@<SCITEGIC>MOL_PROPERTY
U+W
SciTegic.value.DoubleValue
-35.732

@<SCITEGIC>MOL_PROPERTY
Grad RMS
SciTegic.value.DoubleValue
0.000000

@<SCITEGIC>MOL_PROPERTY
U
SciTegic.value.DoubleValue
22.800

@<SCITEGIC>MOL_PROPERTY
W
SciTegic.value.DoubleValue
-58.532

@<SCITEGIC>MOL_PROPERTY
W(PB)
SciTegic.value.DoubleValue
-60.437

@<SCITEGIC>MOL_PROPERTY
W(SA)
SciTegic.value.DoubleValue
1.905

@<SCITEGIC>MOL_PROPERTY
Valence
SciTegic.value.DoubleValue
2.662

@<SCITEGIC>MOL_PROPERTY
Coulomb
SciTegic.value.DoubleValue
19.485

@<SCITEGIC>MOL_PROPERTY
VdW
SciTegic.value.DoubleValue
0.653

@<SCITEGIC>MOL_PROPERTY
VdW6
SciTegic.value.DoubleValue
-5.460

@<SCITEGIC>MOL_PROPERTY
VdW12
SciTegic.value.DoubleValue
6.113

@<SCITEGIC>MOL_PROPERTY
Bond
SciTegic.value.DoubleValue
0.174

@<SCITEGIC>MOL_PROPERTY
Angle
SciTegic.value.DoubleValue
1.378

@<SCITEGIC>MOL_PROPERTY
Pdih
SciTegic.value.DoubleValue
1.109

@<SCITEGIC>MOL_PROPERTY
Idih
SciTegic.value.DoubleValue
0.000

@<SCITEGIC>MOL_PROPERTY
Tether
SciTegic.value.DoubleValue
0.000

@<TRIPOS>MOLECULE
guest-s10_confgen4.mol2 : confsearch ligand conformer 879
          20          19           1
SMALL
USER_CHARGES
 
@<TRIPOS>ATOM
       1    N1      18.796985   20.710052   22.167482 N.4        1 MOL1        -0.5937
       2    H1      18.258408   20.011516   21.650515 H          1 MOL1         0.3684
       3    H2      19.009587   21.473135   21.519319 H          1 MOL1         0.3684
       4    H3      18.186856   21.091387   22.895483 H          1 MOL1         0.3684
       5    C1      20.051529   20.117703   22.750642 C.3        1 MOL1         0.1270
       6    H4      20.557295   20.938653   23.268528 H          1 MOL1         0.0960
       7    C2      20.993538   19.626244   21.639422 C.3        1 MOL1        -0.2382
       8    H5      20.500907   18.892591   20.990749 H          1 MOL1         0.1009
       9    H6      21.894506   19.167546   22.065087 H          1 MOL1         0.1009
      10    H7      21.313452   20.465491   21.009906 H          1 MOL1         0.1009
      11    C3      19.751402   19.030495   23.813112 C.3        1 MOL1        -0.1392
      12    H8      20.681842   18.758311   24.328568 H          1 MOL1         0.0998
      13    H9      19.119436   19.490939   24.583886 H          1 MOL1         0.0998
      14    C4      19.038191   17.748110   23.301211 C.3        1 MOL1        -0.1302
      15    H10     18.382702   17.977230   22.450789 H          1 MOL1         0.0998
      16    H11     18.376696   17.378903   24.097511 H          1 MOL1         0.0998
      17    C5      20.012434   16.605479   22.929739 C.3        1 MOL1        -0.2317
      18    H12     20.680154   16.882333   22.106648 H          1 MOL1         0.1009
      19    H13     19.454934   15.713145   22.616849 H          1 MOL1         0.1009
      20    H14     20.633761   16.323681   23.789730 H          1 MOL1         0.1009
@<TRIPOS>BOND
    1     1     2    1
    2     1     3    1
    3     1     4    1
    4     1     5    1
    5     5     6    1
    6     5     7    1
    7     7     8    1
    8     7     9    1
    9     7    10    1
   10     5    11    1
   11    11    12    1
   12    11    13    1
   13    11    14    1
   14    14    15    1
   15    14    16    1
   16    14    17    1
   17    17    18    1
   18    17    19    1
   19    17    20    1
@<TRIPOS>SUBSTRUCTURE
       1 MOL1            1 RESIDUE      1      MOL     
@<SCITEGIC>MOL_PROPERTY
VConf Rank
SciTegic.value.IntegerValue
879

@<SCITEGIC>MOL_PROPERTY
Conf_Id
SciTegic.value.IntegerValue
35

@<SCITEGIC>MOL_PROPERTY
Delta U+W
SciTegic.value.DoubleValue
3.004

@<SCITEGIC>MOL_PROPERTY
U+W
SciTegic.value.DoubleValue
-33.272

@<SCITEGIC>MOL_PROPERTY
Grad RMS
SciTegic.value.DoubleValue
0.000000

@<SCITEGIC>MOL_PROPERTY
U
SciTegic.value.DoubleValue
25.367

@<SCITEGIC>MOL_PROPERTY
W
SciTegic.value.DoubleValue
-58.639

@<SCITEGIC>MOL_PROPERTY
W(PB)
SciTegic.value.DoubleValue
-60.512

@<SCITEGIC>MOL_PROPERTY
W(SA)
SciTegic.value.DoubleValue
1.873

@<SCITEGIC>MOL_PROPERTY
Valence
SciTegic.value.DoubleValue
4.943

@<SCITEGIC>MOL_PROPERTY
Coulomb
SciTegic.value.DoubleValue
19.661

@<SCITEGIC>MOL_PROPERTY
VdW
SciTegic.value.DoubleValue
0.764

@<SCITEGIC>MOL_PROPERTY
VdW6
SciTegic.value.DoubleValue
-5.871

@<SCITEGIC>MOL_PROPERTY
VdW12
SciTegic.value.DoubleValue
6.636

@<SCITEGIC>MOL_PROPERTY
Bond
SciTegic.value.DoubleValue
0.230

@<SCITEGIC>MOL_PROPERTY
Angle
SciTegic.value.DoubleValue
1.857

@<SCITEGIC>MOL_PROPERTY
Pdih
SciTegic.value.DoubleValue
2.855

@<SCITEGIC>MOL_PROPERTY
Idih
SciTegic.value.DoubleValue
0.000

@<SCITEGIC>MOL_PROPERTY
Tether
SciTegic.value.DoubleValue
0.000

@<TRIPOS>MOLECULE
guest-s10_confgen4.mol2 : confsearch ligand conformer 880
          20          19           1
SMALL
USER_CHARGES
 
@<TRIPOS>ATOM
       1    N1      21.433159   19.172639   22.002487 N.4        1 MOL1        -0.5937
       2    H1      22.310614   19.646078   22.233851 H          1 MOL1         0.3684
       3    H2      21.461541   18.949474   21.004002 H          1 MOL1         0.3684
       4    H3      21.414229   18.287912   22.513268 H          1 MOL1         0.3684
       5    C1      20.240431   20.023486   22.342962 C.3        1 MOL1         0.1270
       6    H4      20.343456   20.924411   21.730062 H          1 MOL1         0.0960
       7    C2      20.268892   20.466320   23.816596 C.3        1 MOL1        -0.2382
       8    H5      20.263570   19.607109   24.497789 H          1 MOL1         0.1009
       9    H6      19.401780   21.096403   24.050115 H          1 MOL1         0.1009
      10    H7      21.171923   21.053220   24.024083 H          1 MOL1         0.1009
      11    C3      18.892972   19.365528   21.949569 C.3        1 MOL1        -0.1392
      12    H8      18.129304   20.154316   21.936670 H          1 MOL1         0.0998
      13    H9      18.960462   19.009438   20.913296 H          1 MOL1         0.0998
      14    C4      18.370793   18.214096   22.854074 C.3        1 MOL1        -0.1302
      15    H10     17.393806   17.894122   22.465568 H          1 MOL1         0.0998
      16    H11     18.176369   18.585509   23.869398 H          1 MOL1         0.0998
      17    C5      19.294500   16.976690   22.921262 C.3        1 MOL1        -0.2317
      18    H12     19.575711   16.634498   21.916789 H          1 MOL1         0.1009
      19    H13     18.781148   16.146446   23.423592 H          1 MOL1         0.1009
      20    H14     20.205949   17.183850   23.493637 H          1 MOL1         0.1009
@<TRIPOS>BOND
    1     1     2    1
    2     1     3    1
    3     1     4    1
    4     1     5    1
    5     5     6    1
    6     5     7    1
    7     7     8    1
    8     7     9    1
    9     7    10    1
   10     5    11    1
   11    11    12    1
   12    11    13    1
   13    11    14    1
   14    14    15    1
   15    14    16    1
   16    14    17    1
   17    17    18    1
   18    17    19    1
   19    17    20    1
@<TRIPOS>SUBSTRUCTURE
       1 MOL1            1 RESIDUE      1      MOL     
@<SCITEGIC>MOL_PROPERTY
VConf Rank
SciTegic.value.IntegerValue
880

@<SCITEGIC>MOL_PROPERTY
Conf_Id
SciTegic.value.IntegerValue
55

@<SCITEGIC>MOL_PROPERTY
Delta U+W
SciTegic.value.DoubleValue
2.767

@<SCITEGIC>MOL_PROPERTY
U+W
SciTegic.value.DoubleValue
-33.509

@<SCITEGIC>MOL_PROPERTY
Grad RMS
SciTegic.value.DoubleValue
0.000000

@<SCITEGIC>MOL_PROPERTY
U
SciTegic.value.DoubleValue
24.552

@<SCITEGIC>MOL_PROPERTY
W
SciTegic.value.DoubleValue
-58.061

@<SCITEGIC>MOL_PROPERTY
W(PB)
SciTegic.value.DoubleValue
-59.930

@<SCITEGIC>MOL_PROPERTY
W(SA)
SciTegic.value.DoubleValue
1.869

@<SCITEGIC>MOL_PROPERTY
Valence
SciTegic.value.DoubleValue
3.726

@<SCITEGIC>MOL_PROPERTY
Coulomb
SciTegic.value.DoubleValue
20.219

@<SCITEGIC>MOL_PROPERTY
VdW
SciTegic.value.DoubleValue
0.606

@<SCITEGIC>MOL_PROPERTY
VdW6
SciTegic.value.DoubleValue
-6.395

@<SCITEGIC>MOL_PROPERTY
VdW12
SciTegic.value.DoubleValue
7.001

@<SCITEGIC>MOL_PROPERTY
Bond
SciTegic.value.DoubleValue
0.241

@<SCITEGIC>MOL_PROPERTY
Angle
SciTegic.value.DoubleValue
2.098

@<SCITEGIC>MOL_PROPERTY
Pdih
SciTegic.value.DoubleValue
1.387

@<SCITEGIC>MOL_PROPERTY
Idih
SciTegic.value.DoubleValue
0.000

@<SCITEGIC>MOL_PROPERTY
Tether
SciTegic.value.DoubleValue
0.000

@<TRIPOS>MOLECULE
guest-s10_confgen4.mol2 : confsearch ligand conformer 881
          20          19           1
SMALL
USER_CHARGES
 
@<TRIPOS>ATOM
       1    N1      18.709416   20.533028   22.148570 N.4        1 MOL1        -0.5937
       2    H1      19.289617   21.244199   22.600398 H          1 MOL1         0.3684
       3    H2      17.773045   20.930378   22.034642 H          1 MOL1         0.3684
       4    H3      19.088827   20.376321   21.211515 H          1 MOL1         0.3684
       5    C1      18.673636   19.259722   22.950114 C.3        1 MOL1         0.1270
       6    H4      18.040396   18.558016   22.398295 H          1 MOL1         0.0960
       7    C2      18.033412   19.505643   24.326197 C.3        1 MOL1        -0.2382
       8    H5      17.024969   19.923105   24.216507 H          1 MOL1         0.1009
       9    H6      18.630458   20.206667   24.922767 H          1 MOL1         0.1009
      10    H7      17.945117   18.567819   24.888629 H          1 MOL1         0.1009
      11    C3      20.071088   18.622300   23.114335 C.3        1 MOL1        -0.1392
      12    H8      20.734584   19.317592   23.645615 H          1 MOL1         0.0998
      13    H9      19.981049   17.729982   23.748156 H          1 MOL1         0.0998
      14    C4      20.712700   18.213822   21.766374 C.3        1 MOL1        -0.1302
      15    H10     20.865653   19.099280   21.134714 H          1 MOL1         0.0998
      16    H11     20.031896   17.546305   21.219410 H          1 MOL1         0.0998
      17    C5      22.068119   17.504057   21.972231 C.3        1 MOL1        -0.2317
      18    H12     22.781653   18.157928   22.490475 H          1 MOL1         0.1009
      19    H13     22.509116   17.222947   21.007045 H          1 MOL1         0.1009
      20    H14     21.949253   16.588816   22.566736 H          1 MOL1         0.1009
@<TRIPOS>BOND
    1     1     2    1
    2     1     3    1
    3     1     4    1
    4     1     5    1
    5     5     6    1
    6     5     7    1
    7     7     8    1
    8     7     9    1
    9     7    10    1
   10     5    11    1
   11    11    12    1
   12    11    13    1
   13    11    14    1
   14    14    15    1
   15    14    16    1
   16    14    17    1
   17    17    18    1
   18    17    19    1
   19    17    20    1
@<TRIPOS>SUBSTRUCTURE
       1 MOL1            1 RESIDUE      1      MOL     
@<SCITEGIC>MOL_PROPERTY
VConf Rank
SciTegic.value.IntegerValue
881

@<SCITEGIC>MOL_PROPERTY
Conf_Id
SciTegic.value.IntegerValue
74

@<SCITEGIC>MOL_PROPERTY
Delta U+W
SciTegic.value.DoubleValue
0.000

@<SCITEGIC>MOL_PROPERTY
U+W
SciTegic.value.DoubleValue
-36.276

@<SCITEGIC>MOL_PROPERTY
Grad RMS
SciTegic.value.DoubleValue
0.000000

@<SCITEGIC>MOL_PROPERTY
U
SciTegic.value.DoubleValue
22.080

@<SCITEGIC>MOL_PROPERTY
W
SciTegic.value.DoubleValue
-58.356

@<SCITEGIC>MOL_PROPERTY
W(PB)
SciTegic.value.DoubleValue
-60.289

@<SCITEGIC>MOL_PROPERTY
W(SA)
SciTegic.value.DoubleValue
1.932

@<SCITEGIC>MOL_PROPERTY
Valence
SciTegic.value.DoubleValue
1.885

@<SCITEGIC>MOL_PROPERTY
Coulomb
SciTegic.value.DoubleValue
19.559

@<SCITEGIC>MOL_PROPERTY
VdW
SciTegic.value.DoubleValue
0.637

@<SCITEGIC>MOL_PROPERTY
VdW6
SciTegic.value.DoubleValue
-4.482

@<SCITEGIC>MOL_PROPERTY
VdW12
SciTegic.value.DoubleValue
5.119

@<SCITEGIC>MOL_PROPERTY
Bond
SciTegic.value.DoubleValue
0.136

@<SCITEGIC>MOL_PROPERTY
Angle
SciTegic.value.DoubleValue
0.867

@<SCITEGIC>MOL_PROPERTY
Pdih
SciTegic.value.DoubleValue
0.882

@<SCITEGIC>MOL_PROPERTY
Idih
SciTegic.value.DoubleValue
0.000

@<SCITEGIC>MOL_PROPERTY
Tether
SciTegic.value.DoubleValue
0.000

@<TRIPOS>MOLECULE
guest-s10_confgen4.mol2 : confsearch ligand conformer 882
          20          19           1
SMALL
USER_CHARGES
 
@<TRIPOS>ATOM
       1    N1      18.571945   16.949436   22.073183 N.4        1 MOL1        -0.5937
       2    H1      18.842089   16.297044   22.814307 H          1 MOL1         0.3684
       3    H2      19.127294   16.719524   21.245261 H          1 MOL1         0.3684
       4    H3      17.592550   16.758629   21.845024 H          1 MOL1         0.3684
       5    C1      18.771130   18.380157   22.492503 C.3        1 MOL1         0.1270
       6    H4      18.141765   18.533102   23.374758 H          1 MOL1         0.0960
       7    C2      18.291940   19.333498   21.382404 C.3        1 MOL1        -0.2382
       8    H5      17.265760   19.090315   21.080678 H          1 MOL1         0.1009
       9    H6      18.932740   19.263454   20.494683 H          1 MOL1         0.1009
      10    H7      18.289943   20.374971   21.723803 H          1 MOL1         0.1009
      11    C3      20.240495   18.645688   22.894929 C.3        1 MOL1        -0.1392
      12    H8      20.551774   17.868864   23.605782 H          1 MOL1         0.0998
      13    H9      20.889624   18.539945   22.015555 H          1 MOL1         0.0998
      14    C4      20.469449   20.030264   23.548910 C.3        1 MOL1        -0.1302
      15    H10     19.775479   20.161773   24.391038 H          1 MOL1         0.0998
      16    H11     20.253683   20.831816   22.829979 H          1 MOL1         0.0998
      17    C5      21.920334   20.189721   24.052089 C.3        1 MOL1        -0.2317
      18    H12     22.163042   19.430988   24.807507 H          1 MOL1         0.1009
      19    H13     22.065910   21.177223   24.508963 H          1 MOL1         0.1009
      20    H14     22.637514   20.091827   23.226662 H          1 MOL1         0.1009
@<TRIPOS>BOND
    1     1     2    1
    2     1     3    1
    3     1     4    1
    4     1     5    1
    5     5     6    1
    6     5     7    1
    7     7     8    1
    8     7     9    1
    9     7    10    1
   10     5    11    1
   11    11    12    1
   12    11    13    1
   13    11    14    1
   14    14    15    1
   15    14    16    1
   16    14    17    1
   17    17    18    1
   18    17    19    1
   19    17    20    1
@<TRIPOS>SUBSTRUCTURE
       1 MOL1            1 RESIDUE      1      MOL     
@<SCITEGIC>MOL_PROPERTY
VConf Rank
SciTegic.value.IntegerValue
882

@<SCITEGIC>MOL_PROPERTY
Conf_Id
SciTegic.value.IntegerValue
80

@<SCITEGIC>MOL_PROPERTY
Delta U+W
SciTegic.value.DoubleValue
0.460

@<SCITEGIC>MOL_PROPERTY
U+W
SciTegic.value.DoubleValue
-35.817

@<SCITEGIC>MOL_PROPERTY
Grad RMS
SciTegic.value.DoubleValue
0.000000

@<SCITEGIC>MOL_PROPERTY
U
SciTegic.value.DoubleValue
22.495

@<SCITEGIC>MOL_PROPERTY
W
SciTegic.value.DoubleValue
-58.311

@<SCITEGIC>MOL_PROPERTY
W(PB)
SciTegic.value.DoubleValue
-60.259

@<SCITEGIC>MOL_PROPERTY
W(SA)
SciTegic.value.DoubleValue
1.948

@<SCITEGIC>MOL_PROPERTY
Valence
SciTegic.value.DoubleValue
2.419

@<SCITEGIC>MOL_PROPERTY
Coulomb
SciTegic.value.DoubleValue
19.304

@<SCITEGIC>MOL_PROPERTY
VdW
SciTegic.value.DoubleValue
0.772

@<SCITEGIC>MOL_PROPERTY
VdW6
SciTegic.value.DoubleValue
-4.635

@<SCITEGIC>MOL_PROPERTY
VdW12
SciTegic.value.DoubleValue
5.407

@<SCITEGIC>MOL_PROPERTY
Bond
SciTegic.value.DoubleValue
0.149

@<SCITEGIC>MOL_PROPERTY
Angle
SciTegic.value.DoubleValue
1.142

@<SCITEGIC>MOL_PROPERTY
Pdih
SciTegic.value.DoubleValue
1.129

@<SCITEGIC>MOL_PROPERTY
Idih
SciTegic.value.DoubleValue
0.000

@<SCITEGIC>MOL_PROPERTY
Tether
SciTegic.value.DoubleValue
0.000

@<TRIPOS>MOLECULE
guest-s10_confgen4.mol2 : confsearch ligand conformer 883
          20          19           1
SMALL
USER_CHARGES
 
@<TRIPOS>ATOM
       1    N1      20.862914   18.456965   20.640914 N.4        1 MOL1        -0.5937
       2    H1      20.620021   19.163423   19.941106 H          1 MOL1         0.3684
       3    H2      20.323578   17.614571   20.426019 H          1 MOL1         0.3684
       4    H3      21.851452   18.227307   20.508008 H          1 MOL1         0.3684
       5    C1      20.593624   18.943347   22.038649 C.3        1 MOL1         0.1270
       6    H4      21.213148   19.834842   22.177307 H          1 MOL1         0.0960
       7    C2      21.039067   17.887466   23.064785 C.3        1 MOL1        -0.2382
       8    H5      22.064215   17.555782   22.859359 H          1 MOL1         0.1009
       9    H6      20.384635   17.007369   23.040274 H          1 MOL1         0.1009
      10    H7      21.032439   18.299608   24.080217 H          1 MOL1         0.1009
      11    C3      19.111329   19.357894   22.206837 C.3        1 MOL1        -0.1392
      12    H8      18.879431   20.080445   21.413215 H          1 MOL1         0.0998
      13    H9      18.453870   18.496867   22.027649 H          1 MOL1         0.0998
      14    C4      18.766697   20.022750   23.565822 C.3        1 MOL1        -0.1302
      15    H10     18.026483   20.816015   23.389946 H          1 MOL1         0.0998
      16    H11     19.651976   20.524357   23.981320 H          1 MOL1         0.0998
      17    C5      18.171002   19.037443   24.598948 C.3        1 MOL1        -0.2317
      18    H12     17.243311   18.587643   24.221872 H          1 MOL1         0.1009
      19    H13     17.930342   19.560212   25.533709 H          1 MOL1         0.1009
      20    H14     18.864301   18.224752   24.842692 H          1 MOL1         0.1009
@<TRIPOS>BOND
    1     1     2    1
    2     1     3    1
    3     1     4    1
    4     1     5    1
    5     5     6    1
    6     5     7    1
    7     7     8    1
    8     7     9    1
    9     7    10    1
   10     5    11    1
   11    11    12    1
   12    11    13    1
   13    11    14    1
   14    14    15    1
   15    14    16    1
   16    14    17    1
   17    17    18    1
   18    17    19    1
   19    17    20    1
@<TRIPOS>SUBSTRUCTURE
       1 MOL1            1 RESIDUE      1      MOL     
@<SCITEGIC>MOL_PROPERTY
VConf Rank
SciTegic.value.IntegerValue
883

@<SCITEGIC>MOL_PROPERTY
Conf_Id
SciTegic.value.IntegerValue
52

@<SCITEGIC>MOL_PROPERTY
Delta U+W
SciTegic.value.DoubleValue
2.995

@<SCITEGIC>MOL_PROPERTY
U+W
SciTegic.value.DoubleValue
-33.282

@<SCITEGIC>MOL_PROPERTY
Grad RMS
SciTegic.value.DoubleValue
0.000000

@<SCITEGIC>MOL_PROPERTY
U
SciTegic.value.DoubleValue
25.224

@<SCITEGIC>MOL_PROPERTY
W
SciTegic.value.DoubleValue
-58.506

@<SCITEGIC>MOL_PROPERTY
W(PB)
SciTegic.value.DoubleValue
-60.411

@<SCITEGIC>MOL_PROPERTY
W(SA)
SciTegic.value.DoubleValue
1.905

@<SCITEGIC>MOL_PROPERTY
Valence
SciTegic.value.DoubleValue
4.945

@<SCITEGIC>MOL_PROPERTY
Coulomb
SciTegic.value.DoubleValue
19.467

@<SCITEGIC>MOL_PROPERTY
VdW
SciTegic.value.DoubleValue
0.813

@<SCITEGIC>MOL_PROPERTY
VdW6
SciTegic.value.DoubleValue
-5.458

@<SCITEGIC>MOL_PROPERTY
VdW12
SciTegic.value.DoubleValue
6.270

@<SCITEGIC>MOL_PROPERTY
Bond
SciTegic.value.DoubleValue
0.200

@<SCITEGIC>MOL_PROPERTY
Angle
SciTegic.value.DoubleValue
1.675

@<SCITEGIC>MOL_PROPERTY
Pdih
SciTegic.value.DoubleValue
3.070

@<SCITEGIC>MOL_PROPERTY
Idih
SciTegic.value.DoubleValue
0.000

@<SCITEGIC>MOL_PROPERTY
Tether
SciTegic.value.DoubleValue
0.000

@<TRIPOS>MOLECULE
guest-s10_confgen4.mol2 : confsearch ligand conformer 884
          20          19           1
SMALL
USER_CHARGES
 
@<TRIPOS>ATOM
       1    N1      20.724883   18.887842   24.036056 N.4        1 MOL1        -0.5937
       2    H1      20.179367   18.359651   24.721478 H          1 MOL1         0.3684
       3    H2      21.450722   19.395945   24.548537 H          1 MOL1         0.3684
       4    H3      21.191739   18.210531   23.429195 H          1 MOL1         0.3684
       5    C1      19.852194   19.821625   23.242512 C.3        1 MOL1         0.1270
       6    H4      20.508466   20.382440   22.569810 H          1 MOL1         0.0960
       7    C2      19.164206   20.821623   24.187200 C.3        1 MOL1        -0.2382
       8    H5      18.479476   20.310856   24.875765 H          1 MOL1         0.1009
       9    H6      18.588215   21.563134   23.619713 H          1 MOL1         0.1009
      10    H7      19.906162   21.366168   24.784115 H          1 MOL1         0.1009
      11    C3      18.800201   19.077098   22.386225 C.3        1 MOL1        -0.1392
      12    H8      18.294447   18.314948   22.993607 H          1 MOL1         0.0998
      13    H9      18.019941   19.791459   22.091326 H          1 MOL1         0.0998
      14    C4      19.353648   18.441579   21.083758 C.3        1 MOL1        -0.1302
      15    H10     19.816416   19.219253   20.459977 H          1 MOL1         0.0998
      16    H11     18.503804   18.055038   20.503776 H          1 MOL1         0.0998
      17    C5      20.359376   17.288000   21.300489 C.3        1 MOL1        -0.2317
      18    H12     20.545488   16.764816   20.353426 H          1 MOL1         0.1009
      19    H13     19.973572   16.550712   22.016645 H          1 MOL1         0.1009
      20    H14     21.328069   17.657552   21.656165 H          1 MOL1         0.1009
@<TRIPOS>BOND
    1     1     2    1
    2     1     3    1
    3     1     4    1
    4     1     5    1
    5     5     6    1
    6     5     7    1
    7     7     8    1
    8     7     9    1
    9     7    10    1
   10     5    11    1
   11    11    12    1
   12    11    13    1
   13    11    14    1
   14    14    15    1
   15    14    16    1
   16    14    17    1
   17    17    18    1
   18    17    19    1
   19    17    20    1
@<TRIPOS>SUBSTRUCTURE
       1 MOL1            1 RESIDUE      1      MOL     
@<SCITEGIC>MOL_PROPERTY
VConf Rank
SciTegic.value.IntegerValue
884

@<SCITEGIC>MOL_PROPERTY
Conf_Id
SciTegic.value.IntegerValue
54

@<SCITEGIC>MOL_PROPERTY
Delta U+W
SciTegic.value.DoubleValue
2.752

@<SCITEGIC>MOL_PROPERTY
U+W
SciTegic.value.DoubleValue
-33.525

@<SCITEGIC>MOL_PROPERTY
Grad RMS
SciTegic.value.DoubleValue
0.000000

@<SCITEGIC>MOL_PROPERTY
U
SciTegic.value.DoubleValue
24.337

@<SCITEGIC>MOL_PROPERTY
W
SciTegic.value.DoubleValue
-57.862

@<SCITEGIC>MOL_PROPERTY
W(PB)
SciTegic.value.DoubleValue
-59.764

@<SCITEGIC>MOL_PROPERTY
W(SA)
SciTegic.value.DoubleValue
1.901

@<SCITEGIC>MOL_PROPERTY
Valence
SciTegic.value.DoubleValue
3.593

@<SCITEGIC>MOL_PROPERTY
Coulomb
SciTegic.value.DoubleValue
20.067

@<SCITEGIC>MOL_PROPERTY
VdW
SciTegic.value.DoubleValue
0.677

@<SCITEGIC>MOL_PROPERTY
VdW6
SciTegic.value.DoubleValue
-5.466

@<SCITEGIC>MOL_PROPERTY
VdW12
SciTegic.value.DoubleValue
6.144

@<SCITEGIC>MOL_PROPERTY
Bond
SciTegic.value.DoubleValue
0.191

@<SCITEGIC>MOL_PROPERTY
Angle
SciTegic.value.DoubleValue
1.557

@<SCITEGIC>MOL_PROPERTY
Pdih
SciTegic.value.DoubleValue
1.845

@<SCITEGIC>MOL_PROPERTY
Idih
SciTegic.value.DoubleValue
0.000

@<SCITEGIC>MOL_PROPERTY
Tether
SciTegic.value.DoubleValue
0.000

@<TRIPOS>MOLECULE
guest-s10_confgen4.mol2 : confsearch ligand conformer 885
          20          19           1
SMALL
USER_CHARGES
 
@<TRIPOS>ATOM
       1    N1      19.150096   19.463984   24.604998 N.4        1 MOL1        -0.5937
       2    H1      18.824492   20.234231   25.195216 H          1 MOL1         0.3684
       3    H2      19.657591   18.811997   25.209211 H          1 MOL1         0.3684
       4    H3      18.322220   18.977095   24.254271 H          1 MOL1         0.3684
       5    C1      20.014473   19.961058   23.478208 C.3        1 MOL1         0.1270
       6    H4      20.857060   20.477768   23.948400 H          1 MOL1         0.0960
       7    C2      19.261794   20.990570   22.616568 C.3        1 MOL1        -0.2382
       8    H5      19.894613   21.349130   21.795321 H          1 MOL1         0.1009
       9    H6      18.976976   21.860885   23.220320 H          1 MOL1         0.1009
      10    H7      18.346189   20.568197   22.186092 H          1 MOL1         0.1009
      11    C3      20.601034   18.808544   22.628084 C.3        1 MOL1        -0.1392
      12    H8      21.289302   19.232969   21.885194 H          1 MOL1         0.0998
      13    H9      21.215902   18.174498   23.280257 H          1 MOL1         0.0998
      14    C4      19.549441   17.926773   21.906297 C.3        1 MOL1        -0.1302
      15    H10     18.957362   18.534889   21.209411 H          1 MOL1         0.0998
      16    H11     18.846484   17.501501   22.635102 H          1 MOL1         0.0998
      17    C5      20.217037   16.776967   21.121702 C.3        1 MOL1        -0.2317
      18    H12     19.461049   16.163288   20.614802 H          1 MOL1         0.1009
      19    H13     20.788695   16.121059   21.791189 H          1 MOL1         0.1009
      20    H14     20.902266   17.165898   20.357230 H          1 MOL1         0.1009
@<TRIPOS>BOND
    1     1     2    1
    2     1     3    1
    3     1     4    1
    4     1     5    1
    5     5     6    1
    6     5     7    1
    7     7     8    1
    8     7     9    1
    9     7    10    1
   10     5    11    1
   11    11    12    1
   12    11    13    1
   13    11    14    1
   14    14    15    1
   15    14    16    1
   16    14    17    1
   17    17    18    1
   18    17    19    1
   19    17    20    1
@<TRIPOS>SUBSTRUCTURE
       1 MOL1            1 RESIDUE      1      MOL     
@<SCITEGIC>MOL_PROPERTY
VConf Rank
SciTegic.value.IntegerValue
885

@<SCITEGIC>MOL_PROPERTY
Conf_Id
SciTegic.value.IntegerValue
63

@<SCITEGIC>MOL_PROPERTY
Delta U+W
SciTegic.value.DoubleValue
0.420

@<SCITEGIC>MOL_PROPERTY
U+W
SciTegic.value.DoubleValue
-35.856

@<SCITEGIC>MOL_PROPERTY
Grad RMS
SciTegic.value.DoubleValue
0.000000

@<SCITEGIC>MOL_PROPERTY
U
SciTegic.value.DoubleValue
22.625

@<SCITEGIC>MOL_PROPERTY
W
SciTegic.value.DoubleValue
-58.481

@<SCITEGIC>MOL_PROPERTY
W(PB)
SciTegic.value.DoubleValue
-60.400

@<SCITEGIC>MOL_PROPERTY
W(SA)
SciTegic.value.DoubleValue
1.919

@<SCITEGIC>MOL_PROPERTY
Valence
SciTegic.value.DoubleValue
2.404

@<SCITEGIC>MOL_PROPERTY
Coulomb
SciTegic.value.DoubleValue
19.464

@<SCITEGIC>MOL_PROPERTY
VdW
SciTegic.value.DoubleValue
0.757

@<SCITEGIC>MOL_PROPERTY
VdW6
SciTegic.value.DoubleValue
-5.074

@<SCITEGIC>MOL_PROPERTY
VdW12
SciTegic.value.DoubleValue
5.830

@<SCITEGIC>MOL_PROPERTY
Bond
SciTegic.value.DoubleValue
0.172

@<SCITEGIC>MOL_PROPERTY
Angle
SciTegic.value.DoubleValue
1.207

@<SCITEGIC>MOL_PROPERTY
Pdih
SciTegic.value.DoubleValue
1.025

@<SCITEGIC>MOL_PROPERTY
Idih
SciTegic.value.DoubleValue
0.000

@<SCITEGIC>MOL_PROPERTY
Tether
SciTegic.value.DoubleValue
0.000

@<TRIPOS>MOLECULE
guest-s10_confgen4.mol2 : confsearch ligand conformer 886
          20          19           1
SMALL
USER_CHARGES
 
@<TRIPOS>ATOM
       1    N1      21.080383   17.887167   22.751876 N.4        1 MOL1        -0.5937
       2    H1      21.630593   18.740616   22.626304 H          1 MOL1         0.3684
       3    H2      21.118221   17.364230   21.873510 H          1 MOL1         0.3684
       4    H3      21.550294   17.322550   23.464571 H          1 MOL1         0.3684
       5    C1      19.662621   18.203428   23.144441 C.3        1 MOL1         0.1270
       6    H4      19.712988   18.755989   24.087452 H          1 MOL1         0.0960
       7    C2      18.865836   16.911628   23.389182 C.3        1 MOL1        -0.2382
       8    H5      19.349351   16.296890   24.158303 H          1 MOL1         0.1009
       9    H6      18.787330   16.313220   22.472941 H          1 MOL1         0.1009
      10    H7      17.850368   17.139892   23.736088 H          1 MOL1         0.1009
      11    C3      18.944127   19.089377   22.101444 C.3        1 MOL1        -0.1392
      12    H8      18.868984   18.544842   21.150829 H          1 MOL1         0.0998
      13    H9      17.913086   19.268347   22.434388 H          1 MOL1         0.0998
      14    C4      19.629211   20.456538   21.849596 C.3        1 MOL1        -0.1302
      15    H10     19.050246   21.007250   21.094997 H          1 MOL1         0.0998
      16    H11     20.626695   20.307392   21.414457 H          1 MOL1         0.0998
      17    C5      19.740731   21.322486   23.125161 C.3        1 MOL1        -0.2317
      18    H12     18.754383   21.485574   23.578702 H          1 MOL1         0.1009
      19    H13     20.165594   22.306082   22.886206 H          1 MOL1         0.1009
      20    H14     20.390315   20.855633   23.876151 H          1 MOL1         0.1009
@<TRIPOS>BOND
    1     1     2    1
    2     1     3    1
    3     1     4    1
    4     1     5    1
    5     5     6    1
    6     5     7    1
    7     7     8    1
    8     7     9    1
    9     7    10    1
   10     5    11    1
   11    11    12    1
   12    11    13    1
   13    11    14    1
   14    14    15    1
   15    14    16    1
   16    14    17    1
   17    17    18    1
   18    17    19    1
   19    17    20    1
@<TRIPOS>SUBSTRUCTURE
       1 MOL1            1 RESIDUE      1      MOL     
@<SCITEGIC>MOL_PROPERTY
VConf Rank
SciTegic.value.IntegerValue
886

@<SCITEGIC>MOL_PROPERTY
Conf_Id
SciTegic.value.IntegerValue
50

@<SCITEGIC>MOL_PROPERTY
Delta U+W
SciTegic.value.DoubleValue
0.466

@<SCITEGIC>MOL_PROPERTY
U+W
SciTegic.value.DoubleValue
-35.811

@<SCITEGIC>MOL_PROPERTY
Grad RMS
SciTegic.value.DoubleValue
0.000000

@<SCITEGIC>MOL_PROPERTY
U
SciTegic.value.DoubleValue
22.369

@<SCITEGIC>MOL_PROPERTY
W
SciTegic.value.DoubleValue
-58.180

@<SCITEGIC>MOL_PROPERTY
W(PB)
SciTegic.value.DoubleValue
-60.103

@<SCITEGIC>MOL_PROPERTY
W(SA)
SciTegic.value.DoubleValue
1.923

@<SCITEGIC>MOL_PROPERTY
Valence
SciTegic.value.DoubleValue
2.168

@<SCITEGIC>MOL_PROPERTY
Coulomb
SciTegic.value.DoubleValue
19.636

@<SCITEGIC>MOL_PROPERTY
VdW
SciTegic.value.DoubleValue
0.566

@<SCITEGIC>MOL_PROPERTY
VdW6
SciTegic.value.DoubleValue
-5.263

@<SCITEGIC>MOL_PROPERTY
VdW12
SciTegic.value.DoubleValue
5.829

@<SCITEGIC>MOL_PROPERTY
Bond
SciTegic.value.DoubleValue
0.162

@<SCITEGIC>MOL_PROPERTY
Angle
SciTegic.value.DoubleValue
1.066

@<SCITEGIC>MOL_PROPERTY
Pdih
SciTegic.value.DoubleValue
0.939

@<SCITEGIC>MOL_PROPERTY
Idih
SciTegic.value.DoubleValue
0.000

@<SCITEGIC>MOL_PROPERTY
Tether
SciTegic.value.DoubleValue
0.000

@<TRIPOS>MOLECULE
guest-s10_confgen4.mol2 : confsearch ligand conformer 887
          20          19           1
SMALL
USER_CHARGES
 
@<TRIPOS>ATOM
       1    N1      17.720760   19.551823   23.763131 N.4        1 MOL1        -0.5937
       2    H1      17.084903   19.740776   22.983401 H          1 MOL1         0.3684
       3    H2      17.909787   20.443294   24.228341 H          1 MOL1         0.3684
       4    H3      17.214822   18.962199   24.429543 H          1 MOL1         0.3684
       5    C1      18.990049   18.891549   23.296735 C.3        1 MOL1         0.1270
       6    H4      18.687754   17.956943   22.814146 H          1 MOL1         0.0960
       7    C2      19.884360   18.556570   24.505024 C.3        1 MOL1        -0.2382
       8    H5      20.172584   19.465611   25.047461 H          1 MOL1         0.1009
       9    H6      20.801950   18.043638   24.197258 H          1 MOL1         0.1009
      10    H7      19.356630   17.897480   25.205188 H          1 MOL1         0.1009
      11    C3      19.739513   19.753345   22.250866 C.3        1 MOL1        -0.1392
      12    H8      19.050866   20.506661   21.845956 H          1 MOL1         0.0998
      13    H9      20.548886   20.320269   22.729955 H          1 MOL1         0.0998
      14    C4      20.293752   18.943367   21.051476 C.3        1 MOL1        -0.1302
      15    H10     20.736552   19.643998   20.329689 H          1 MOL1         0.0998
      16    H11     19.463777   18.449273   20.526983 H          1 MOL1         0.0998
      17    C5      21.355832   17.889919   21.436796 C.3        1 MOL1        -0.2317
      18    H12     22.179887   18.345785   22.000841 H          1 MOL1         0.1009
      19    H13     21.781898   17.428166   20.536633 H          1 MOL1         0.1009
      20    H14     20.921117   17.085379   22.042905 H          1 MOL1         0.1009
@<TRIPOS>BOND
    1     1     2    1
    2     1     3    1
    3     1     4    1
    4     1     5    1
    5     5     6    1
    6     5     7    1
    7     7     8    1
    8     7     9    1
    9     7    10    1
   10     5    11    1
   11    11    12    1
   12    11    13    1
   13    11    14    1
   14    14    15    1
   15    14    16    1
   16    14    17    1
   17    17    18    1
   18    17    19    1
   19    17    20    1
@<TRIPOS>SUBSTRUCTURE
       1 MOL1            1 RESIDUE      1      MOL     
@<SCITEGIC>MOL_PROPERTY
VConf Rank
SciTegic.value.IntegerValue
887

@<SCITEGIC>MOL_PROPERTY
Conf_Id
SciTegic.value.IntegerValue
3

@<SCITEGIC>MOL_PROPERTY
Delta U+W
SciTegic.value.DoubleValue
3.093

@<SCITEGIC>MOL_PROPERTY
U+W
SciTegic.value.DoubleValue
-33.184

@<SCITEGIC>MOL_PROPERTY
Grad RMS
SciTegic.value.DoubleValue
0.000000

@<SCITEGIC>MOL_PROPERTY
U
SciTegic.value.DoubleValue
25.256

@<SCITEGIC>MOL_PROPERTY
W
SciTegic.value.DoubleValue
-58.439

@<SCITEGIC>MOL_PROPERTY
W(PB)
SciTegic.value.DoubleValue
-60.337

@<SCITEGIC>MOL_PROPERTY
W(SA)
SciTegic.value.DoubleValue
1.898

@<SCITEGIC>MOL_PROPERTY
Valence
SciTegic.value.DoubleValue
4.963

@<SCITEGIC>MOL_PROPERTY
Coulomb
SciTegic.value.DoubleValue
19.511

@<SCITEGIC>MOL_PROPERTY
VdW
SciTegic.value.DoubleValue
0.782

@<SCITEGIC>MOL_PROPERTY
VdW6
SciTegic.value.DoubleValue
-5.429

@<SCITEGIC>MOL_PROPERTY
VdW12
SciTegic.value.DoubleValue
6.211

@<SCITEGIC>MOL_PROPERTY
Bond
SciTegic.value.DoubleValue
0.174

@<SCITEGIC>MOL_PROPERTY
Angle
SciTegic.value.DoubleValue
1.377

@<SCITEGIC>MOL_PROPERTY
Pdih
SciTegic.value.DoubleValue
3.412

@<SCITEGIC>MOL_PROPERTY
Idih
SciTegic.value.DoubleValue
0.000

@<SCITEGIC>MOL_PROPERTY
Tether
SciTegic.value.DoubleValue
0.000

@<TRIPOS>MOLECULE
guest-s10_confgen4.mol2 : confsearch ligand conformer 888
          20          19           1
SMALL
USER_CHARGES
 
@<TRIPOS>ATOM
       1    N1      21.364493   18.770313   21.239016 N.4        1 MOL1        -0.5937
       2    H1      21.331496   18.134670   20.437452 H          1 MOL1         0.3684
       3    H2      22.170845   18.498048   21.807785 H          1 MOL1         0.3684
       4    H3      21.548958   19.708621   20.875374 H          1 MOL1         0.3684
       5    C1      20.086182   18.725805   22.030420 C.3        1 MOL1         0.1270
       6    H4      19.972598   17.692409   22.371429 H          1 MOL1         0.0960
       7    C2      18.886892   19.075427   21.130659 C.3        1 MOL1        -0.2382
       8    H5      17.937053   18.912731   21.653030 H          1 MOL1         0.1009
       9    H6      18.877376   18.441741   20.235402 H          1 MOL1         0.1009
      10    H7      18.925934   20.122600   20.806014 H          1 MOL1         0.1009
      11    C3      20.165708   19.642224   23.274719 C.3        1 MOL1        -0.1392
      12    H8      21.080397   19.399886   23.831623 H          1 MOL1         0.0998
      13    H9      20.274027   20.685884   22.951029 H          1 MOL1         0.0998
      14    C4      18.961521   19.535547   24.245110 C.3        1 MOL1        -0.1302
      15    H10     18.046241   19.899142   23.758969 H          1 MOL1         0.0998
      16    H11     19.135698   20.207553   25.097113 H          1 MOL1         0.0998
      17    C5      18.736728   18.101549   24.776402 C.3        1 MOL1        -0.2317
      18    H12     19.640682   17.715117   25.264966 H          1 MOL1         0.1009
      19    H13     18.460513   17.411184   23.969454 H          1 MOL1         0.1009
      20    H14     17.924966   18.088014   25.515236 H          1 MOL1         0.1009
@<TRIPOS>BOND
    1     1     2    1
    2     1     3    1
    3     1     4    1
    4     1     5    1
    5     5     6    1
    6     5     7    1
    7     7     8    1
    8     7     9    1
    9     7    10    1
   10     5    11    1
   11    11    12    1
   12    11    13    1
   13    11    14    1
   14    14    15    1
   15    14    16    1
   16    14    17    1
   17    17    18    1
   18    17    19    1
   19    17    20    1
@<TRIPOS>SUBSTRUCTURE
       1 MOL1            1 RESIDUE      1      MOL     
@<SCITEGIC>MOL_PROPERTY
VConf Rank
SciTegic.value.IntegerValue
888

@<SCITEGIC>MOL_PROPERTY
Conf_Id
SciTegic.value.IntegerValue
64

@<SCITEGIC>MOL_PROPERTY
Delta U+W
SciTegic.value.DoubleValue
0.544

@<SCITEGIC>MOL_PROPERTY
U+W
SciTegic.value.DoubleValue
-35.732

@<SCITEGIC>MOL_PROPERTY
Grad RMS
SciTegic.value.DoubleValue
0.000000

@<SCITEGIC>MOL_PROPERTY
U
SciTegic.value.DoubleValue
22.800

@<SCITEGIC>MOL_PROPERTY
W
SciTegic.value.DoubleValue
-58.532

@<SCITEGIC>MOL_PROPERTY
W(PB)
SciTegic.value.DoubleValue
-60.437

@<SCITEGIC>MOL_PROPERTY
W(SA)
SciTegic.value.DoubleValue
1.905

@<SCITEGIC>MOL_PROPERTY
Valence
SciTegic.value.DoubleValue
2.662

@<SCITEGIC>MOL_PROPERTY
Coulomb
SciTegic.value.DoubleValue
19.485

@<SCITEGIC>MOL_PROPERTY
VdW
SciTegic.value.DoubleValue
0.653

@<SCITEGIC>MOL_PROPERTY
VdW6
SciTegic.value.DoubleValue
-5.460

@<SCITEGIC>MOL_PROPERTY
VdW12
SciTegic.value.DoubleValue
6.113

@<SCITEGIC>MOL_PROPERTY
Bond
SciTegic.value.DoubleValue
0.174

@<SCITEGIC>MOL_PROPERTY
Angle
SciTegic.value.DoubleValue
1.378

@<SCITEGIC>MOL_PROPERTY
Pdih
SciTegic.value.DoubleValue
1.109

@<SCITEGIC>MOL_PROPERTY
Idih
SciTegic.value.DoubleValue
0.000

@<SCITEGIC>MOL_PROPERTY
Tether
SciTegic.value.DoubleValue
0.000

@<TRIPOS>MOLECULE
guest-s10_confgen4.mol2 : confsearch ligand conformer 889
          20          19           1
SMALL
USER_CHARGES
 
@<TRIPOS>ATOM
       1    N1      20.213391   20.967508   22.405126 N.4        1 MOL1        -0.5937
       2    H1      20.594434   20.548912   21.553741 H          1 MOL1         0.3684
       3    H2      20.922985   21.604926   22.776322 H          1 MOL1         0.3684
       4    H3      19.406897   21.536237   22.133510 H          1 MOL1         0.3684
       5    C1      19.835450   19.916923   23.414217 C.3        1 MOL1         0.1270
       6    H4      19.453255   20.460959   24.283650 H          1 MOL1         0.0960
       7    C2      21.072500   19.128040   23.873669 C.3        1 MOL1        -0.2382
       8    H5      21.589572   18.662856   23.026350 H          1 MOL1         0.1009
       9    H6      20.792819   18.342712   24.586674 H          1 MOL1         0.1009
      10    H7      21.786240   19.793196   24.374780 H          1 MOL1         0.1009
      11    C3      18.688295   19.003820   22.912999 C.3        1 MOL1        -0.1392
      12    H8      18.334041   18.376182   23.741294 H          1 MOL1         0.0998
      13    H9      17.839478   19.652691   22.660103 H          1 MOL1         0.0998
      14    C4      19.006867   18.115798   21.678029 C.3        1 MOL1        -0.1302
      15    H10     19.737198   18.605867   21.020892 H          1 MOL1         0.0998
      16    H11     18.089999   18.011851   21.080926 H          1 MOL1         0.0998
      17    C5      19.492757   16.694489   22.047539 C.3        1 MOL1        -0.2317
      18    H12     20.432868   16.711748   22.609563 H          1 MOL1         0.1009
      19    H13     19.661002   16.099241   21.140710 H          1 MOL1         0.1009
      20    H14     18.744569   16.168990   22.655082 H          1 MOL1         0.1009
@<TRIPOS>BOND
    1     1     2    1
    2     1     3    1
    3     1     4    1
    4     1     5    1
    5     5     6    1
    6     5     7    1
    7     7     8    1
    8     7     9    1
    9     7    10    1
   10     5    11    1
   11    11    12    1
   12    11    13    1
   13    11    14    1
   14    14    15    1
   15    14    16    1
   16    14    17    1
   17    17    18    1
   18    17    19    1
   19    17    20    1
@<TRIPOS>SUBSTRUCTURE
       1 MOL1            1 RESIDUE      1      MOL     
@<SCITEGIC>MOL_PROPERTY
VConf Rank
SciTegic.value.IntegerValue
889

@<SCITEGIC>MOL_PROPERTY
Conf_Id
SciTegic.value.IntegerValue
35

@<SCITEGIC>MOL_PROPERTY
Delta U+W
SciTegic.value.DoubleValue
3.004

@<SCITEGIC>MOL_PROPERTY
U+W
SciTegic.value.DoubleValue
-33.272

@<SCITEGIC>MOL_PROPERTY
Grad RMS
SciTegic.value.DoubleValue
0.000000

@<SCITEGIC>MOL_PROPERTY
U
SciTegic.value.DoubleValue
25.367

@<SCITEGIC>MOL_PROPERTY
W
SciTegic.value.DoubleValue
-58.639

@<SCITEGIC>MOL_PROPERTY
W(PB)
SciTegic.value.DoubleValue
-60.512

@<SCITEGIC>MOL_PROPERTY
W(SA)
SciTegic.value.DoubleValue
1.873

@<SCITEGIC>MOL_PROPERTY
Valence
SciTegic.value.DoubleValue
4.943

@<SCITEGIC>MOL_PROPERTY
Coulomb
SciTegic.value.DoubleValue
19.661

@<SCITEGIC>MOL_PROPERTY
VdW
SciTegic.value.DoubleValue
0.764

@<SCITEGIC>MOL_PROPERTY
VdW6
SciTegic.value.DoubleValue
-5.871

@<SCITEGIC>MOL_PROPERTY
VdW12
SciTegic.value.DoubleValue
6.636

@<SCITEGIC>MOL_PROPERTY
Bond
SciTegic.value.DoubleValue
0.230

@<SCITEGIC>MOL_PROPERTY
Angle
SciTegic.value.DoubleValue
1.857

@<SCITEGIC>MOL_PROPERTY
Pdih
SciTegic.value.DoubleValue
2.855

@<SCITEGIC>MOL_PROPERTY
Idih
SciTegic.value.DoubleValue
0.000

@<SCITEGIC>MOL_PROPERTY
Tether
SciTegic.value.DoubleValue
0.000

@<TRIPOS>MOLECULE
guest-s10_confgen4.mol2 : confsearch ligand conformer 890
          20          19           1
SMALL
USER_CHARGES
 
@<TRIPOS>ATOM
       1    N1      18.215327   18.179882   22.530169 N.4        1 MOL1        -0.5937
       2    H1      17.655300   17.734828   21.798118 H          1 MOL1         0.3684
       3    H2      17.581998   18.410248   23.300498 H          1 MOL1         0.3684
       4    H3      18.879635   17.485584   22.877506 H          1 MOL1         0.3684
       5    C1      18.924658   19.402544   22.015960 C.3        1 MOL1         0.1270
       6    H4      18.130566   20.084597   21.696354 H          1 MOL1         0.0960
       7    C2      19.776124   19.077756   20.775787 C.3        1 MOL1        -0.2382
       8    H5      20.540992   18.323564   20.995936 H          1 MOL1         0.1009
       9    H6      20.278227   19.978649   20.402018 H          1 MOL1         0.1009
      10    H7      19.144920   18.689224   19.967337 H          1 MOL1         0.1009
      11    C3      19.734967   20.140583   23.112323 C.3        1 MOL1        -0.1392
      12    H8      19.946978   21.152955   22.743951 H          1 MOL1         0.0998
      13    H9      19.095452   20.280054   23.993677 H          1 MOL1         0.0998
      14    C4      21.082942   19.503842   23.552912 C.3        1 MOL1        -0.1302
      15    H10     21.545957   20.169449   24.294807 H          1 MOL1         0.0998
      16    H11     21.783812   19.472617   22.707668 H          1 MOL1         0.0998
      17    C5      20.957907   18.095264   24.176769 C.3        1 MOL1        -0.2317
      18    H12     20.199273   18.076837   24.970037 H          1 MOL1         0.1009
      19    H13     21.913554   17.791723   24.623729 H          1 MOL1         0.1009
      20    H14     20.702019   17.341344   23.423515 H          1 MOL1         0.1009
@<TRIPOS>BOND
    1     1     2    1
    2     1     3    1
    3     1     4    1
    4     1     5    1
    5     5     6    1
    6     5     7    1
    7     7     8    1
    8     7     9    1
    9     7    10    1
   10     5    11    1
   11    11    12    1
   12    11    13    1
   13    11    14    1
   14    14    15    1
   15    14    16    1
   16    14    17    1
   17    17    18    1
   18    17    19    1
   19    17    20    1
@<TRIPOS>SUBSTRUCTURE
       1 MOL1            1 RESIDUE      1      MOL     
@<SCITEGIC>MOL_PROPERTY
VConf Rank
SciTegic.value.IntegerValue
890

@<SCITEGIC>MOL_PROPERTY
Conf_Id
SciTegic.value.IntegerValue
55

@<SCITEGIC>MOL_PROPERTY
Delta U+W
SciTegic.value.DoubleValue
2.767

@<SCITEGIC>MOL_PROPERTY
U+W
SciTegic.value.DoubleValue
-33.509

@<SCITEGIC>MOL_PROPERTY
Grad RMS
SciTegic.value.DoubleValue
0.000000

@<SCITEGIC>MOL_PROPERTY
U
SciTegic.value.DoubleValue
24.552

@<SCITEGIC>MOL_PROPERTY
W
SciTegic.value.DoubleValue
-58.061

@<SCITEGIC>MOL_PROPERTY
W(PB)
SciTegic.value.DoubleValue
-59.930

@<SCITEGIC>MOL_PROPERTY
W(SA)
SciTegic.value.DoubleValue
1.869

@<SCITEGIC>MOL_PROPERTY
Valence
SciTegic.value.DoubleValue
3.726

@<SCITEGIC>MOL_PROPERTY
Coulomb
SciTegic.value.DoubleValue
20.219

@<SCITEGIC>MOL_PROPERTY
VdW
SciTegic.value.DoubleValue
0.606

@<SCITEGIC>MOL_PROPERTY
VdW6
SciTegic.value.DoubleValue
-6.395

@<SCITEGIC>MOL_PROPERTY
VdW12
SciTegic.value.DoubleValue
7.001

@<SCITEGIC>MOL_PROPERTY
Bond
SciTegic.value.DoubleValue
0.241

@<SCITEGIC>MOL_PROPERTY
Angle
SciTegic.value.DoubleValue
2.098

@<SCITEGIC>MOL_PROPERTY
Pdih
SciTegic.value.DoubleValue
1.387

@<SCITEGIC>MOL_PROPERTY
Idih
SciTegic.value.DoubleValue
0.000

@<SCITEGIC>MOL_PROPERTY
Tether
SciTegic.value.DoubleValue
0.000

@<TRIPOS>MOLECULE
guest-s10_confgen4.mol2 : confsearch ligand conformer 891
          20          19           1
SMALL
USER_CHARGES
 
@<TRIPOS>ATOM
       1    N1      18.873509   17.523257   23.755186 N.4        1 MOL1        -0.5937
       2    H1      19.424860   17.623349   24.611071 H          1 MOL1         0.3684
       3    H2      18.515742   16.564524   23.733034 H          1 MOL1         0.3684
       4    H3      18.066354   18.146784   23.834540 H          1 MOL1         0.3684
       5    C1      19.693179   17.833681   22.531733 C.3        1 MOL1         0.1270
       6    H4      19.031538   17.707296   21.669095 H          1 MOL1         0.0960
       7    C2      20.857355   16.838721   22.394919 C.3        1 MOL1        -0.2382
       8    H5      20.485075   15.807459   22.360690 H          1 MOL1         0.1009
       9    H6      21.553419   16.922944   23.238835 H          1 MOL1         0.1009
      10    H7      21.418739   17.019887   21.469897 H          1 MOL1         0.1009
      11    C3      20.223324   19.284560   22.524922 C.3        1 MOL1        -0.1392
      12    H8      20.872811   19.445060   23.395739 H          1 MOL1         0.0998
      13    H9      20.851520   19.427889   21.635601 H          1 MOL1         0.0998
      14    C4      19.093415   20.342239   22.513042 C.3        1 MOL1        -0.1302
      15    H10     18.483119   20.256317   23.422207 H          1 MOL1         0.0998
      16    H11     18.423326   20.158707   21.661256 H          1 MOL1         0.0998
      17    C5      19.656476   21.776696   22.420321 C.3        1 MOL1        -0.2317
      18    H12     20.307398   22.001515   23.275314 H          1 MOL1         0.1009
      19    H13     18.842409   22.513138   22.414453 H          1 MOL1         0.1009
      20    H14     20.240438   21.913903   21.500868 H          1 MOL1         0.1009
@<TRIPOS>BOND
    1     1     2    1
    2     1     3    1
    3     1     4    1
    4     1     5    1
    5     5     6    1
    6     5     7    1
    7     7     8    1
    8     7     9    1
    9     7    10    1
   10     5    11    1
   11    11    12    1
   12    11    13    1
   13    11    14    1
   14    14    15    1
   15    14    16    1
   16    14    17    1
   17    17    18    1
   18    17    19    1
   19    17    20    1
@<TRIPOS>SUBSTRUCTURE
       1 MOL1            1 RESIDUE      1      MOL     
@<SCITEGIC>MOL_PROPERTY
VConf Rank
SciTegic.value.IntegerValue
891

@<SCITEGIC>MOL_PROPERTY
Conf_Id
SciTegic.value.IntegerValue
74

@<SCITEGIC>MOL_PROPERTY
Delta U+W
SciTegic.value.DoubleValue
0.000

@<SCITEGIC>MOL_PROPERTY
U+W
SciTegic.value.DoubleValue
-36.276

@<SCITEGIC>MOL_PROPERTY
Grad RMS
SciTegic.value.DoubleValue
0.000000

@<SCITEGIC>MOL_PROPERTY
U
SciTegic.value.DoubleValue
22.080

@<SCITEGIC>MOL_PROPERTY
W
SciTegic.value.DoubleValue
-58.356

@<SCITEGIC>MOL_PROPERTY
W(PB)
SciTegic.value.DoubleValue
-60.289

@<SCITEGIC>MOL_PROPERTY
W(SA)
SciTegic.value.DoubleValue
1.932

@<SCITEGIC>MOL_PROPERTY
Valence
SciTegic.value.DoubleValue
1.885

@<SCITEGIC>MOL_PROPERTY
Coulomb
SciTegic.value.DoubleValue
19.559

@<SCITEGIC>MOL_PROPERTY
VdW
SciTegic.value.DoubleValue
0.637

@<SCITEGIC>MOL_PROPERTY
VdW6
SciTegic.value.DoubleValue
-4.482

@<SCITEGIC>MOL_PROPERTY
VdW12
SciTegic.value.DoubleValue
5.119

@<SCITEGIC>MOL_PROPERTY
Bond
SciTegic.value.DoubleValue
0.136

@<SCITEGIC>MOL_PROPERTY
Angle
SciTegic.value.DoubleValue
0.867

@<SCITEGIC>MOL_PROPERTY
Pdih
SciTegic.value.DoubleValue
0.882

@<SCITEGIC>MOL_PROPERTY
Idih
SciTegic.value.DoubleValue
0.000

@<SCITEGIC>MOL_PROPERTY
Tether
SciTegic.value.DoubleValue
0.000

@<TRIPOS>MOLECULE
guest-s10_confgen4.mol2 : confsearch ligand conformer 892
          20          19           1
SMALL
USER_CHARGES
 
@<TRIPOS>ATOM
       1    N1      19.297297   18.267337   20.466657 N.4        1 MOL1        -0.5937
       2    H1      19.005648   17.293911   20.590103 H          1 MOL1         0.3684
       3    H2      20.262575   18.257285   20.127741 H          1 MOL1         0.3684
       4    H3      18.717707   18.664209   19.722180 H          1 MOL1         0.3684
       5    C1      19.167833   19.052349   21.743161 C.3        1 MOL1         0.1270
       6    H4      18.111108   19.010148   22.024969 H          1 MOL1         0.0960
       7    C2      19.549007   20.525066   21.505229 C.3        1 MOL1        -0.2382
       8    H5      18.983396   20.939052   20.661474 H          1 MOL1         0.1009
       9    H6      20.617950   20.627404   21.280582 H          1 MOL1         0.1009
      10    H7      19.320960   21.143098   22.381159 H          1 MOL1         0.1009
      11    C3      19.997373   18.411809   22.880289 C.3        1 MOL1        -0.1392
      12    H8      19.756508   17.341480   22.925487 H          1 MOL1         0.0998
      13    H9      21.066964   18.479508   22.641039 H          1 MOL1         0.0998
      14    C4      19.734012   19.033881   24.273426 C.3        1 MOL1        -0.1302
      15    H10     18.655730   19.023496   24.486193 H          1 MOL1         0.0998
      16    H11     20.051578   20.084997   24.287786 H          1 MOL1         0.0998
      17    C5      20.482675   18.272072   25.388250 C.3        1 MOL1        -0.2317
      18    H12     20.160975   17.223520   25.436075 H          1 MOL1         0.1009
      19    H13     20.287968   18.728187   26.367605 H          1 MOL1         0.1009
      20    H14     21.567193   18.289429   25.218611 H          1 MOL1         0.1009
@<TRIPOS>BOND
    1     1     2    1
    2     1     3    1
    3     1     4    1
    4     1     5    1
    5     5     6    1
    6     5     7    1
    7     7     8    1
    8     7     9    1
    9     7    10    1
   10     5    11    1
   11    11    12    1
   12    11    13    1
   13    11    14    1
   14    14    15    1
   15    14    16    1
   16    14    17    1
   17    17    18    1
   18    17    19    1
   19    17    20    1
@<TRIPOS>SUBSTRUCTURE
       1 MOL1            1 RESIDUE      1      MOL     
@<SCITEGIC>MOL_PROPERTY
VConf Rank
SciTegic.value.IntegerValue
892

@<SCITEGIC>MOL_PROPERTY
Conf_Id
SciTegic.value.IntegerValue
80

@<SCITEGIC>MOL_PROPERTY
Delta U+W
SciTegic.value.DoubleValue
0.460

@<SCITEGIC>MOL_PROPERTY
U+W
SciTegic.value.DoubleValue
-35.817

@<SCITEGIC>MOL_PROPERTY
Grad RMS
SciTegic.value.DoubleValue
0.000000

@<SCITEGIC>MOL_PROPERTY
U
SciTegic.value.DoubleValue
22.495

@<SCITEGIC>MOL_PROPERTY
W
SciTegic.value.DoubleValue
-58.311

@<SCITEGIC>MOL_PROPERTY
W(PB)
SciTegic.value.DoubleValue
-60.259

@<SCITEGIC>MOL_PROPERTY
W(SA)
SciTegic.value.DoubleValue
1.948

@<SCITEGIC>MOL_PROPERTY
Valence
SciTegic.value.DoubleValue
2.419

@<SCITEGIC>MOL_PROPERTY
Coulomb
SciTegic.value.DoubleValue
19.304

@<SCITEGIC>MOL_PROPERTY
VdW
SciTegic.value.DoubleValue
0.772

@<SCITEGIC>MOL_PROPERTY
VdW6
SciTegic.value.DoubleValue
-4.635

@<SCITEGIC>MOL_PROPERTY
VdW12
SciTegic.value.DoubleValue
5.407

@<SCITEGIC>MOL_PROPERTY
Bond
SciTegic.value.DoubleValue
0.149

@<SCITEGIC>MOL_PROPERTY
Angle
SciTegic.value.DoubleValue
1.142

@<SCITEGIC>MOL_PROPERTY
Pdih
SciTegic.value.DoubleValue
1.129

@<SCITEGIC>MOL_PROPERTY
Idih
SciTegic.value.DoubleValue
0.000

@<SCITEGIC>MOL_PROPERTY
Tether
SciTegic.value.DoubleValue
0.000

@<TRIPOS>MOLECULE
guest-s10_confgen4.mol2 : confsearch ligand conformer 893
          20          19           1
SMALL
USER_CHARGES
 
@<TRIPOS>ATOM
       1    N1      19.600765   21.200318   23.347310 N.4        1 MOL1        -0.5937
       2    H1      20.316789   21.758228   22.874173 H          1 MOL1         0.3684
       3    H2      19.912829   21.054448   24.310652 H          1 MOL1         0.3684
       4    H3      18.750837   21.769311   23.385823 H          1 MOL1         0.3684
       5    C1      19.357574   19.894146   22.641960 C.3        1 MOL1         0.1270
       6    H4      19.024654   20.149383   21.631110 H          1 MOL1         0.0960
       7    C2      18.225851   19.117054   23.335927 C.3        1 MOL1        -0.2382
       8    H5      17.347230   19.757801   23.479496 H          1 MOL1         0.1009
       9    H6      18.541793   18.746432   24.318919 H          1 MOL1         0.1009
      10    H7      17.904996   18.263912   22.727480 H          1 MOL1         0.1009
      11    C3      20.665772   19.074380   22.523910 C.3        1 MOL1        -0.1392
      12    H8      21.418128   19.720920   22.053124 H          1 MOL1         0.0998
      13    H9      21.057501   18.839091   23.522367 H          1 MOL1         0.0998
      14    C4      20.554927   17.781905   21.672520 C.3        1 MOL1        -0.1302
      15    H10     21.490132   17.651837   21.109855 H          1 MOL1         0.0998
      16    H11     19.762524   17.887834   20.918303 H          1 MOL1         0.0998
      17    C5      20.327471   16.506382   22.517706 C.3        1 MOL1        -0.2317
      18    H12     21.154042   16.351214   23.223270 H          1 MOL1         0.1009
      19    H13     20.273075   15.621487   21.870416 H          1 MOL1         0.1009
      20    H14     19.396947   16.552978   23.094329 H          1 MOL1         0.1009
@<TRIPOS>BOND
    1     1     2    1
    2     1     3    1
    3     1     4    1
    4     1     5    1
    5     5     6    1
    6     5     7    1
    7     7     8    1
    8     7     9    1
    9     7    10    1
   10     5    11    1
   11    11    12    1
   12    11    13    1
   13    11    14    1
   14    14    15    1
   15    14    16    1
   16    14    17    1
   17    17    18    1
   18    17    19    1
   19    17    20    1
@<TRIPOS>SUBSTRUCTURE
       1 MOL1            1 RESIDUE      1      MOL     
@<SCITEGIC>MOL_PROPERTY
VConf Rank
SciTegic.value.IntegerValue
893

@<SCITEGIC>MOL_PROPERTY
Conf_Id
SciTegic.value.IntegerValue
52

@<SCITEGIC>MOL_PROPERTY
Delta U+W
SciTegic.value.DoubleValue
2.995

@<SCITEGIC>MOL_PROPERTY
U+W
SciTegic.value.DoubleValue
-33.282

@<SCITEGIC>MOL_PROPERTY
Grad RMS
SciTegic.value.DoubleValue
0.000000

@<SCITEGIC>MOL_PROPERTY
U
SciTegic.value.DoubleValue
25.224

@<SCITEGIC>MOL_PROPERTY
W
SciTegic.value.DoubleValue
-58.506

@<SCITEGIC>MOL_PROPERTY
W(PB)
SciTegic.value.DoubleValue
-60.411

@<SCITEGIC>MOL_PROPERTY
W(SA)
SciTegic.value.DoubleValue
1.905

@<SCITEGIC>MOL_PROPERTY
Valence
SciTegic.value.DoubleValue
4.945

@<SCITEGIC>MOL_PROPERTY
Coulomb
SciTegic.value.DoubleValue
19.467

@<SCITEGIC>MOL_PROPERTY
VdW
SciTegic.value.DoubleValue
0.813

@<SCITEGIC>MOL_PROPERTY
VdW6
SciTegic.value.DoubleValue
-5.458

@<SCITEGIC>MOL_PROPERTY
VdW12
SciTegic.value.DoubleValue
6.270

@<SCITEGIC>MOL_PROPERTY
Bond
SciTegic.value.DoubleValue
0.200

@<SCITEGIC>MOL_PROPERTY
Angle
SciTegic.value.DoubleValue
1.675

@<SCITEGIC>MOL_PROPERTY
Pdih
SciTegic.value.DoubleValue
3.070

@<SCITEGIC>MOL_PROPERTY
Idih
SciTegic.value.DoubleValue
0.000

@<SCITEGIC>MOL_PROPERTY
Tether
SciTegic.value.DoubleValue
0.000

@<TRIPOS>MOLECULE
guest-s10_confgen4.mol2 : confsearch ligand conformer 894
          20          19           1
SMALL
USER_CHARGES
 
@<TRIPOS>ATOM
       1    N1      20.927648   17.904225   22.886766 N.4        1 MOL1        -0.5937
       2    H1      21.275771   17.769166   21.934428 H          1 MOL1         0.3684
       3    H2      21.189710   17.076407   23.428696 H          1 MOL1         0.3684
       4    H3      21.425489   18.703872   23.283887 H          1 MOL1         0.3684
       5    C1      19.439670   18.125536   22.900598 C.3        1 MOL1         0.1270
       6    H4      19.136544   18.212452   23.948594 H          1 MOL1         0.0960
       7    C2      18.725440   16.906313   22.293039 C.3        1 MOL1        -0.2382
       8    H5      18.983279   16.782123   21.233816 H          1 MOL1         0.1009
       9    H6      17.636193   17.012788   22.369529 H          1 MOL1         0.1009
      10    H7      19.005491   15.987652   22.823104 H          1 MOL1         0.1009
      11    C3      19.018874   19.419603   22.164012 C.3        1 MOL1        -0.1392
      12    H8      19.524055   19.477698   21.190877 H          1 MOL1         0.0998
      13    H9      17.945050   19.362008   21.941151 H          1 MOL1         0.0998
      14    C4      19.249732   20.728053   22.964806 C.3        1 MOL1        -0.1302
      15    H10     18.702298   20.681004   23.916718 H          1 MOL1         0.0998
      16    H11     18.802795   21.558229   22.399932 H          1 MOL1         0.0998
      17    C5      20.732321   21.068775   23.238747 C.3        1 MOL1        -0.2317
      18    H12     20.820654   22.093076   23.623834 H          1 MOL1         0.1009
      19    H13     21.332811   21.006050   22.321798 H          1 MOL1         0.1009
      20    H14     21.166568   20.405240   23.995444 H          1 MOL1         0.1009
@<TRIPOS>BOND
    1     1     2    1
    2     1     3    1
    3     1     4    1
    4     1     5    1
    5     5     6    1
    6     5     7    1
    7     7     8    1
    8     7     9    1
    9     7    10    1
   10     5    11    1
   11    11    12    1
   12    11    13    1
   13    11    14    1
   14    14    15    1
   15    14    16    1
   16    14    17    1
   17    17    18    1
   18    17    19    1
   19    17    20    1
@<TRIPOS>SUBSTRUCTURE
       1 MOL1            1 RESIDUE      1      MOL     
@<SCITEGIC>MOL_PROPERTY
VConf Rank
SciTegic.value.IntegerValue
894

@<SCITEGIC>MOL_PROPERTY
Conf_Id
SciTegic.value.IntegerValue
54

@<SCITEGIC>MOL_PROPERTY
Delta U+W
SciTegic.value.DoubleValue
2.752

@<SCITEGIC>MOL_PROPERTY
U+W
SciTegic.value.DoubleValue
-33.525

@<SCITEGIC>MOL_PROPERTY
Grad RMS
SciTegic.value.DoubleValue
0.000000

@<SCITEGIC>MOL_PROPERTY
U
SciTegic.value.DoubleValue
24.337

@<SCITEGIC>MOL_PROPERTY
W
SciTegic.value.DoubleValue
-57.862

@<SCITEGIC>MOL_PROPERTY
W(PB)
SciTegic.value.DoubleValue
-59.764

@<SCITEGIC>MOL_PROPERTY
W(SA)
SciTegic.value.DoubleValue
1.901

@<SCITEGIC>MOL_PROPERTY
Valence
SciTegic.value.DoubleValue
3.593

@<SCITEGIC>MOL_PROPERTY
Coulomb
SciTegic.value.DoubleValue
20.067

@<SCITEGIC>MOL_PROPERTY
VdW
SciTegic.value.DoubleValue
0.677

@<SCITEGIC>MOL_PROPERTY
VdW6
SciTegic.value.DoubleValue
-5.466

@<SCITEGIC>MOL_PROPERTY
VdW12
SciTegic.value.DoubleValue
6.144

@<SCITEGIC>MOL_PROPERTY
Bond
SciTegic.value.DoubleValue
0.191

@<SCITEGIC>MOL_PROPERTY
Angle
SciTegic.value.DoubleValue
1.557

@<SCITEGIC>MOL_PROPERTY
Pdih
SciTegic.value.DoubleValue
1.845

@<SCITEGIC>MOL_PROPERTY
Idih
SciTegic.value.DoubleValue
0.000

@<SCITEGIC>MOL_PROPERTY
Tether
SciTegic.value.DoubleValue
0.000

@<TRIPOS>MOLECULE
guest-s10_confgen4.mol2 : confsearch ligand conformer 895
          20          19           1
SMALL
USER_CHARGES
 
@<TRIPOS>ATOM
       1    N1      20.283252   20.937474   22.943140 N.4        1 MOL1        -0.5937
       2    H1      20.889448   21.685161   22.595081 H          1 MOL1         0.3684
       3    H2      20.122173   21.115560   23.938153 H          1 MOL1         0.3684
       4    H3      19.383658   21.026512   22.465383 H          1 MOL1         0.3684
       5    C1      20.895031   19.581782   22.715741 C.3        1 MOL1         0.1270
       6    H4      21.852449   19.588987   23.246140 H          1 MOL1         0.0960
       7    C2      21.193613   19.353127   21.223290 C.3        1 MOL1        -0.2382
       8    H5      21.637808   18.363185   21.061497 H          1 MOL1         0.1009
       9    H6      21.907005   20.100966   20.856008 H          1 MOL1         0.1009
      10    H7      20.286793   19.427372   20.611565 H          1 MOL1         0.1009
      11    C3      20.045114   18.438748   23.320859 C.3        1 MOL1        -0.1392
      12    H8      20.589081   17.492572   23.200089 H          1 MOL1         0.0998
      13    H9      19.963402   18.602798   24.403364 H          1 MOL1         0.0998
      14    C4      18.623201   18.291727   22.720116 C.3        1 MOL1        -0.1302
      15    H10     18.685177   18.075303   21.645253 H          1 MOL1         0.0998
      16    H11     18.068119   19.233629   22.824362 H          1 MOL1         0.0998
      17    C5      17.830364   17.161791   23.411479 C.3        1 MOL1        -0.2317
      18    H12     16.827634   17.068279   22.974610 H          1 MOL1         0.1009
      19    H13     17.712258   17.360948   24.484609 H          1 MOL1         0.1009
      20    H14     18.338496   16.195380   23.297132 H          1 MOL1         0.1009
@<TRIPOS>BOND
    1     1     2    1
    2     1     3    1
    3     1     4    1
    4     1     5    1
    5     5     6    1
    6     5     7    1
    7     7     8    1
    8     7     9    1
    9     7    10    1
   10     5    11    1
   11    11    12    1
   12    11    13    1
   13    11    14    1
   14    14    15    1
   15    14    16    1
   16    14    17    1
   17    17    18    1
   18    17    19    1
   19    17    20    1
@<TRIPOS>SUBSTRUCTURE
       1 MOL1            1 RESIDUE      1      MOL     
@<SCITEGIC>MOL_PROPERTY
VConf Rank
SciTegic.value.IntegerValue
895

@<SCITEGIC>MOL_PROPERTY
Conf_Id
SciTegic.value.IntegerValue
63

@<SCITEGIC>MOL_PROPERTY
Delta U+W
SciTegic.value.DoubleValue
0.420

@<SCITEGIC>MOL_PROPERTY
U+W
SciTegic.value.DoubleValue
-35.856

@<SCITEGIC>MOL_PROPERTY
Grad RMS
SciTegic.value.DoubleValue
0.000000

@<SCITEGIC>MOL_PROPERTY
U
SciTegic.value.DoubleValue
22.625

@<SCITEGIC>MOL_PROPERTY
W
SciTegic.value.DoubleValue
-58.481

@<SCITEGIC>MOL_PROPERTY
W(PB)
SciTegic.value.DoubleValue
-60.400

@<SCITEGIC>MOL_PROPERTY
W(SA)
SciTegic.value.DoubleValue
1.919

@<SCITEGIC>MOL_PROPERTY
Valence
SciTegic.value.DoubleValue
2.404

@<SCITEGIC>MOL_PROPERTY
Coulomb
SciTegic.value.DoubleValue
19.464

@<SCITEGIC>MOL_PROPERTY
VdW
SciTegic.value.DoubleValue
0.757

@<SCITEGIC>MOL_PROPERTY
VdW6
SciTegic.value.DoubleValue
-5.074

@<SCITEGIC>MOL_PROPERTY
VdW12
SciTegic.value.DoubleValue
5.830

@<SCITEGIC>MOL_PROPERTY
Bond
SciTegic.value.DoubleValue
0.172

@<SCITEGIC>MOL_PROPERTY
Angle
SciTegic.value.DoubleValue
1.207

@<SCITEGIC>MOL_PROPERTY
Pdih
SciTegic.value.DoubleValue
1.025

@<SCITEGIC>MOL_PROPERTY
Idih
SciTegic.value.DoubleValue
0.000

@<SCITEGIC>MOL_PROPERTY
Tether
SciTegic.value.DoubleValue
0.000

@<TRIPOS>MOLECULE
guest-s10_confgen4.mol2 : confsearch ligand conformer 896
          20          19           1
SMALL
USER_CHARGES
 
@<TRIPOS>ATOM
       1    N1      19.024958   18.839631   21.121962 N.4        1 MOL1        -0.5937
       2    H1      19.445174   19.760684   20.973791 H          1 MOL1         0.3684
       3    H2      18.009530   18.962769   21.134784 H          1 MOL1         0.3684
       4    H3      19.253155   18.264710   20.306527 H          1 MOL1         0.3684
       5    C1      19.520138   18.211334   22.396410 C.3        1 MOL1         0.1270
       6    H4      20.605492   18.113889   22.298225 H          1 MOL1         0.0960
       7    C2      18.927820   16.803787   22.573842 C.3        1 MOL1        -0.2382
       8    H5      19.170657   16.168864   21.712947 H          1 MOL1         0.1009
       9    H6      17.835836   16.841527   22.673341 H          1 MOL1         0.1009
      10    H7      19.335858   16.319337   23.469630 H          1 MOL1         0.1009
      11    C3      19.222114   19.081090   23.638862 C.3        1 MOL1        -0.1392
      12    H8      18.135416   19.177177   23.764111 H          1 MOL1         0.0998
      13    H9      19.589098   18.562262   24.534445 H          1 MOL1         0.0998
      14    C4      19.853720   20.495522   23.590334 C.3        1 MOL1        -0.1302
      15    H10     19.583084   21.034148   24.509323 H          1 MOL1         0.0998
      16    H11     19.423259   21.075806   22.762965 H          1 MOL1         0.0998
      17    C5      21.393860   20.467271   23.461730 C.3        1 MOL1        -0.2317
      18    H12     21.847475   19.891903   24.279266 H          1 MOL1         0.1009
      19    H13     21.801875   21.485547   23.503044 H          1 MOL1         0.1009
      20    H14     21.712836   20.021876   22.511060 H          1 MOL1         0.1009
@<TRIPOS>BOND
    1     1     2    1
    2     1     3    1
    3     1     4    1
    4     1     5    1
    5     5     6    1
    6     5     7    1
    7     7     8    1
    8     7     9    1
    9     7    10    1
   10     5    11    1
   11    11    12    1
   12    11    13    1
   13    11    14    1
   14    14    15    1
   15    14    16    1
   16    14    17    1
   17    17    18    1
   18    17    19    1
   19    17    20    1
@<TRIPOS>SUBSTRUCTURE
       1 MOL1            1 RESIDUE      1      MOL     
@<SCITEGIC>MOL_PROPERTY
VConf Rank
SciTegic.value.IntegerValue
896

@<SCITEGIC>MOL_PROPERTY
Conf_Id
SciTegic.value.IntegerValue
50

@<SCITEGIC>MOL_PROPERTY
Delta U+W
SciTegic.value.DoubleValue
0.466

@<SCITEGIC>MOL_PROPERTY
U+W
SciTegic.value.DoubleValue
-35.811

@<SCITEGIC>MOL_PROPERTY
Grad RMS
SciTegic.value.DoubleValue
0.000000

@<SCITEGIC>MOL_PROPERTY
U
SciTegic.value.DoubleValue
22.369

@<SCITEGIC>MOL_PROPERTY
W
SciTegic.value.DoubleValue
-58.180

@<SCITEGIC>MOL_PROPERTY
W(PB)
SciTegic.value.DoubleValue
-60.103

@<SCITEGIC>MOL_PROPERTY
W(SA)
SciTegic.value.DoubleValue
1.923

@<SCITEGIC>MOL_PROPERTY
Valence
SciTegic.value.DoubleValue
2.168

@<SCITEGIC>MOL_PROPERTY
Coulomb
SciTegic.value.DoubleValue
19.636

@<SCITEGIC>MOL_PROPERTY
VdW
SciTegic.value.DoubleValue
0.566

@<SCITEGIC>MOL_PROPERTY
VdW6
SciTegic.value.DoubleValue
-5.263

@<SCITEGIC>MOL_PROPERTY
VdW12
SciTegic.value.DoubleValue
5.829

@<SCITEGIC>MOL_PROPERTY
Bond
SciTegic.value.DoubleValue
0.162

@<SCITEGIC>MOL_PROPERTY
Angle
SciTegic.value.DoubleValue
1.066

@<SCITEGIC>MOL_PROPERTY
Pdih
SciTegic.value.DoubleValue
0.939

@<SCITEGIC>MOL_PROPERTY
Idih
SciTegic.value.DoubleValue
0.000

@<SCITEGIC>MOL_PROPERTY
Tether
SciTegic.value.DoubleValue
0.000

@<TRIPOS>MOLECULE
guest-s10_confgen4.mol2 : confsearch ligand conformer 897
          20          19           1
SMALL
USER_CHARGES
 
@<TRIPOS>ATOM
       1    N1      17.894088   20.203966   22.148941 N.4        1 MOL1        -0.5937
       2    H1      18.096453   20.489144   21.186799 H          1 MOL1         0.3684
       3    H2      17.929488   21.043868   22.732194 H          1 MOL1         0.3684
       4    H3      16.929445   19.862058   22.166208 H          1 MOL1         0.3684
       5    C1      18.858944   19.154760   22.631435 C.3        1 MOL1         0.1270
       6    H4      18.751378   18.305372   21.949722 H          1 MOL1         0.0960
       7    C2      18.475284   18.699540   24.051837 C.3        1 MOL1        -0.2382
       8    H5      18.523925   19.535019   24.761256 H          1 MOL1         0.1009
       9    H6      19.141896   17.910288   24.415841 H          1 MOL1         0.1009
      10    H7      17.453270   18.301563   24.067012 H          1 MOL1         0.1009
      11    C3      20.326669   19.644065   22.563643 C.3        1 MOL1        -0.1392
      12    H8      20.383377   20.520049   21.904015 H          1 MOL1         0.0998
      13    H9      20.660108   19.994649   23.549504 H          1 MOL1         0.0998
      14    C4      21.315834   18.586450   22.011570 C.3        1 MOL1        -0.1302
      15    H10     22.310353   19.046614   21.927235 H          1 MOL1         0.0998
      16    H11     21.021843   18.306384   20.990192 H          1 MOL1         0.0998
      17    C5      21.429506   17.313461   22.879219 C.3        1 MOL1        -0.2317
      18    H12     21.680811   17.563074   23.918242 H          1 MOL1         0.1009
      19    H13     22.218862   16.655586   22.493008 H          1 MOL1         0.1009
      20    H14     20.494145   16.740133   22.874458 H          1 MOL1         0.1009
@<TRIPOS>BOND
    1     1     2    1
    2     1     3    1
    3     1     4    1
    4     1     5    1
    5     5     6    1
    6     5     7    1
    7     7     8    1
    8     7     9    1
    9     7    10    1
   10     5    11    1
   11    11    12    1
   12    11    13    1
   13    11    14    1
   14    14    15    1
   15    14    16    1
   16    14    17    1
   17    17    18    1
   18    17    19    1
   19    17    20    1
@<TRIPOS>SUBSTRUCTURE
       1 MOL1            1 RESIDUE      1      MOL     
@<SCITEGIC>MOL_PROPERTY
VConf Rank
SciTegic.value.IntegerValue
897

@<SCITEGIC>MOL_PROPERTY
Conf_Id
SciTegic.value.IntegerValue
3

@<SCITEGIC>MOL_PROPERTY
Delta U+W
SciTegic.value.DoubleValue
3.093

@<SCITEGIC>MOL_PROPERTY
U+W
SciTegic.value.DoubleValue
-33.184

@<SCITEGIC>MOL_PROPERTY
Grad RMS
SciTegic.value.DoubleValue
0.000000

@<SCITEGIC>MOL_PROPERTY
U
SciTegic.value.DoubleValue
25.256

@<SCITEGIC>MOL_PROPERTY
W
SciTegic.value.DoubleValue
-58.439

@<SCITEGIC>MOL_PROPERTY
W(PB)
SciTegic.value.DoubleValue
-60.337

@<SCITEGIC>MOL_PROPERTY
W(SA)
SciTegic.value.DoubleValue
1.898

@<SCITEGIC>MOL_PROPERTY
Valence
SciTegic.value.DoubleValue
4.963

@<SCITEGIC>MOL_PROPERTY
Coulomb
SciTegic.value.DoubleValue
19.511

@<SCITEGIC>MOL_PROPERTY
VdW
SciTegic.value.DoubleValue
0.782

@<SCITEGIC>MOL_PROPERTY
VdW6
SciTegic.value.DoubleValue
-5.429

@<SCITEGIC>MOL_PROPERTY
VdW12
SciTegic.value.DoubleValue
6.211

@<SCITEGIC>MOL_PROPERTY
Bond
SciTegic.value.DoubleValue
0.174

@<SCITEGIC>MOL_PROPERTY
Angle
SciTegic.value.DoubleValue
1.377

@<SCITEGIC>MOL_PROPERTY
Pdih
SciTegic.value.DoubleValue
3.412

@<SCITEGIC>MOL_PROPERTY
Idih
SciTegic.value.DoubleValue
0.000

@<SCITEGIC>MOL_PROPERTY
Tether
SciTegic.value.DoubleValue
0.000

@<TRIPOS>MOLECULE
guest-s10_confgen4.mol2 : confsearch ligand conformer 898
          20          19           1
SMALL
USER_CHARGES
 
@<TRIPOS>ATOM
       1    N1      21.929480   19.045689   22.425481 N.4        1 MOL1        -0.5937
       2    H1      22.606224   18.550734   23.012568 H          1 MOL1         0.3684
       3    H2      22.133574   20.045530   22.506063 H          1 MOL1         0.3684
       4    H3      22.111285   18.773086   21.456296 H          1 MOL1         0.3684
       5    C1      20.515345   18.733014   22.831484 C.3        1 MOL1         0.1270
       6    H4      20.417705   19.052768   23.873271 H          1 MOL1         0.0960
       7    C2      20.261426   17.216144   22.762686 C.3        1 MOL1        -0.2382
       8    H5      19.284408   16.956845   23.186636 H          1 MOL1         0.1009
       9    H6      21.019619   16.670639   23.337753 H          1 MOL1         0.1009
      10    H7      20.294092   16.854565   21.727466 H          1 MOL1         0.1009
      11    C3      19.498921   19.531477   21.980739 C.3        1 MOL1        -0.1392
      12    H8      19.778454   20.593005   22.004076 H          1 MOL1         0.0998
      13    H9      19.578623   19.218824   20.931153 H          1 MOL1         0.0998
      14    C4      18.022253   19.406161   22.435551 C.3        1 MOL1        -0.1302
      15    H10     17.666773   18.376066   22.298394 H          1 MOL1         0.0998
      16    H11     17.397993   20.028627   21.779293 H          1 MOL1         0.0998
      17    C5      17.800338   19.844781   23.900991 C.3        1 MOL1        -0.2317
      18    H12     18.151283   20.872244   24.063211 H          1 MOL1         0.1009
      19    H13     18.327613   19.186750   24.603159 H          1 MOL1         0.1009
      20    H14     16.732899   19.811516   24.154931 H          1 MOL1         0.1009
@<TRIPOS>BOND
    1     1     2    1
    2     1     3    1
    3     1     4    1
    4     1     5    1
    5     5     6    1
    6     5     7    1
    7     7     8    1
    8     7     9    1
    9     7    10    1
   10     5    11    1
   11    11    12    1
   12    11    13    1
   13    11    14    1
   14    14    15    1
   15    14    16    1
   16    14    17    1
   17    17    18    1
   18    17    19    1
   19    17    20    1
@<TRIPOS>SUBSTRUCTURE
       1 MOL1            1 RESIDUE      1      MOL     
@<SCITEGIC>MOL_PROPERTY
VConf Rank
SciTegic.value.IntegerValue
898

@<SCITEGIC>MOL_PROPERTY
Conf_Id
SciTegic.value.IntegerValue
64

@<SCITEGIC>MOL_PROPERTY
Delta U+W
SciTegic.value.DoubleValue
0.544

@<SCITEGIC>MOL_PROPERTY
U+W
SciTegic.value.DoubleValue
-35.732

@<SCITEGIC>MOL_PROPERTY
Grad RMS
SciTegic.value.DoubleValue
0.000000

@<SCITEGIC>MOL_PROPERTY
U
SciTegic.value.DoubleValue
22.800

@<SCITEGIC>MOL_PROPERTY
W
SciTegic.value.DoubleValue
-58.532

@<SCITEGIC>MOL_PROPERTY
W(PB)
SciTegic.value.DoubleValue
-60.437

@<SCITEGIC>MOL_PROPERTY
W(SA)
SciTegic.value.DoubleValue
1.905

@<SCITEGIC>MOL_PROPERTY
Valence
SciTegic.value.DoubleValue
2.662

@<SCITEGIC>MOL_PROPERTY
Coulomb
SciTegic.value.DoubleValue
19.485

@<SCITEGIC>MOL_PROPERTY
VdW
SciTegic.value.DoubleValue
0.653

@<SCITEGIC>MOL_PROPERTY
VdW6
SciTegic.value.DoubleValue
-5.460

@<SCITEGIC>MOL_PROPERTY
VdW12
SciTegic.value.DoubleValue
6.113

@<SCITEGIC>MOL_PROPERTY
Bond
SciTegic.value.DoubleValue
0.174

@<SCITEGIC>MOL_PROPERTY
Angle
SciTegic.value.DoubleValue
1.378

@<SCITEGIC>MOL_PROPERTY
Pdih
SciTegic.value.DoubleValue
1.109

@<SCITEGIC>MOL_PROPERTY
Idih
SciTegic.value.DoubleValue
0.000

@<SCITEGIC>MOL_PROPERTY
Tether
SciTegic.value.DoubleValue
0.000

@<TRIPOS>MOLECULE
guest-s10_confgen4.mol2 : confsearch ligand conformer 899
          20          19           1
SMALL
USER_CHARGES
 
@<TRIPOS>ATOM
       1    N1      20.062069   19.594384   24.681218 N.4        1 MOL1        -0.5937
       2    H1      19.148812   19.138581   24.740194 H          1 MOL1         0.3684
       3    H2      19.978964   20.505736   25.139631 H          1 MOL1         0.3684
       4    H3      20.720050   19.036489   25.232103 H          1 MOL1         0.3684
       5    C1      20.516103   19.735916   23.253403 C.3        1 MOL1         0.1270
       6    H4      21.486815   20.239708   23.296694 H          1 MOL1         0.0960
       7    C2      19.561716   20.645358   22.462337 C.3        1 MOL1        -0.2382
       8    H5      18.532480   20.269125   22.491173 H          1 MOL1         0.1009
       9    H6      19.875956   20.724535   21.414328 H          1 MOL1         0.1009
      10    H7      19.558328   21.657131   22.885746 H          1 MOL1         0.1009
      11    C3      20.749168   18.364778   22.570321 C.3        1 MOL1        -0.1392
      12    H8      21.241593   18.519664   21.601288 H          1 MOL1         0.0998
      13    H9      21.478737   17.814912   23.179302 H          1 MOL1         0.0998
      14    C4      19.494083   17.467009   22.385942 C.3        1 MOL1        -0.1302
      15    H10     18.767012   17.639917   23.190213 H          1 MOL1         0.0998
      16    H11     19.802829   16.416641   22.482821 H          1 MOL1         0.0998
      17    C5      18.812475   17.633037   21.007323 C.3        1 MOL1        -0.2317
      18    H12     18.434746   18.649535   20.852310 H          1 MOL1         0.1009
      19    H13     17.960702   16.946681   20.915873 H          1 MOL1         0.1009
      20    H14     19.511981   17.403809   20.192958 H          1 MOL1         0.1009
@<TRIPOS>BOND
    1     1     2    1
    2     1     3    1
    3     1     4    1
    4     1     5    1
    5     5     6    1
    6     5     7    1
    7     7     8    1
    8     7     9    1
    9     7    10    1
   10     5    11    1
   11    11    12    1
   12    11    13    1
   13    11    14    1
   14    14    15    1
   15    14    16    1
   16    14    17    1
   17    17    18    1
   18    17    19    1
   19    17    20    1
@<TRIPOS>SUBSTRUCTURE
       1 MOL1            1 RESIDUE      1      MOL     
@<SCITEGIC>MOL_PROPERTY
VConf Rank
SciTegic.value.IntegerValue
899

@<SCITEGIC>MOL_PROPERTY
Conf_Id
SciTegic.value.IntegerValue
35

@<SCITEGIC>MOL_PROPERTY
Delta U+W
SciTegic.value.DoubleValue
3.004

@<SCITEGIC>MOL_PROPERTY
U+W
SciTegic.value.DoubleValue
-33.272

@<SCITEGIC>MOL_PROPERTY
Grad RMS
SciTegic.value.DoubleValue
0.000000

@<SCITEGIC>MOL_PROPERTY
U
SciTegic.value.DoubleValue
25.367

@<SCITEGIC>MOL_PROPERTY
W
SciTegic.value.DoubleValue
-58.639

@<SCITEGIC>MOL_PROPERTY
W(PB)
SciTegic.value.DoubleValue
-60.512

@<SCITEGIC>MOL_PROPERTY
W(SA)
SciTegic.value.DoubleValue
1.873

@<SCITEGIC>MOL_PROPERTY
Valence
SciTegic.value.DoubleValue
4.943

@<SCITEGIC>MOL_PROPERTY
Coulomb
SciTegic.value.DoubleValue
19.661

@<SCITEGIC>MOL_PROPERTY
VdW
SciTegic.value.DoubleValue
0.764

@<SCITEGIC>MOL_PROPERTY
VdW6
SciTegic.value.DoubleValue
-5.871

@<SCITEGIC>MOL_PROPERTY
VdW12
SciTegic.value.DoubleValue
6.636

@<SCITEGIC>MOL_PROPERTY
Bond
SciTegic.value.DoubleValue
0.230

@<SCITEGIC>MOL_PROPERTY
Angle
SciTegic.value.DoubleValue
1.857

@<SCITEGIC>MOL_PROPERTY
Pdih
SciTegic.value.DoubleValue
2.855

@<SCITEGIC>MOL_PROPERTY
Idih
SciTegic.value.DoubleValue
0.000

@<SCITEGIC>MOL_PROPERTY
Tether
SciTegic.value.DoubleValue
0.000

@<TRIPOS>MOLECULE
guest-s10_confgen4.mol2 : confsearch ligand conformer 900
          20          19           1
SMALL
USER_CHARGES
 
@<TRIPOS>ATOM
       1    N1      19.356767   19.609672   24.300178 N.4        1 MOL1        -0.5937
       2    H1      19.772756   20.183311   25.038753 H          1 MOL1         0.3684
       3    H2      18.564745   19.109503   24.712628 H          1 MOL1         0.3684
       4    H3      18.982919   20.242026   23.589993 H          1 MOL1         0.3684
       5    C1      20.360741   18.658790   23.708297 C.3        1 MOL1         0.1270
       6    H4      20.675161   18.017213   24.537419 H          1 MOL1         0.0960
       7    C2      21.610521   19.403034   23.205641 C.3        1 MOL1        -0.2382
       8    H5      21.360021   20.138429   22.431858 H          1 MOL1         0.1009
       9    H6      22.340774   18.698884   22.788122 H          1 MOL1         0.1009
      10    H7      22.097555   19.936975   24.030670 H          1 MOL1         0.1009
      11    C3      19.752374   17.728558   22.627616 C.3        1 MOL1        -0.1392
      12    H8      20.443447   16.887152   22.486206 H          1 MOL1         0.0998
      13    H9      18.829082   17.283352   23.020731 H          1 MOL1         0.0998
      14    C4      19.467828   18.348945   21.230924 C.3        1 MOL1        -0.1302
      15    H10     19.085723   17.552225   20.577428 H          1 MOL1         0.0998
      16    H11     20.404055   18.686904   20.766279 H          1 MOL1         0.0998
      17    C5      18.442604   19.505586   21.235268 C.3        1 MOL1        -0.2317
      18    H12     17.526375   19.223765   21.770285 H          1 MOL1         0.1009
      19    H13     18.160115   19.766484   20.207016 H          1 MOL1         0.1009
      20    H14     18.857046   20.410734   21.693757 H          1 MOL1         0.1009
@<TRIPOS>BOND
    1     1     2    1
    2     1     3    1
    3     1     4    1
    4     1     5    1
    5     5     6    1
    6     5     7    1
    7     7     8    1
    8     7     9    1
    9     7    10    1
   10     5    11    1
   11    11    12    1
   12    11    13    1
   13    11    14    1
   14    14    15    1
   15    14    16    1
   16    14    17    1
   17    17    18    1
   18    17    19    1
   19    17    20    1
@<TRIPOS>SUBSTRUCTURE
       1 MOL1            1 RESIDUE      1      MOL     
@<SCITEGIC>MOL_PROPERTY
VConf Rank
SciTegic.value.IntegerValue
900

@<SCITEGIC>MOL_PROPERTY
Conf_Id
SciTegic.value.IntegerValue
55

@<SCITEGIC>MOL_PROPERTY
Delta U+W
SciTegic.value.DoubleValue
2.767

@<SCITEGIC>MOL_PROPERTY
U+W
SciTegic.value.DoubleValue
-33.509

@<SCITEGIC>MOL_PROPERTY
Grad RMS
SciTegic.value.DoubleValue
0.000000

@<SCITEGIC>MOL_PROPERTY
U
SciTegic.value.DoubleValue
24.552

@<SCITEGIC>MOL_PROPERTY
W
SciTegic.value.DoubleValue
-58.061

@<SCITEGIC>MOL_PROPERTY
W(PB)
SciTegic.value.DoubleValue
-59.930

@<SCITEGIC>MOL_PROPERTY
W(SA)
SciTegic.value.DoubleValue
1.869

@<SCITEGIC>MOL_PROPERTY
Valence
SciTegic.value.DoubleValue
3.726

@<SCITEGIC>MOL_PROPERTY
Coulomb
SciTegic.value.DoubleValue
20.219

@<SCITEGIC>MOL_PROPERTY
VdW
SciTegic.value.DoubleValue
0.606

@<SCITEGIC>MOL_PROPERTY
VdW6
SciTegic.value.DoubleValue
-6.395

@<SCITEGIC>MOL_PROPERTY
VdW12
SciTegic.value.DoubleValue
7.001

@<SCITEGIC>MOL_PROPERTY
Bond
SciTegic.value.DoubleValue
0.241

@<SCITEGIC>MOL_PROPERTY
Angle
SciTegic.value.DoubleValue
2.098

@<SCITEGIC>MOL_PROPERTY
Pdih
SciTegic.value.DoubleValue
1.387

@<SCITEGIC>MOL_PROPERTY
Idih
SciTegic.value.DoubleValue
0.000

@<SCITEGIC>MOL_PROPERTY
Tether
SciTegic.value.DoubleValue
0.000

@<TRIPOS>MOLECULE
guest-s10_confgen4.mol2 : confsearch ligand conformer 901
          20          19           1
SMALL
USER_CHARGES
 
@<TRIPOS>ATOM
       1    N1      21.363649   18.172363   23.528268 N.4        1 MOL1        -0.5937
       2    H1      20.894450   17.579720   24.217596 H          1 MOL1         0.3684
       3    H2      22.306460   18.360947   23.879267 H          1 MOL1         0.3684
       4    H3      21.463146   17.625577   22.669370 H          1 MOL1         0.3684
       5    C1      20.600771   19.446960   23.286441 C.3        1 MOL1         0.1270
       6    H4      21.164951   20.014766   22.539993 H          1 MOL1         0.0960
       7    C2      20.527226   20.284804   24.573522 C.3        1 MOL1        -0.2382
       8    H5      21.532960   20.501272   24.954187 H          1 MOL1         0.1009
       9    H6      19.970438   19.758663   25.358987 H          1 MOL1         0.1009
      10    H7      20.029403   21.244399   24.386470 H          1 MOL1         0.1009
      11    C3      19.182571   19.193234   22.729232 C.3        1 MOL1        -0.1392
      12    H8      18.601776   18.603409   23.450828 H          1 MOL1         0.0998
      13    H9      18.665620   20.156498   22.624586 H          1 MOL1         0.0998
      14    C4      19.190114   18.479555   21.355869 C.3        1 MOL1        -0.1302
      15    H10     19.652643   17.487394   21.445921 H          1 MOL1         0.0998
      16    H11     19.801394   19.052389   20.644223 H          1 MOL1         0.0998
      17    C5      17.763038   18.318407   20.789488 C.3        1 MOL1        -0.2317
      18    H12     17.134850   17.723268   21.465095 H          1 MOL1         0.1009
      19    H13     17.787009   17.809722   19.816991 H          1 MOL1         0.1009
      20    H14     17.281539   19.294580   20.646390 H          1 MOL1         0.1009
@<TRIPOS>BOND
    1     1     2    1
    2     1     3    1
    3     1     4    1
    4     1     5    1
    5     5     6    1
    6     5     7    1
    7     7     8    1
    8     7     9    1
    9     7    10    1
   10     5    11    1
   11    11    12    1
   12    11    13    1
   13    11    14    1
   14    14    15    1
   15    14    16    1
   16    14    17    1
   17    17    18    1
   18    17    19    1
   19    17    20    1
@<TRIPOS>SUBSTRUCTURE
       1 MOL1            1 RESIDUE      1      MOL     
@<SCITEGIC>MOL_PROPERTY
VConf Rank
SciTegic.value.IntegerValue
901

@<SCITEGIC>MOL_PROPERTY
Conf_Id
SciTegic.value.IntegerValue
74

@<SCITEGIC>MOL_PROPERTY
Delta U+W
SciTegic.value.DoubleValue
0.000

@<SCITEGIC>MOL_PROPERTY
U+W
SciTegic.value.DoubleValue
-36.276

@<SCITEGIC>MOL_PROPERTY
Grad RMS
SciTegic.value.DoubleValue
0.000000

@<SCITEGIC>MOL_PROPERTY
U
SciTegic.value.DoubleValue
22.080

@<SCITEGIC>MOL_PROPERTY
W
SciTegic.value.DoubleValue
-58.356

@<SCITEGIC>MOL_PROPERTY
W(PB)
SciTegic.value.DoubleValue
-60.289

@<SCITEGIC>MOL_PROPERTY
W(SA)
SciTegic.value.DoubleValue
1.932

@<SCITEGIC>MOL_PROPERTY
Valence
SciTegic.value.DoubleValue
1.885

@<SCITEGIC>MOL_PROPERTY
Coulomb
SciTegic.value.DoubleValue
19.559

@<SCITEGIC>MOL_PROPERTY
VdW
SciTegic.value.DoubleValue
0.637

@<SCITEGIC>MOL_PROPERTY
VdW6
SciTegic.value.DoubleValue
-4.482

@<SCITEGIC>MOL_PROPERTY
VdW12
SciTegic.value.DoubleValue
5.119

@<SCITEGIC>MOL_PROPERTY
Bond
SciTegic.value.DoubleValue
0.136

@<SCITEGIC>MOL_PROPERTY
Angle
SciTegic.value.DoubleValue
0.867

@<SCITEGIC>MOL_PROPERTY
Pdih
SciTegic.value.DoubleValue
0.882

@<SCITEGIC>MOL_PROPERTY
Idih
SciTegic.value.DoubleValue
0.000

@<SCITEGIC>MOL_PROPERTY
Tether
SciTegic.value.DoubleValue
0.000

@<TRIPOS>MOLECULE
guest-s10_confgen4.mol2 : confsearch ligand conformer 902
          20          19           1
SMALL
USER_CHARGES
 
@<TRIPOS>ATOM
       1    N1      18.774805   16.788199   22.289414 N.4        1 MOL1        -0.5937
       2    H1      18.059956   16.730294   23.019822 H          1 MOL1         0.3684
       3    H2      19.565722   16.212248   22.588508 H          1 MOL1         0.3684
       4    H3      18.383557   16.354614   21.448814 H          1 MOL1         0.3684
       5    C1      19.192534   18.210104   22.032207 C.3        1 MOL1         0.1270
       6    H4      18.290484   18.744093   21.717523 H          1 MOL1         0.0960
       7    C2      20.216302   18.266307   20.883495 C.3        1 MOL1        -0.2382
       8    H5      19.834232   17.741219   19.999455 H          1 MOL1         0.1009
       9    H6      21.164868   17.797596   21.173516 H          1 MOL1         0.1009
      10    H7      20.421486   19.299762   20.581676 H          1 MOL1         0.1009
      11    C3      19.725130   18.878461   23.321055 C.3        1 MOL1        -0.1392
      12    H8      18.997819   18.709348   24.126090 H          1 MOL1         0.0998
      13    H9      20.655629   18.387099   23.635034 H          1 MOL1         0.0998
      14    C4      19.960572   20.402571   23.183877 C.3        1 MOL1        -0.1302
      15    H10     19.047622   20.886438   22.809088 H          1 MOL1         0.0998
      16    H11     20.751543   20.601469   22.448551 H          1 MOL1         0.0998
      17    C5      20.361325   21.040672   24.531433 C.3        1 MOL1        -0.2317
      18    H12     19.575107   20.901272   25.284870 H          1 MOL1         0.1009
      19    H13     20.527780   22.119507   24.415262 H          1 MOL1         0.1009
      20    H14     21.287985   20.596968   24.918328 H          1 MOL1         0.1009
@<TRIPOS>BOND
    1     1     2    1
    2     1     3    1
    3     1     4    1
    4     1     5    1
    5     5     6    1
    6     5     7    1
    7     7     8    1
    8     7     9    1
    9     7    10    1
   10     5    11    1
   11    11    12    1
   12    11    13    1
   13    11    14    1
   14    14    15    1
   15    14    16    1
   16    14    17    1
   17    17    18    1
   18    17    19    1
   19    17    20    1
@<TRIPOS>SUBSTRUCTURE
       1 MOL1            1 RESIDUE      1      MOL     
@<SCITEGIC>MOL_PROPERTY
VConf Rank
SciTegic.value.IntegerValue
902

@<SCITEGIC>MOL_PROPERTY
Conf_Id
SciTegic.value.IntegerValue
80

@<SCITEGIC>MOL_PROPERTY
Delta U+W
SciTegic.value.DoubleValue
0.460

@<SCITEGIC>MOL_PROPERTY
U+W
SciTegic.value.DoubleValue
-35.817

@<SCITEGIC>MOL_PROPERTY
Grad RMS
SciTegic.value.DoubleValue
0.000000

@<SCITEGIC>MOL_PROPERTY
U
SciTegic.value.DoubleValue
22.495

@<SCITEGIC>MOL_PROPERTY
W
SciTegic.value.DoubleValue
-58.311

@<SCITEGIC>MOL_PROPERTY
W(PB)
SciTegic.value.DoubleValue
-60.259

@<SCITEGIC>MOL_PROPERTY
W(SA)
SciTegic.value.DoubleValue
1.948

@<SCITEGIC>MOL_PROPERTY
Valence
SciTegic.value.DoubleValue
2.419

@<SCITEGIC>MOL_PROPERTY
Coulomb
SciTegic.value.DoubleValue
19.304

@<SCITEGIC>MOL_PROPERTY
VdW
SciTegic.value.DoubleValue
0.772

@<SCITEGIC>MOL_PROPERTY
VdW6
SciTegic.value.DoubleValue
-4.635

@<SCITEGIC>MOL_PROPERTY
VdW12
SciTegic.value.DoubleValue
5.407

@<SCITEGIC>MOL_PROPERTY
Bond
SciTegic.value.DoubleValue
0.149

@<SCITEGIC>MOL_PROPERTY
Angle
SciTegic.value.DoubleValue
1.142

@<SCITEGIC>MOL_PROPERTY
Pdih
SciTegic.value.DoubleValue
1.129

@<SCITEGIC>MOL_PROPERTY
Idih
SciTegic.value.DoubleValue
0.000

@<SCITEGIC>MOL_PROPERTY
Tether
SciTegic.value.DoubleValue
0.000

@<TRIPOS>MOLECULE
guest-s10_confgen4.mol2 : confsearch ligand conformer 903
          20          19           1
SMALL
USER_CHARGES
 
@<TRIPOS>ATOM
       1    N1      20.582129   19.598698   20.589434 N.4        1 MOL1        -0.5937
       2    H1      21.562000   19.330644   20.463689 H          1 MOL1         0.3684
       3    H2      20.563946   20.596074   20.816588 H          1 MOL1         0.3684
       4    H3      20.118992   19.484554   19.683846 H          1 MOL1         0.3684
       5    C1      19.913557   18.776947   21.657370 C.3        1 MOL1         0.1270
       6    H4      19.976382   17.735561   21.326662 H          1 MOL1         0.0960
       7    C2      18.426431   19.154735   21.766879 C.3        1 MOL1        -0.2382
       8    H5      17.949401   19.141022   20.779257 H          1 MOL1         0.1009
       9    H6      18.300698   20.158058   22.192305 H          1 MOL1         0.1009
      10    H7      17.884685   18.438505   22.394997 H          1 MOL1         0.1009
      11    C3      20.666062   18.898922   23.005032 C.3        1 MOL1        -0.1392
      12    H8      21.718347   18.646694   22.818569 H          1 MOL1         0.0998
      13    H9      20.665554   19.942441   23.346788 H          1 MOL1         0.0998
      14    C4      20.149315   17.965009   24.131274 C.3        1 MOL1        -0.1302
      15    H10     21.009980   17.615107   24.718592 H          1 MOL1         0.0998
      16    H11     19.692696   17.062933   23.700318 H          1 MOL1         0.0998
      17    C5      19.162714   18.658007   25.100503 C.3        1 MOL1        -0.2317
      18    H12     19.635970   19.517172   25.593433 H          1 MOL1         0.1009
      19    H13     18.841598   17.960661   25.885090 H          1 MOL1         0.1009
      20    H14     18.263379   19.017315   24.588022 H          1 MOL1         0.1009
@<TRIPOS>BOND
    1     1     2    1
    2     1     3    1
    3     1     4    1
    4     1     5    1
    5     5     6    1
    6     5     7    1
    7     7     8    1
    8     7     9    1
    9     7    10    1
   10     5    11    1
   11    11    12    1
   12    11    13    1
   13    11    14    1
   14    14    15    1
   15    14    16    1
   16    14    17    1
   17    17    18    1
   18    17    19    1
   19    17    20    1
@<TRIPOS>SUBSTRUCTURE
       1 MOL1            1 RESIDUE      1      MOL     
@<SCITEGIC>MOL_PROPERTY
VConf Rank
SciTegic.value.IntegerValue
903

@<SCITEGIC>MOL_PROPERTY
Conf_Id
SciTegic.value.IntegerValue
52

@<SCITEGIC>MOL_PROPERTY
Delta U+W
SciTegic.value.DoubleValue
2.995

@<SCITEGIC>MOL_PROPERTY
U+W
SciTegic.value.DoubleValue
-33.282

@<SCITEGIC>MOL_PROPERTY
Grad RMS
SciTegic.value.DoubleValue
0.000000

@<SCITEGIC>MOL_PROPERTY
U
SciTegic.value.DoubleValue
25.224

@<SCITEGIC>MOL_PROPERTY
W
SciTegic.value.DoubleValue
-58.506

@<SCITEGIC>MOL_PROPERTY
W(PB)
SciTegic.value.DoubleValue
-60.411

@<SCITEGIC>MOL_PROPERTY
W(SA)
SciTegic.value.DoubleValue
1.905

@<SCITEGIC>MOL_PROPERTY
Valence
SciTegic.value.DoubleValue
4.945

@<SCITEGIC>MOL_PROPERTY
Coulomb
SciTegic.value.DoubleValue
19.467

@<SCITEGIC>MOL_PROPERTY
VdW
SciTegic.value.DoubleValue
0.813

@<SCITEGIC>MOL_PROPERTY
VdW6
SciTegic.value.DoubleValue
-5.458

@<SCITEGIC>MOL_PROPERTY
VdW12
SciTegic.value.DoubleValue
6.270

@<SCITEGIC>MOL_PROPERTY
Bond
SciTegic.value.DoubleValue
0.200

@<SCITEGIC>MOL_PROPERTY
Angle
SciTegic.value.DoubleValue
1.675

@<SCITEGIC>MOL_PROPERTY
Pdih
SciTegic.value.DoubleValue
3.070

@<SCITEGIC>MOL_PROPERTY
Idih
SciTegic.value.DoubleValue
0.000

@<SCITEGIC>MOL_PROPERTY
Tether
SciTegic.value.DoubleValue
0.000

@<TRIPOS>MOLECULE
guest-s10_confgen4.mol2 : confsearch ligand conformer 904
          20          19           1
SMALL
USER_CHARGES
 
@<TRIPOS>ATOM
       1    N1      18.986497   18.320227   23.994804 N.4        1 MOL1        -0.5937
       2    H1      19.482042   17.438269   24.146334 H          1 MOL1         0.3684
       3    H2      18.059437   18.227107   24.418521 H          1 MOL1         0.3684
       4    H3      19.489854   19.046186   24.509197 H          1 MOL1         0.3684
       5    C1      18.893994   18.652832   22.530540 C.3        1 MOL1         0.1270
       6    H4      18.313233   19.576575   22.445984 H          1 MOL1         0.0960
       7    C2      18.135604   17.538578   21.789566 C.3        1 MOL1        -0.2382
       8    H5      18.684860   16.589614   21.830104 H          1 MOL1         0.1009
       9    H6      17.985503   17.801925   20.735164 H          1 MOL1         0.1009
      10    H7      17.145557   17.379886   22.234493 H          1 MOL1         0.1009
      11    C3      20.278235   18.887761   21.880217 C.3        1 MOL1        -0.1392
      12    H8      20.968356   18.083621   22.167735 H          1 MOL1         0.0998
      13    H9      20.169711   18.813842   20.789876 H          1 MOL1         0.0998
      14    C4      20.912953   20.270433   22.183461 C.3        1 MOL1        -0.1302
      15    H10     20.236342   21.069649   21.849564 H          1 MOL1         0.0998
      16    H11     21.822391   20.370368   21.574395 H          1 MOL1         0.0998
      17    C5      21.291685   20.500431   23.664295 C.3        1 MOL1        -0.2317
      18    H12     21.910047   21.402364   23.761414 H          1 MOL1         0.1009
      19    H13     21.869612   19.657179   24.064600 H          1 MOL1         0.1009
      20    H14     20.404479   20.653422   24.289514 H          1 MOL1         0.1009
@<TRIPOS>BOND
    1     1     2    1
    2     1     3    1
    3     1     4    1
    4     1     5    1
    5     5     6    1
    6     5     7    1
    7     7     8    1
    8     7     9    1
    9     7    10    1
   10     5    11    1
   11    11    12    1
   12    11    13    1
   13    11    14    1
   14    14    15    1
   15    14    16    1
   16    14    17    1
   17    17    18    1
   18    17    19    1
   19    17    20    1
@<TRIPOS>SUBSTRUCTURE
       1 MOL1            1 RESIDUE      1      MOL     
@<SCITEGIC>MOL_PROPERTY
VConf Rank
SciTegic.value.IntegerValue
904

@<SCITEGIC>MOL_PROPERTY
Conf_Id
SciTegic.value.IntegerValue
54

@<SCITEGIC>MOL_PROPERTY
Delta U+W
SciTegic.value.DoubleValue
2.752

@<SCITEGIC>MOL_PROPERTY
U+W
SciTegic.value.DoubleValue
-33.525

@<SCITEGIC>MOL_PROPERTY
Grad RMS
SciTegic.value.DoubleValue
0.000000

@<SCITEGIC>MOL_PROPERTY
U
SciTegic.value.DoubleValue
24.337

@<SCITEGIC>MOL_PROPERTY
W
SciTegic.value.DoubleValue
-57.862

@<SCITEGIC>MOL_PROPERTY
W(PB)
SciTegic.value.DoubleValue
-59.764

@<SCITEGIC>MOL_PROPERTY
W(SA)
SciTegic.value.DoubleValue
1.901

@<SCITEGIC>MOL_PROPERTY
Valence
SciTegic.value.DoubleValue
3.593

@<SCITEGIC>MOL_PROPERTY
Coulomb
SciTegic.value.DoubleValue
20.067

@<SCITEGIC>MOL_PROPERTY
VdW
SciTegic.value.DoubleValue
0.677

@<SCITEGIC>MOL_PROPERTY
VdW6
SciTegic.value.DoubleValue
-5.466

@<SCITEGIC>MOL_PROPERTY
VdW12
SciTegic.value.DoubleValue
6.144

@<SCITEGIC>MOL_PROPERTY
Bond
SciTegic.value.DoubleValue
0.191

@<SCITEGIC>MOL_PROPERTY
Angle
SciTegic.value.DoubleValue
1.557

@<SCITEGIC>MOL_PROPERTY
Pdih
SciTegic.value.DoubleValue
1.845

@<SCITEGIC>MOL_PROPERTY
Idih
SciTegic.value.DoubleValue
0.000

@<SCITEGIC>MOL_PROPERTY
Tether
SciTegic.value.DoubleValue
0.000

@<TRIPOS>MOLECULE
guest-s10_confgen4.mol2 : confsearch ligand conformer 905
          20          19           1
SMALL
USER_CHARGES
 
@<TRIPOS>ATOM
       1    N1      18.019905   18.571631   23.747770 N.4        1 MOL1        -0.5937
       2    H1      17.534374   17.880352   24.325739 H          1 MOL1         0.3684
       3    H2      17.304154   19.106428   23.248366 H          1 MOL1         0.3684
       4    H3      18.499371   19.215949   24.380552 H          1 MOL1         0.3684
       5    C1      18.983799   17.915115   22.797095 C.3        1 MOL1         0.1270
       6    H4      18.385593   17.238217   22.179049 H          1 MOL1         0.0960
       7    C2      20.014135   17.060562   23.556693 C.3        1 MOL1        -0.2382
       8    H5      20.715969   16.585152   22.860355 H          1 MOL1         0.1009
       9    H6      19.511853   16.263020   24.117698 H          1 MOL1         0.1009
      10    H7      20.591071   17.659558   24.271109 H          1 MOL1         0.1009
      11    C3      19.659204   18.929417   21.843118 C.3        1 MOL1        -0.1392
      12    H8      20.276484   18.378084   21.121500 H          1 MOL1         0.0998
      13    H9      18.876945   19.424927   21.253248 H          1 MOL1         0.0998
      14    C4      20.528278   20.006758   22.541968 C.3        1 MOL1        -0.1302
      15    H10     21.349035   19.532231   23.096221 H          1 MOL1         0.0998
      16    H11     19.927547   20.561916   23.274828 H          1 MOL1         0.0998
      17    C5      21.124250   21.001920   21.523245 C.3        1 MOL1        -0.2317
      18    H12     21.738109   21.756563   22.031928 H          1 MOL1         0.1009
      19    H13     20.332214   21.527458   20.973966 H          1 MOL1         0.1009
      20    H14     21.761788   20.486043   20.793422 H          1 MOL1         0.1009
@<TRIPOS>BOND
    1     1     2    1
    2     1     3    1
    3     1     4    1
    4     1     5    1
    5     5     6    1
    6     5     7    1
    7     7     8    1
    8     7     9    1
    9     7    10    1
   10     5    11    1
   11    11    12    1
   12    11    13    1
   13    11    14    1
   14    14    15    1
   15    14    16    1
   16    14    17    1
   17    17    18    1
   18    17    19    1
   19    17    20    1
@<TRIPOS>SUBSTRUCTURE
       1 MOL1            1 RESIDUE      1      MOL     
@<SCITEGIC>MOL_PROPERTY
VConf Rank
SciTegic.value.IntegerValue
905

@<SCITEGIC>MOL_PROPERTY
Conf_Id
SciTegic.value.IntegerValue
63

@<SCITEGIC>MOL_PROPERTY
Delta U+W
SciTegic.value.DoubleValue
0.420

@<SCITEGIC>MOL_PROPERTY
U+W
SciTegic.value.DoubleValue
-35.856

@<SCITEGIC>MOL_PROPERTY
Grad RMS
SciTegic.value.DoubleValue
0.000000

@<SCITEGIC>MOL_PROPERTY
U
SciTegic.value.DoubleValue
22.625

@<SCITEGIC>MOL_PROPERTY
W
SciTegic.value.DoubleValue
-58.481

@<SCITEGIC>MOL_PROPERTY
W(PB)
SciTegic.value.DoubleValue
-60.400

@<SCITEGIC>MOL_PROPERTY
W(SA)
SciTegic.value.DoubleValue
1.919

@<SCITEGIC>MOL_PROPERTY
Valence
SciTegic.value.DoubleValue
2.404

@<SCITEGIC>MOL_PROPERTY
Coulomb
SciTegic.value.DoubleValue
19.464

@<SCITEGIC>MOL_PROPERTY
VdW
SciTegic.value.DoubleValue
0.757

@<SCITEGIC>MOL_PROPERTY
VdW6
SciTegic.value.DoubleValue
-5.074

@<SCITEGIC>MOL_PROPERTY
VdW12
SciTegic.value.DoubleValue
5.830

@<SCITEGIC>MOL_PROPERTY
Bond
SciTegic.value.DoubleValue
0.172

@<SCITEGIC>MOL_PROPERTY
Angle
SciTegic.value.DoubleValue
1.207

@<SCITEGIC>MOL_PROPERTY
Pdih
SciTegic.value.DoubleValue
1.025

@<SCITEGIC>MOL_PROPERTY
Idih
SciTegic.value.DoubleValue
0.000

@<SCITEGIC>MOL_PROPERTY
Tether
SciTegic.value.DoubleValue
0.000

@<TRIPOS>MOLECULE
guest-s10_confgen4.mol2 : confsearch ligand conformer 906
          20          19           1
SMALL
USER_CHARGES
 
@<TRIPOS>ATOM
       1    N1      21.417066   18.638783   22.608784 N.4        1 MOL1        -0.5937
       2    H1      21.145339   17.664399   22.762457 H          1 MOL1         0.3684
       3    H2      21.916894   18.954524   23.443590 H          1 MOL1         0.3684
       4    H3      22.082048   18.651691   21.830854 H          1 MOL1         0.3684
       5    C1      20.218129   19.502460   22.324550 C.3        1 MOL1         0.1270
       6    H4      19.747513   19.100510   21.422282 H          1 MOL1         0.0960
       7    C2      20.647827   20.949959   22.035380 C.3        1 MOL1        -0.2382
       8    H5      21.354147   20.985275   21.196868 H          1 MOL1         0.1009
       9    H6      21.132102   21.403137   22.909371 H          1 MOL1         0.1009
      10    H7      19.781668   21.567278   21.766476 H          1 MOL1         0.1009
      11    C3      19.179985   19.467791   23.469118 C.3        1 MOL1        -0.1392
      12    H8      19.629112   19.883230   24.381000 H          1 MOL1         0.0998
      13    H9      18.342060   20.129186   23.211501 H          1 MOL1         0.0998
      14    C4      18.621406   18.055396   23.777383 C.3        1 MOL1        -0.1302
      15    H10     17.899673   18.134113   24.602495 H          1 MOL1         0.0998
      16    H11     19.424511   17.400065   24.140879 H          1 MOL1         0.0998
      17    C5      17.923938   17.401296   22.562863 C.3        1 MOL1        -0.2317
      18    H12     17.115893   18.039041   22.181386 H          1 MOL1         0.1009
      19    H13     17.483093   16.436696   22.846184 H          1 MOL1         0.1009
      20    H14     18.628954   17.214303   21.743179 H          1 MOL1         0.1009
@<TRIPOS>BOND
    1     1     2    1
    2     1     3    1
    3     1     4    1
    4     1     5    1
    5     5     6    1
    6     5     7    1
    7     7     8    1
    8     7     9    1
    9     7    10    1
   10     5    11    1
   11    11    12    1
   12    11    13    1
   13    11    14    1
   14    14    15    1
   15    14    16    1
   16    14    17    1
   17    17    18    1
   18    17    19    1
   19    17    20    1
@<TRIPOS>SUBSTRUCTURE
       1 MOL1            1 RESIDUE      1      MOL     
@<SCITEGIC>MOL_PROPERTY
VConf Rank
SciTegic.value.IntegerValue
906

@<SCITEGIC>MOL_PROPERTY
Conf_Id
SciTegic.value.IntegerValue
50

@<SCITEGIC>MOL_PROPERTY
Delta U+W
SciTegic.value.DoubleValue
0.466

@<SCITEGIC>MOL_PROPERTY
U+W
SciTegic.value.DoubleValue
-35.811

@<SCITEGIC>MOL_PROPERTY
Grad RMS
SciTegic.value.DoubleValue
0.000000

@<SCITEGIC>MOL_PROPERTY
U
SciTegic.value.DoubleValue
22.369

@<SCITEGIC>MOL_PROPERTY
W
SciTegic.value.DoubleValue
-58.180

@<SCITEGIC>MOL_PROPERTY
W(PB)
SciTegic.value.DoubleValue
-60.103

@<SCITEGIC>MOL_PROPERTY
W(SA)
SciTegic.value.DoubleValue
1.923

@<SCITEGIC>MOL_PROPERTY
Valence
SciTegic.value.DoubleValue
2.168

@<SCITEGIC>MOL_PROPERTY
Coulomb
SciTegic.value.DoubleValue
19.636

@<SCITEGIC>MOL_PROPERTY
VdW
SciTegic.value.DoubleValue
0.566

@<SCITEGIC>MOL_PROPERTY
VdW6
SciTegic.value.DoubleValue
-5.263

@<SCITEGIC>MOL_PROPERTY
VdW12
SciTegic.value.DoubleValue
5.829

@<SCITEGIC>MOL_PROPERTY
Bond
SciTegic.value.DoubleValue
0.162

@<SCITEGIC>MOL_PROPERTY
Angle
SciTegic.value.DoubleValue
1.066

@<SCITEGIC>MOL_PROPERTY
Pdih
SciTegic.value.DoubleValue
0.939

@<SCITEGIC>MOL_PROPERTY
Idih
SciTegic.value.DoubleValue
0.000

@<SCITEGIC>MOL_PROPERTY
Tether
SciTegic.value.DoubleValue
0.000

@<TRIPOS>MOLECULE
guest-s10_confgen4.mol2 : confsearch ligand conformer 907
          20          19           1
SMALL
USER_CHARGES
 
@<TRIPOS>ATOM
       1    N1      20.908373   17.447145   21.431387 N.4        1 MOL1        -0.5937
       2    H1      21.721966   17.194402   21.998999 H          1 MOL1         0.3684
       3    H2      21.246976   17.993277   20.635171 H          1 MOL1         0.3684
       4    H3      20.517459   16.577332   21.059439 H          1 MOL1         0.3684
       5    C1      19.888661   18.211055   22.232145 C.3        1 MOL1         0.1270
       6    H4      19.592025   17.552965   23.054755 H          1 MOL1         0.0960
       7    C2      18.650727   18.505765   21.364603 C.3        1 MOL1        -0.2382
       8    H5      18.913526   19.126182   20.498759 H          1 MOL1         0.1009
       9    H6      17.876550   19.032491   21.932932 H          1 MOL1         0.1009
      10    H7      18.209648   17.573326   20.991594 H          1 MOL1         0.1009
      11    C3      20.482839   19.505193   22.840742 C.3        1 MOL1        -0.1392
      12    H8      21.578843   19.441813   22.819993 H          1 MOL1         0.0998
      13    H9      20.225464   20.374127   22.220482 H          1 MOL1         0.0998
      14    C4      20.063388   19.757126   24.311243 C.3        1 MOL1        -0.1302
      15    H10     20.591861   20.647827   24.679075 H          1 MOL1         0.0998
      16    H11     20.402550   18.920648   24.938424 H          1 MOL1         0.0998
      17    C5      18.545302   19.963193   24.509196 C.3        1 MOL1        -0.2317
      18    H12     18.166658   20.765836   23.863115 H          1 MOL1         0.1009
      19    H13     18.328495   20.240482   25.548978 H          1 MOL1         0.1009
      20    H14     17.984365   19.045859   24.291300 H          1 MOL1         0.1009
@<TRIPOS>BOND
    1     1     2    1
    2     1     3    1
    3     1     4    1
    4     1     5    1
    5     5     6    1
    6     5     7    1
    7     7     8    1
    8     7     9    1
    9     7    10    1
   10     5    11    1
   11    11    12    1
   12    11    13    1
   13    11    14    1
   14    14    15    1
   15    14    16    1
   16    14    17    1
   17    17    18    1
   18    17    19    1
   19    17    20    1
@<TRIPOS>SUBSTRUCTURE
       1 MOL1            1 RESIDUE      1      MOL     
@<SCITEGIC>MOL_PROPERTY
VConf Rank
SciTegic.value.IntegerValue
907

@<SCITEGIC>MOL_PROPERTY
Conf_Id
SciTegic.value.IntegerValue
3

@<SCITEGIC>MOL_PROPERTY
Delta U+W
SciTegic.value.DoubleValue
3.093

@<SCITEGIC>MOL_PROPERTY
U+W
SciTegic.value.DoubleValue
-33.184

@<SCITEGIC>MOL_PROPERTY
Grad RMS
SciTegic.value.DoubleValue
0.000000

@<SCITEGIC>MOL_PROPERTY
U
SciTegic.value.DoubleValue
25.256

@<SCITEGIC>MOL_PROPERTY
W
SciTegic.value.DoubleValue
-58.439

@<SCITEGIC>MOL_PROPERTY
W(PB)
SciTegic.value.DoubleValue
-60.337

@<SCITEGIC>MOL_PROPERTY
W(SA)
SciTegic.value.DoubleValue
1.898

@<SCITEGIC>MOL_PROPERTY
Valence
SciTegic.value.DoubleValue
4.963

@<SCITEGIC>MOL_PROPERTY
Coulomb
SciTegic.value.DoubleValue
19.511

@<SCITEGIC>MOL_PROPERTY
VdW
SciTegic.value.DoubleValue
0.782

@<SCITEGIC>MOL_PROPERTY
VdW6
SciTegic.value.DoubleValue
-5.429

@<SCITEGIC>MOL_PROPERTY
VdW12
SciTegic.value.DoubleValue
6.211

@<SCITEGIC>MOL_PROPERTY
Bond
SciTegic.value.DoubleValue
0.174

@<SCITEGIC>MOL_PROPERTY
Angle
SciTegic.value.DoubleValue
1.377

@<SCITEGIC>MOL_PROPERTY
Pdih
SciTegic.value.DoubleValue
3.412

@<SCITEGIC>MOL_PROPERTY
Idih
SciTegic.value.DoubleValue
0.000

@<SCITEGIC>MOL_PROPERTY
Tether
SciTegic.value.DoubleValue
0.000

@<TRIPOS>MOLECULE
guest-s10_confgen4.mol2 : confsearch ligand conformer 908
          20          19           1
SMALL
USER_CHARGES
 
@<TRIPOS>ATOM
       1    N1      20.178307   18.884734   24.987818 N.4        1 MOL1        -0.5937
       2    H1      20.907551   19.465985   25.409703 H          1 MOL1         0.3684
       3    H2      20.439764   17.908094   25.147955 H          1 MOL1         0.3684
       4    H3      19.313295   19.059103   25.505538 H          1 MOL1         0.3684
       5    C1      20.015049   19.182908   23.522615 C.3        1 MOL1         0.1270
       6    H4      20.982765   18.972785   23.057352 H          1 MOL1         0.0960
       7    C2      19.687820   20.672497   23.312506 C.3        1 MOL1        -0.2382
       8    H5      19.703112   20.936834   22.248821 H          1 MOL1         0.1009
       9    H6      20.429188   21.305902   23.814806 H          1 MOL1         0.1009
      10    H7      18.698263   20.922307   23.714826 H          1 MOL1         0.1009
      11    C3      18.954819   18.258510   22.877765 C.3        1 MOL1        -0.1392
      12    H8      19.197116   17.217444   23.128762 H          1 MOL1         0.0998
      13    H9      17.974286   18.460035   23.329072 H          1 MOL1         0.0998
      14    C4      18.835888   18.373294   21.336408 C.3        1 MOL1        -0.1302
      15    H10     18.464553   19.367959   21.055293 H          1 MOL1         0.0998
      16    H11     18.075747   17.660041   20.988135 H          1 MOL1         0.0998
      17    C5      20.165716   18.085473   20.603014 C.3        1 MOL1        -0.2317
      18    H12     20.558376   17.095924   20.870909 H          1 MOL1         0.1009
      19    H13     20.929804   18.835137   20.844339 H          1 MOL1         0.1009
      20    H14     20.016888   18.103497   19.515566 H          1 MOL1         0.1009
@<TRIPOS>BOND
    1     1     2    1
    2     1     3    1
    3     1     4    1
    4     1     5    1
    5     5     6    1
    6     5     7    1
    7     7     8    1
    8     7     9    1
    9     7    10    1
   10     5    11    1
   11    11    12    1
   12    11    13    1
   13    11    14    1
   14    14    15    1
   15    14    16    1
   16    14    17    1
   17    17    18    1
   18    17    19    1
   19    17    20    1
@<TRIPOS>SUBSTRUCTURE
       1 MOL1            1 RESIDUE      1      MOL     
@<SCITEGIC>MOL_PROPERTY
VConf Rank
SciTegic.value.IntegerValue
908

@<SCITEGIC>MOL_PROPERTY
Conf_Id
SciTegic.value.IntegerValue
64

@<SCITEGIC>MOL_PROPERTY
Delta U+W
SciTegic.value.DoubleValue
0.544

@<SCITEGIC>MOL_PROPERTY
U+W
SciTegic.value.DoubleValue
-35.732

@<SCITEGIC>MOL_PROPERTY
Grad RMS
SciTegic.value.DoubleValue
0.000000

@<SCITEGIC>MOL_PROPERTY
U
SciTegic.value.DoubleValue
22.800

@<SCITEGIC>MOL_PROPERTY
W
SciTegic.value.DoubleValue
-58.532

@<SCITEGIC>MOL_PROPERTY
W(PB)
SciTegic.value.DoubleValue
-60.437

@<SCITEGIC>MOL_PROPERTY
W(SA)
SciTegic.value.DoubleValue
1.905

@<SCITEGIC>MOL_PROPERTY
Valence
SciTegic.value.DoubleValue
2.662

@<SCITEGIC>MOL_PROPERTY
Coulomb
SciTegic.value.DoubleValue
19.485

@<SCITEGIC>MOL_PROPERTY
VdW
SciTegic.value.DoubleValue
0.653

@<SCITEGIC>MOL_PROPERTY
VdW6
SciTegic.value.DoubleValue
-5.460

@<SCITEGIC>MOL_PROPERTY
VdW12
SciTegic.value.DoubleValue
6.113

@<SCITEGIC>MOL_PROPERTY
Bond
SciTegic.value.DoubleValue
0.174

@<SCITEGIC>MOL_PROPERTY
Angle
SciTegic.value.DoubleValue
1.378

@<SCITEGIC>MOL_PROPERTY
Pdih
SciTegic.value.DoubleValue
1.109

@<SCITEGIC>MOL_PROPERTY
Idih
SciTegic.value.DoubleValue
0.000

@<SCITEGIC>MOL_PROPERTY
Tether
SciTegic.value.DoubleValue
0.000

@<TRIPOS>MOLECULE
guest-s10_confgen4.mol2 : confsearch ligand conformer 909
          20          19           1
SMALL
USER_CHARGES
 
@<TRIPOS>ATOM
       1    N1      21.510531   17.747013   23.025902 N.4        1 MOL1        -0.5937
       2    H1      21.651669   18.516420   23.684208 H          1 MOL1         0.3684
       3    H2      22.388032   17.616740   22.515379 H          1 MOL1         0.3684
       4    H3      21.350093   16.898294   23.575081 H          1 MOL1         0.3684
       5    C1      20.365459   18.025651   22.089952 C.3        1 MOL1         0.1270
       6    H4      20.304079   17.157930   21.425682 H          1 MOL1         0.0960
       7    C2      20.659976   19.254424   21.214108 C.3        1 MOL1        -0.2382
       8    H5      20.868113   20.141430   21.823705 H          1 MOL1         0.1009
       9    H6      19.813043   19.475319   20.552860 H          1 MOL1         0.1009
      10    H7      21.537065   19.072043   20.581319 H          1 MOL1         0.1009
      11    C3      19.008439   18.123389   22.831493 C.3        1 MOL1        -0.1392
      12    H8      18.193063   18.151108   22.096721 H          1 MOL1         0.0998
      13    H9      18.867554   17.184234   23.382511 H          1 MOL1         0.0998
      14    C4      18.855943   19.302435   23.832404 C.3        1 MOL1        -0.1302
      15    H10     19.823727   19.564304   24.279837 H          1 MOL1         0.0998
      16    H11     18.221780   18.968899   24.665814 H          1 MOL1         0.0998
      17    C5      18.198668   20.558152   23.212798 C.3        1 MOL1        -0.2317
      18    H12     18.797822   20.979460   22.398249 H          1 MOL1         0.1009
      19    H13     18.076897   21.341209   23.972376 H          1 MOL1         0.1009
      20    H14     17.202664   20.324490   22.814777 H          1 MOL1         0.1009
@<TRIPOS>BOND
    1     1     2    1
    2     1     3    1
    3     1     4    1
    4     1     5    1
    5     5     6    1
    6     5     7    1
    7     7     8    1
    8     7     9    1
    9     7    10    1
   10     5    11    1
   11    11    12    1
   12    11    13    1
   13    11    14    1
   14    14    15    1
   15    14    16    1
   16    14    17    1
   17    17    18    1
   18    17    19    1
   19    17    20    1
@<TRIPOS>SUBSTRUCTURE
       1 MOL1            1 RESIDUE      1      MOL     
@<SCITEGIC>MOL_PROPERTY
VConf Rank
SciTegic.value.IntegerValue
909

@<SCITEGIC>MOL_PROPERTY
Conf_Id
SciTegic.value.IntegerValue
35

@<SCITEGIC>MOL_PROPERTY
Delta U+W
SciTegic.value.DoubleValue
3.004

@<SCITEGIC>MOL_PROPERTY
U+W
SciTegic.value.DoubleValue
-33.272

@<SCITEGIC>MOL_PROPERTY
Grad RMS
SciTegic.value.DoubleValue
0.000000

@<SCITEGIC>MOL_PROPERTY
U
SciTegic.value.DoubleValue
25.367

@<SCITEGIC>MOL_PROPERTY
W
SciTegic.value.DoubleValue
-58.639

@<SCITEGIC>MOL_PROPERTY
W(PB)
SciTegic.value.DoubleValue
-60.512

@<SCITEGIC>MOL_PROPERTY
W(SA)
SciTegic.value.DoubleValue
1.873

@<SCITEGIC>MOL_PROPERTY
Valence
SciTegic.value.DoubleValue
4.943

@<SCITEGIC>MOL_PROPERTY
Coulomb
SciTegic.value.DoubleValue
19.661

@<SCITEGIC>MOL_PROPERTY
VdW
SciTegic.value.DoubleValue
0.764

@<SCITEGIC>MOL_PROPERTY
VdW6
SciTegic.value.DoubleValue
-5.871

@<SCITEGIC>MOL_PROPERTY
VdW12
SciTegic.value.DoubleValue
6.636

@<SCITEGIC>MOL_PROPERTY
Bond
SciTegic.value.DoubleValue
0.230

@<SCITEGIC>MOL_PROPERTY
Angle
SciTegic.value.DoubleValue
1.857

@<SCITEGIC>MOL_PROPERTY
Pdih
SciTegic.value.DoubleValue
2.855

@<SCITEGIC>MOL_PROPERTY
Idih
SciTegic.value.DoubleValue
0.000

@<SCITEGIC>MOL_PROPERTY
Tether
SciTegic.value.DoubleValue
0.000

@<TRIPOS>MOLECULE
guest-s10_confgen4.mol2 : confsearch ligand conformer 910
          20          19           1
SMALL
USER_CHARGES
 
@<TRIPOS>ATOM
       1    N1      19.375642   20.062932   24.038836 N.4        1 MOL1        -0.5937
       2    H1      19.366861   21.067583   24.234286 H          1 MOL1         0.3684
       3    H2      19.328886   19.577174   24.938522 H          1 MOL1         0.3684
       4    H3      18.520785   19.839452   23.525734 H          1 MOL1         0.3684
       5    C1      20.598552   19.662821   23.259821 C.3        1 MOL1         0.1270
       6    H4      21.447080   19.918689   23.902050 H          1 MOL1         0.0960
       7    C2      20.736455   20.488208   21.968222 C.3        1 MOL1        -0.2382
       8    H5      19.870323   20.356228   21.308910 H          1 MOL1         0.1009
       9    H6      21.637946   20.197071   21.415073 H          1 MOL1         0.1009
      10    H7      20.820277   21.556517   22.202014 H          1 MOL1         0.1009
      11    C3      20.679144   18.137040   22.997501 C.3        1 MOL1        -0.1392
      12    H8      21.714884   17.902033   22.719010 H          1 MOL1         0.0998
      13    H9      20.504022   17.604385   23.941338 H          1 MOL1         0.0998
      14    C4      19.747866   17.552293   21.898690 C.3        1 MOL1        -0.1302
      15    H10     19.961618   16.477968   21.809467 H          1 MOL1         0.0998
      16    H11     19.996117   17.983982   20.919584 H          1 MOL1         0.0998
      17    C5      18.236870   17.724507   22.174656 C.3        1 MOL1        -0.2317
      18    H12     17.974188   17.379067   23.183026 H          1 MOL1         0.1009
      19    H13     17.650362   17.134864   21.458067 H          1 MOL1         0.1009
      20    H14     17.922732   18.768728   22.064263 H          1 MOL1         0.1009
@<TRIPOS>BOND
    1     1     2    1
    2     1     3    1
    3     1     4    1
    4     1     5    1
    5     5     6    1
    6     5     7    1
    7     7     8    1
    8     7     9    1
    9     7    10    1
   10     5    11    1
   11    11    12    1
   12    11    13    1
   13    11    14    1
   14    14    15    1
   15    14    16    1
   16    14    17    1
   17    17    18    1
   18    17    19    1
   19    17    20    1
@<TRIPOS>SUBSTRUCTURE
       1 MOL1            1 RESIDUE      1      MOL     
@<SCITEGIC>MOL_PROPERTY
VConf Rank
SciTegic.value.IntegerValue
910

@<SCITEGIC>MOL_PROPERTY
Conf_Id
SciTegic.value.IntegerValue
55

@<SCITEGIC>MOL_PROPERTY
Delta U+W
SciTegic.value.DoubleValue
2.767

@<SCITEGIC>MOL_PROPERTY
U+W
SciTegic.value.DoubleValue
-33.509

@<SCITEGIC>MOL_PROPERTY
Grad RMS
SciTegic.value.DoubleValue
0.000000

@<SCITEGIC>MOL_PROPERTY
U
SciTegic.value.DoubleValue
24.552

@<SCITEGIC>MOL_PROPERTY
W
SciTegic.value.DoubleValue
-58.061

@<SCITEGIC>MOL_PROPERTY
W(PB)
SciTegic.value.DoubleValue
-59.930

@<SCITEGIC>MOL_PROPERTY
W(SA)
SciTegic.value.DoubleValue
1.869

@<SCITEGIC>MOL_PROPERTY
Valence
SciTegic.value.DoubleValue
3.726

@<SCITEGIC>MOL_PROPERTY
Coulomb
SciTegic.value.DoubleValue
20.219

@<SCITEGIC>MOL_PROPERTY
VdW
SciTegic.value.DoubleValue
0.606

@<SCITEGIC>MOL_PROPERTY
VdW6
SciTegic.value.DoubleValue
-6.395

@<SCITEGIC>MOL_PROPERTY
VdW12
SciTegic.value.DoubleValue
7.001

@<SCITEGIC>MOL_PROPERTY
Bond
SciTegic.value.DoubleValue
0.241

@<SCITEGIC>MOL_PROPERTY
Angle
SciTegic.value.DoubleValue
2.098

@<SCITEGIC>MOL_PROPERTY
Pdih
SciTegic.value.DoubleValue
1.387

@<SCITEGIC>MOL_PROPERTY
Idih
SciTegic.value.DoubleValue
0.000

@<SCITEGIC>MOL_PROPERTY
Tether
SciTegic.value.DoubleValue
0.000

@<TRIPOS>MOLECULE
guest-s10_confgen4.mol2 : confsearch ligand conformer 911
          20          19           1
SMALL
USER_CHARGES
 
@<TRIPOS>ATOM
       1    N1      18.868644   17.356116   23.466661 N.4        1 MOL1        -0.5937
       2    H1      17.948809   17.496977   23.041684 H          1 MOL1         0.3684
       3    H2      18.733505   16.782695   24.303669 H          1 MOL1         0.3684
       4    H3      19.430028   16.807778   22.810341 H          1 MOL1         0.3684
       5    C1      19.529651   18.666997   23.797904 C.3        1 MOL1         0.1270
       6    H4      20.501350   18.426640   24.240529 H          1 MOL1         0.0960
       7    C2      18.704388   19.439871   24.839814 C.3        1 MOL1        -0.2382
       8    H5      18.560910   18.838257   25.745760 H          1 MOL1         0.1009
       9    H6      17.715457   19.705627   24.445882 H          1 MOL1         0.1009
      10    H7      19.215001   20.365470   25.133381 H          1 MOL1         0.1009
      11    C3      19.771725   19.542132   22.548229 C.3        1 MOL1        -0.1392
      12    H8      18.811555   19.778379   22.070552 H          1 MOL1         0.0998
      13    H9      20.207255   20.499206   22.865074 H          1 MOL1         0.0998
      14    C4      20.718995   18.879576   21.519044 C.3        1 MOL1        -0.1302
      15    H10     20.278702   17.945983   21.143583 H          1 MOL1         0.0998
      16    H11     21.666520   18.610964   22.007190 H          1 MOL1         0.0998
      17    C5      21.006637   19.814607   20.324773 C.3        1 MOL1        -0.2317
      18    H12     20.080601   20.077243   19.796819 H          1 MOL1         0.1009
      19    H13     21.678098   19.328771   19.604920 H          1 MOL1         0.1009
      20    H14     21.486175   20.744638   20.656915 H          1 MOL1         0.1009
@<TRIPOS>BOND
    1     1     2    1
    2     1     3    1
    3     1     4    1
    4     1     5    1
    5     5     6    1
    6     5     7    1
    7     7     8    1
    8     7     9    1
    9     7    10    1
   10     5    11    1
   11    11    12    1
   12    11    13    1
   13    11    14    1
   14    14    15    1
   15    14    16    1
   16    14    17    1
   17    17    18    1
   18    17    19    1
   19    17    20    1
@<TRIPOS>SUBSTRUCTURE
       1 MOL1            1 RESIDUE      1      MOL     
@<SCITEGIC>MOL_PROPERTY
VConf Rank
SciTegic.value.IntegerValue
911

@<SCITEGIC>MOL_PROPERTY
Conf_Id
SciTegic.value.IntegerValue
74

@<SCITEGIC>MOL_PROPERTY
Delta U+W
SciTegic.value.DoubleValue
0.000

@<SCITEGIC>MOL_PROPERTY
U+W
SciTegic.value.DoubleValue
-36.276

@<SCITEGIC>MOL_PROPERTY
Grad RMS
SciTegic.value.DoubleValue
0.000000

@<SCITEGIC>MOL_PROPERTY
U
SciTegic.value.DoubleValue
22.080

@<SCITEGIC>MOL_PROPERTY
W
SciTegic.value.DoubleValue
-58.356

@<SCITEGIC>MOL_PROPERTY
W(PB)
SciTegic.value.DoubleValue
-60.289

@<SCITEGIC>MOL_PROPERTY
W(SA)
SciTegic.value.DoubleValue
1.932

@<SCITEGIC>MOL_PROPERTY
Valence
SciTegic.value.DoubleValue
1.885

@<SCITEGIC>MOL_PROPERTY
Coulomb
SciTegic.value.DoubleValue
19.559

@<SCITEGIC>MOL_PROPERTY
VdW
SciTegic.value.DoubleValue
0.637

@<SCITEGIC>MOL_PROPERTY
VdW6
SciTegic.value.DoubleValue
-4.482

@<SCITEGIC>MOL_PROPERTY
VdW12
SciTegic.value.DoubleValue
5.119

@<SCITEGIC>MOL_PROPERTY
Bond
SciTegic.value.DoubleValue
0.136

@<SCITEGIC>MOL_PROPERTY
Angle
SciTegic.value.DoubleValue
0.867

@<SCITEGIC>MOL_PROPERTY
Pdih
SciTegic.value.DoubleValue
0.882

@<SCITEGIC>MOL_PROPERTY
Idih
SciTegic.value.DoubleValue
0.000

@<SCITEGIC>MOL_PROPERTY
Tether
SciTegic.value.DoubleValue
0.000

@<TRIPOS>MOLECULE
guest-s10_confgen4.mol2 : confsearch ligand conformer 912
          20          19           1
SMALL
USER_CHARGES
 
@<TRIPOS>ATOM
       1    N1      18.281376   17.083615   22.307811 N.4        1 MOL1        -0.5937
       2    H1      18.518739   16.454469   23.079621 H          1 MOL1         0.3684
       3    H2      18.740138   16.723774   21.467110 H          1 MOL1         0.3684
       4    H3      17.271465   17.010426   22.158133 H          1 MOL1         0.3684
       5    C1      18.693745   18.500522   22.599004 C.3        1 MOL1         0.1270
       6    H4      18.155843   18.798024   23.504553 H          1 MOL1         0.0960
       7    C2      18.261404   19.429322   21.449564 C.3        1 MOL1        -0.2382
       8    H5      17.193070   19.305479   21.233819 H          1 MOL1         0.1009
       9    H6      18.820911   19.211847   20.531285 H          1 MOL1         0.1009
      10    H7      18.418875   20.482999   21.706842 H          1 MOL1         0.1009
      11    C3      20.210629   18.594049   22.885016 C.3        1 MOL1        -0.1392
      12    H8      20.470393   17.834263   23.633955 H          1 MOL1         0.0998
      13    H9      20.774379   18.340754   21.977339 H          1 MOL1         0.0998
      14    C4      20.663707   19.977805   23.411422 C.3        1 MOL1        -0.1302
      15    H10     20.056203   20.259974   24.282852 H          1 MOL1         0.0998
      16    H11     20.500994   20.748651   22.646424 H          1 MOL1         0.0998
      17    C5      22.156022   19.976026   23.807242 C.3        1 MOL1        -0.2317
      18    H12     22.353581   19.246449   24.603436 H          1 MOL1         0.1009
      19    H13     22.460942   20.964651   24.174302 H          1 MOL1         0.1009
      20    H14     22.792041   19.725142   22.948291 H          1 MOL1         0.1009
@<TRIPOS>BOND
    1     1     2    1
    2     1     3    1
    3     1     4    1
    4     1     5    1
    5     5     6    1
    6     5     7    1
    7     7     8    1
    8     7     9    1
    9     7    10    1
   10     5    11    1
   11    11    12    1
   12    11    13    1
   13    11    14    1
   14    14    15    1
   15    14    16    1
   16    14    17    1
   17    17    18    1
   18    17    19    1
   19    17    20    1
@<TRIPOS>SUBSTRUCTURE
       1 MOL1            1 RESIDUE      1      MOL     
@<SCITEGIC>MOL_PROPERTY
VConf Rank
SciTegic.value.IntegerValue
912

@<SCITEGIC>MOL_PROPERTY
Conf_Id
SciTegic.value.IntegerValue
80

@<SCITEGIC>MOL_PROPERTY
Delta U+W
SciTegic.value.DoubleValue
0.460

@<SCITEGIC>MOL_PROPERTY
U+W
SciTegic.value.DoubleValue
-35.817

@<SCITEGIC>MOL_PROPERTY
Grad RMS
SciTegic.value.DoubleValue
0.000000

@<SCITEGIC>MOL_PROPERTY
U
SciTegic.value.DoubleValue
22.495

@<SCITEGIC>MOL_PROPERTY
W
SciTegic.value.DoubleValue
-58.311

@<SCITEGIC>MOL_PROPERTY
W(PB)
SciTegic.value.DoubleValue
-60.259

@<SCITEGIC>MOL_PROPERTY
W(SA)
SciTegic.value.DoubleValue
1.948

@<SCITEGIC>MOL_PROPERTY
Valence
SciTegic.value.DoubleValue
2.419

@<SCITEGIC>MOL_PROPERTY
Coulomb
SciTegic.value.DoubleValue
19.304

@<SCITEGIC>MOL_PROPERTY
VdW
SciTegic.value.DoubleValue
0.772

@<SCITEGIC>MOL_PROPERTY
VdW6
SciTegic.value.DoubleValue
-4.635

@<SCITEGIC>MOL_PROPERTY
VdW12
SciTegic.value.DoubleValue
5.407

@<SCITEGIC>MOL_PROPERTY
Bond
SciTegic.value.DoubleValue
0.149

@<SCITEGIC>MOL_PROPERTY
Angle
SciTegic.value.DoubleValue
1.142

@<SCITEGIC>MOL_PROPERTY
Pdih
SciTegic.value.DoubleValue
1.129

@<SCITEGIC>MOL_PROPERTY
Idih
SciTegic.value.DoubleValue
0.000

@<SCITEGIC>MOL_PROPERTY
Tether
SciTegic.value.DoubleValue
0.000

@<TRIPOS>MOLECULE
guest-s10_confgen4.mol2 : confsearch ligand conformer 913
          20          19           1
SMALL
USER_CHARGES
 
@<TRIPOS>ATOM
       1    N1      18.173256   17.957157   21.176184 N.4        1 MOL1        -0.5937
       2    H1      17.747661   18.688262   20.599845 H          1 MOL1         0.3684
       3    H2      17.490906   17.695132   21.892026 H          1 MOL1         0.3684
       4    H3      18.311856   17.140627   20.574782 H          1 MOL1         0.3684
       5    C1      19.468101   18.415742   21.789231 C.3        1 MOL1         0.1270
       6    H4      20.130277   18.666157   20.954597 H          1 MOL1         0.0960
       7    C2      20.115317   17.269811   22.585604 C.3        1 MOL1        -0.2382
       8    H5      20.166029   16.357040   21.979450 H          1 MOL1         0.1009
       9    H6      19.543967   17.044161   23.494502 H          1 MOL1         0.1009
      10    H7      21.142498   17.522240   22.872285 H          1 MOL1         0.1009
      11    C3      19.259427   19.694523   22.636881 C.3        1 MOL1        -0.1392
      12    H8      18.762559   20.436018   21.997350 H          1 MOL1         0.0998
      13    H9      18.560558   19.494380   23.459835 H          1 MOL1         0.0998
      14    C4      20.561153   20.338799   23.182829 C.3        1 MOL1        -0.1302
      15    H10     20.449819   21.431905   23.153815 H          1 MOL1         0.0998
      16    H11     21.408867   20.105319   22.523410 H          1 MOL1         0.0998
      17    C5      20.884095   19.932497   24.640108 C.3        1 MOL1        -0.2317
      18    H12     20.074232   20.230474   25.318670 H          1 MOL1         0.1009
      19    H13     21.802491   20.427054   24.982080 H          1 MOL1         0.1009
      20    H14     21.030766   18.851760   24.745167 H          1 MOL1         0.1009
@<TRIPOS>BOND
    1     1     2    1
    2     1     3    1
    3     1     4    1
    4     1     5    1
    5     5     6    1
    6     5     7    1
    7     7     8    1
    8     7     9    1
    9     7    10    1
   10     5    11    1
   11    11    12    1
   12    11    13    1
   13    11    14    1
   14    14    15    1
   15    14    16    1
   16    14    17    1
   17    17    18    1
   18    17    19    1
   19    17    20    1
@<TRIPOS>SUBSTRUCTURE
       1 MOL1            1 RESIDUE      1      MOL     
@<SCITEGIC>MOL_PROPERTY
VConf Rank
SciTegic.value.IntegerValue
913

@<SCITEGIC>MOL_PROPERTY
Conf_Id
SciTegic.value.IntegerValue
52

@<SCITEGIC>MOL_PROPERTY
Delta U+W
SciTegic.value.DoubleValue
2.995

@<SCITEGIC>MOL_PROPERTY
U+W
SciTegic.value.DoubleValue
-33.282

@<SCITEGIC>MOL_PROPERTY
Grad RMS
SciTegic.value.DoubleValue
0.000000

@<SCITEGIC>MOL_PROPERTY
U
SciTegic.value.DoubleValue
25.224

@<SCITEGIC>MOL_PROPERTY
W
SciTegic.value.DoubleValue
-58.506

@<SCITEGIC>MOL_PROPERTY
W(PB)
SciTegic.value.DoubleValue
-60.411

@<SCITEGIC>MOL_PROPERTY
W(SA)
SciTegic.value.DoubleValue
1.905

@<SCITEGIC>MOL_PROPERTY
Valence
SciTegic.value.DoubleValue
4.945

@<SCITEGIC>MOL_PROPERTY
Coulomb
SciTegic.value.DoubleValue
19.467

@<SCITEGIC>MOL_PROPERTY
VdW
SciTegic.value.DoubleValue
0.813

@<SCITEGIC>MOL_PROPERTY
VdW6
SciTegic.value.DoubleValue
-5.458

@<SCITEGIC>MOL_PROPERTY
VdW12
SciTegic.value.DoubleValue
6.270

@<SCITEGIC>MOL_PROPERTY
Bond
SciTegic.value.DoubleValue
0.200

@<SCITEGIC>MOL_PROPERTY
Angle
SciTegic.value.DoubleValue
1.675

@<SCITEGIC>MOL_PROPERTY
Pdih
SciTegic.value.DoubleValue
3.070

@<SCITEGIC>MOL_PROPERTY
Idih
SciTegic.value.DoubleValue
0.000

@<SCITEGIC>MOL_PROPERTY
Tether
SciTegic.value.DoubleValue
0.000

@<TRIPOS>MOLECULE
guest-s10_confgen4.mol2 : confsearch ligand conformer 914
          20          19           1
SMALL
USER_CHARGES
 
@<TRIPOS>ATOM
       1    N1      18.424854   18.558520   23.558809 N.4        1 MOL1        -0.5937
       2    H1      18.415274   17.537894   23.490931 H          1 MOL1         0.3684
       3    H2      17.470663   18.859900   23.774070 H          1 MOL1         0.3684
       4    H3      19.014531   18.806516   24.356157 H          1 MOL1         0.3684
       5    C1      18.930048   19.187938   22.289218 C.3        1 MOL1         0.1270
       6    H4      18.865483   20.272652   22.419452 H          1 MOL1         0.0960
       7    C2      18.022474   18.790058   21.112885 C.3        1 MOL1        -0.2382
       8    H5      18.062491   17.709223   20.928349 H          1 MOL1         0.1009
       9    H6      18.325813   19.305375   20.193059 H          1 MOL1         0.1009
      10    H7      16.979882   19.063824   21.316329 H          1 MOL1         0.1009
      11    C3      20.401910   18.821976   21.982737 C.3        1 MOL1        -0.1392
      12    H8      20.550643   17.740254   22.098196 H          1 MOL1         0.0998
      13    H9      20.604189   19.041068   20.925777 H          1 MOL1         0.0998
      14    C4      21.452740   19.598086   22.819408 C.3        1 MOL1        -0.1302
      15    H10     21.327215   20.678496   22.661319 H          1 MOL1         0.0998
      16    H11     22.450471   19.349778   22.430947 H          1 MOL1         0.0998
      17    C5      21.430850   19.292538   24.334455 C.3        1 MOL1        -0.2317
      18    H12     22.319861   19.716688   24.819266 H          1 MOL1         0.1009
      19    H13     21.433537   18.211181   24.524133 H          1 MOL1         0.1009
      20    H14     20.557463   19.738305   24.824279 H          1 MOL1         0.1009
@<TRIPOS>BOND
    1     1     2    1
    2     1     3    1
    3     1     4    1
    4     1     5    1
    5     5     6    1
    6     5     7    1
    7     7     8    1
    8     7     9    1
    9     7    10    1
   10     5    11    1
   11    11    12    1
   12    11    13    1
   13    11    14    1
   14    14    15    1
   15    14    16    1
   16    14    17    1
   17    17    18    1
   18    17    19    1
   19    17    20    1
@<TRIPOS>SUBSTRUCTURE
       1 MOL1            1 RESIDUE      1      MOL     
@<SCITEGIC>MOL_PROPERTY
VConf Rank
SciTegic.value.IntegerValue
914

@<SCITEGIC>MOL_PROPERTY
Conf_Id
SciTegic.value.IntegerValue
54

@<SCITEGIC>MOL_PROPERTY
Delta U+W
SciTegic.value.DoubleValue
2.752

@<SCITEGIC>MOL_PROPERTY
U+W
SciTegic.value.DoubleValue
-33.525

@<SCITEGIC>MOL_PROPERTY
Grad RMS
SciTegic.value.DoubleValue
0.000000

@<SCITEGIC>MOL_PROPERTY
U
SciTegic.value.DoubleValue
24.337

@<SCITEGIC>MOL_PROPERTY
W
SciTegic.value.DoubleValue
-57.862

@<SCITEGIC>MOL_PROPERTY
W(PB)
SciTegic.value.DoubleValue
-59.764

@<SCITEGIC>MOL_PROPERTY
W(SA)
SciTegic.value.DoubleValue
1.901

@<SCITEGIC>MOL_PROPERTY
Valence
SciTegic.value.DoubleValue
3.593

@<SCITEGIC>MOL_PROPERTY
Coulomb
SciTegic.value.DoubleValue
20.067

@<SCITEGIC>MOL_PROPERTY
VdW
SciTegic.value.DoubleValue
0.677

@<SCITEGIC>MOL_PROPERTY
VdW6
SciTegic.value.DoubleValue
-5.466

@<SCITEGIC>MOL_PROPERTY
VdW12
SciTegic.value.DoubleValue
6.144

@<SCITEGIC>MOL_PROPERTY
Bond
SciTegic.value.DoubleValue
0.191

@<SCITEGIC>MOL_PROPERTY
Angle
SciTegic.value.DoubleValue
1.557

@<SCITEGIC>MOL_PROPERTY
Pdih
SciTegic.value.DoubleValue
1.845

@<SCITEGIC>MOL_PROPERTY
Idih
SciTegic.value.DoubleValue
0.000

@<SCITEGIC>MOL_PROPERTY
Tether
SciTegic.value.DoubleValue
0.000

@<TRIPOS>MOLECULE
guest-s10_confgen4.mol2 : confsearch ligand conformer 915
          20          19           1
SMALL
USER_CHARGES
 
@<TRIPOS>ATOM
       1    N1      19.344468   18.862947   24.719123 N.4        1 MOL1        -0.5937
       2    H1      18.946268   19.376719   25.509775 H          1 MOL1         0.3684
       3    H2      20.070372   18.245569   25.092777 H          1 MOL1         0.3684
       4    H3      18.604341   18.270513   24.336131 H          1 MOL1         0.3684
       5    C1      19.895783   19.797432   23.676686 C.3        1 MOL1         0.1270
       6    H4      20.661287   20.395570   24.180925 H          1 MOL1         0.0960
       7    C2      18.810282   20.764452   23.171312 C.3        1 MOL1        -0.2382
       8    H5      19.215663   21.442749   22.410357 H          1 MOL1         0.1009
       9    H6      18.430868   21.379905   23.996144 H          1 MOL1         0.1009
      10    H7      17.959216   20.227939   22.735556 H          1 MOL1         0.1009
      11    C3      20.592221   19.046718   22.516317 C.3        1 MOL1        -0.1392
      12    H8      21.047924   19.784022   21.842186 H          1 MOL1         0.0998
      13    H9      21.424658   18.463047   22.930783 H          1 MOL1         0.0998
      14    C4      19.669873   18.106560   21.697952 C.3        1 MOL1        -0.1302
      15    H10     18.858501   18.681376   21.231825 H          1 MOL1         0.0998
      16    H11     19.198105   17.367804   22.359644 H          1 MOL1         0.0998
      17    C5      20.453548   17.364663   20.593972 C.3        1 MOL1        -0.2317
      18    H12     19.787723   16.705216   20.022244 H          1 MOL1         0.1009
      19    H13     21.251900   16.745624   21.023676 H          1 MOL1         0.1009
      20    H14     20.911073   18.072477   19.890485 H          1 MOL1         0.1009
@<TRIPOS>BOND
    1     1     2    1
    2     1     3    1
    3     1     4    1
    4     1     5    1
    5     5     6    1
    6     5     7    1
    7     7     8    1
    8     7     9    1
    9     7    10    1
   10     5    11    1
   11    11    12    1
   12    11    13    1
   13    11    14    1
   14    14    15    1
   15    14    16    1
   16    14    17    1
   17    17    18    1
   18    17    19    1
   19    17    20    1
@<TRIPOS>SUBSTRUCTURE
       1 MOL1            1 RESIDUE      1      MOL     
@<SCITEGIC>MOL_PROPERTY
VConf Rank
SciTegic.value.IntegerValue
915

@<SCITEGIC>MOL_PROPERTY
Conf_Id
SciTegic.value.IntegerValue
63

@<SCITEGIC>MOL_PROPERTY
Delta U+W
SciTegic.value.DoubleValue
0.420

@<SCITEGIC>MOL_PROPERTY
U+W
SciTegic.value.DoubleValue
-35.856

@<SCITEGIC>MOL_PROPERTY
Grad RMS
SciTegic.value.DoubleValue
0.000000

@<SCITEGIC>MOL_PROPERTY
U
SciTegic.value.DoubleValue
22.625

@<SCITEGIC>MOL_PROPERTY
W
SciTegic.value.DoubleValue
-58.481

@<SCITEGIC>MOL_PROPERTY
W(PB)
SciTegic.value.DoubleValue
-60.400

@<SCITEGIC>MOL_PROPERTY
W(SA)
SciTegic.value.DoubleValue
1.919

@<SCITEGIC>MOL_PROPERTY
Valence
SciTegic.value.DoubleValue
2.404

@<SCITEGIC>MOL_PROPERTY
Coulomb
SciTegic.value.DoubleValue
19.464

@<SCITEGIC>MOL_PROPERTY
VdW
SciTegic.value.DoubleValue
0.757

@<SCITEGIC>MOL_PROPERTY
VdW6
SciTegic.value.DoubleValue
-5.074

@<SCITEGIC>MOL_PROPERTY
VdW12
SciTegic.value.DoubleValue
5.830

@<SCITEGIC>MOL_PROPERTY
Bond
SciTegic.value.DoubleValue
0.172

@<SCITEGIC>MOL_PROPERTY
Angle
SciTegic.value.DoubleValue
1.207

@<SCITEGIC>MOL_PROPERTY
Pdih
SciTegic.value.DoubleValue
1.025

@<SCITEGIC>MOL_PROPERTY
Idih
SciTegic.value.DoubleValue
0.000

@<SCITEGIC>MOL_PROPERTY
Tether
SciTegic.value.DoubleValue
0.000

@<TRIPOS>MOLECULE
guest-s10_confgen4.mol2 : confsearch ligand conformer 916
          20          19           1
SMALL
USER_CHARGES
 
@<TRIPOS>ATOM
       1    N1      21.022287   19.313115   21.647622 N.4        1 MOL1        -0.5937
       2    H1      21.226870   18.314868   21.739944 H          1 MOL1         0.3684
       3    H2      21.766006   19.825680   22.127810 H          1 MOL1         0.3684
       4    H3      21.082571   19.546850   20.652999 H          1 MOL1         0.3684
       5    C1      19.668465   19.648324   22.212404 C.3        1 MOL1         0.1270
       6    H4      18.937445   19.064490   21.645061 H          1 MOL1         0.0960
       7    C2      19.349927   21.138804   22.011117 C.3        1 MOL1        -0.2382
       8    H5      19.399896   21.406592   20.948559 H          1 MOL1         0.1009
       9    H6      20.058334   21.774119   22.557273 H          1 MOL1         0.1009
      10    H7      18.338254   21.372426   22.365463 H          1 MOL1         0.1009
      11    C3      19.539775   19.267349   23.704811 C.3        1 MOL1        -0.1392
      12    H8      20.255481   19.855907   24.294046 H          1 MOL1         0.0998
      13    H9      18.541186   19.552842   24.061519 H          1 MOL1         0.0998
      14    C4      19.759934   17.761370   23.997140 C.3        1 MOL1        -0.1302
      15    H10     19.652894   17.592743   25.077885 H          1 MOL1         0.0998
      16    H11     20.789844   17.472341   23.747511 H          1 MOL1         0.0998
      17    C5      18.765062   16.846733   23.246784 C.3        1 MOL1        -0.2317
      18    H12     17.727121   17.116945   23.480971 H          1 MOL1         0.1009
      19    H13     18.911542   15.798547   23.538192 H          1 MOL1         0.1009
      20    H14     18.898466   16.909085   22.159488 H          1 MOL1         0.1009
@<TRIPOS>BOND
    1     1     2    1
    2     1     3    1
    3     1     4    1
    4     1     5    1
    5     5     6    1
    6     5     7    1
    7     7     8    1
    8     7     9    1
    9     7    10    1
   10     5    11    1
   11    11    12    1
   12    11    13    1
   13    11    14    1
   14    14    15    1
   15    14    16    1
   16    14    17    1
   17    17    18    1
   18    17    19    1
   19    17    20    1
@<TRIPOS>SUBSTRUCTURE
       1 MOL1            1 RESIDUE      1      MOL     
@<SCITEGIC>MOL_PROPERTY
VConf Rank
SciTegic.value.IntegerValue
916

@<SCITEGIC>MOL_PROPERTY
Conf_Id
SciTegic.value.IntegerValue
50

@<SCITEGIC>MOL_PROPERTY
Delta U+W
SciTegic.value.DoubleValue
0.466

@<SCITEGIC>MOL_PROPERTY
U+W
SciTegic.value.DoubleValue
-35.811

@<SCITEGIC>MOL_PROPERTY
Grad RMS
SciTegic.value.DoubleValue
0.000000

@<SCITEGIC>MOL_PROPERTY
U
SciTegic.value.DoubleValue
22.369

@<SCITEGIC>MOL_PROPERTY
W
SciTegic.value.DoubleValue
-58.180

@<SCITEGIC>MOL_PROPERTY
W(PB)
SciTegic.value.DoubleValue
-60.103

@<SCITEGIC>MOL_PROPERTY
W(SA)
SciTegic.value.DoubleValue
1.923

@<SCITEGIC>MOL_PROPERTY
Valence
SciTegic.value.DoubleValue
2.168

@<SCITEGIC>MOL_PROPERTY
Coulomb
SciTegic.value.DoubleValue
19.636

@<SCITEGIC>MOL_PROPERTY
VdW
SciTegic.value.DoubleValue
0.566

@<SCITEGIC>MOL_PROPERTY
VdW6
SciTegic.value.DoubleValue
-5.263

@<SCITEGIC>MOL_PROPERTY
VdW12
SciTegic.value.DoubleValue
5.829

@<SCITEGIC>MOL_PROPERTY
Bond
SciTegic.value.DoubleValue
0.162

@<SCITEGIC>MOL_PROPERTY
Angle
SciTegic.value.DoubleValue
1.066

@<SCITEGIC>MOL_PROPERTY
Pdih
SciTegic.value.DoubleValue
0.939

@<SCITEGIC>MOL_PROPERTY
Idih
SciTegic.value.DoubleValue
0.000

@<SCITEGIC>MOL_PROPERTY
Tether
SciTegic.value.DoubleValue
0.000

@<TRIPOS>MOLECULE
guest-s10_confgen4.mol2 : confsearch ligand conformer 917
          20          19           1
SMALL
USER_CHARGES
 
@<TRIPOS>ATOM
       1    N1      20.660355   20.961249   23.117671 N.4        1 MOL1        -0.5937
       2    H1      20.004554   21.450823   23.732682 H          1 MOL1         0.3684
       3    H2      20.657552   21.446616   22.216958 H          1 MOL1         0.3684
       4    H3      21.594362   21.073872   23.521009 H          1 MOL1         0.3684
       5    C1      20.298329   19.508691   22.964069 C.3        1 MOL1         0.1270
       6    H4      20.324740   19.080029   23.970704 H          1 MOL1         0.0960
       7    C2      21.349123   18.792930   22.094885 C.3        1 MOL1        -0.2382
       8    H5      21.389200   19.225020   21.087235 H          1 MOL1         0.1009
       9    H6      21.128652   17.724751   21.994020 H          1 MOL1         0.1009
      10    H7      22.346645   18.883399   22.541981 H          1 MOL1         0.1009
      11    C3      18.867727   19.325916   22.399973 C.3        1 MOL1        -0.1392
      12    H8      18.312642   20.266125   22.516419 H          1 MOL1         0.0998
      13    H9      18.902996   19.135713   21.318958 H          1 MOL1         0.0998
      14    C4      18.050261   18.216996   23.109780 C.3        1 MOL1        -0.1302
      15    H10     17.031290   18.214301   22.697927 H          1 MOL1         0.0998
      16    H11     17.947426   18.462103   24.176283 H          1 MOL1         0.0998
      17    C5      18.648230   16.800049   22.965103 C.3        1 MOL1        -0.2317
      18    H12     18.803498   16.541198   21.909680 H          1 MOL1         0.1009
      19    H13     17.970484   16.052095   23.396688 H          1 MOL1         0.1009
      20    H14     19.607614   16.714169   23.490305 H          1 MOL1         0.1009
@<TRIPOS>BOND
    1     1     2    1
    2     1     3    1
    3     1     4    1
    4     1     5    1
    5     5     6    1
    6     5     7    1
    7     7     8    1
    8     7     9    1
    9     7    10    1
   10     5    11    1
   11    11    12    1
   12    11    13    1
   13    11    14    1
   14    14    15    1
   15    14    16    1
   16    14    17    1
   17    17    18    1
   18    17    19    1
   19    17    20    1
@<TRIPOS>SUBSTRUCTURE
       1 MOL1            1 RESIDUE      1      MOL     
@<SCITEGIC>MOL_PROPERTY
VConf Rank
SciTegic.value.IntegerValue
917

@<SCITEGIC>MOL_PROPERTY
Conf_Id
SciTegic.value.IntegerValue
3

@<SCITEGIC>MOL_PROPERTY
Delta U+W
SciTegic.value.DoubleValue
3.093

@<SCITEGIC>MOL_PROPERTY
U+W
SciTegic.value.DoubleValue
-33.184

@<SCITEGIC>MOL_PROPERTY
Grad RMS
SciTegic.value.DoubleValue
0.000000

@<SCITEGIC>MOL_PROPERTY
U
SciTegic.value.DoubleValue
25.256

@<SCITEGIC>MOL_PROPERTY
W
SciTegic.value.DoubleValue
-58.439

@<SCITEGIC>MOL_PROPERTY
W(PB)
SciTegic.value.DoubleValue
-60.337

@<SCITEGIC>MOL_PROPERTY
W(SA)
SciTegic.value.DoubleValue
1.898

@<SCITEGIC>MOL_PROPERTY
Valence
SciTegic.value.DoubleValue
4.963

@<SCITEGIC>MOL_PROPERTY
Coulomb
SciTegic.value.DoubleValue
19.511

@<SCITEGIC>MOL_PROPERTY
VdW
SciTegic.value.DoubleValue
0.782

@<SCITEGIC>MOL_PROPERTY
VdW6
SciTegic.value.DoubleValue
-5.429

@<SCITEGIC>MOL_PROPERTY
VdW12
SciTegic.value.DoubleValue
6.211

@<SCITEGIC>MOL_PROPERTY
Bond
SciTegic.value.DoubleValue
0.174

@<SCITEGIC>MOL_PROPERTY
Angle
SciTegic.value.DoubleValue
1.377

@<SCITEGIC>MOL_PROPERTY
Pdih
SciTegic.value.DoubleValue
3.412

@<SCITEGIC>MOL_PROPERTY
Idih
SciTegic.value.DoubleValue
0.000

@<SCITEGIC>MOL_PROPERTY
Tether
SciTegic.value.DoubleValue
0.000

@<TRIPOS>MOLECULE
guest-s10_confgen4.mol2 : confsearch ligand conformer 918
          20          19           1
SMALL
USER_CHARGES
 
@<TRIPOS>ATOM
       1    N1      20.592170   17.789785   24.508303 N.4        1 MOL1        -0.5937
       2    H1      21.194920   18.227831   25.210046 H          1 MOL1         0.3684
       3    H2      21.144258   17.060921   24.048100 H          1 MOL1         0.3684
       4    H3      19.829873   17.326352   25.009120 H          1 MOL1         0.3684
       5    C1      20.072080   18.798870   23.521573 C.3        1 MOL1         0.1270
       6    H4      20.951100   19.240581   23.042708 H          1 MOL1         0.0960
       7    C2      19.303851   19.915313   24.251970 C.3        1 MOL1        -0.2382
       8    H5      19.038538   20.729109   23.567222 H          1 MOL1         0.1009
       9    H6      19.918792   20.349986   25.049492 H          1 MOL1         0.1009
      10    H7      18.380972   19.531871   24.704469 H          1 MOL1         0.1009
      11    C3      19.212062   18.121157   22.428183 C.3        1 MOL1        -0.1392
      12    H8      19.781838   17.285585   22.000748 H          1 MOL1         0.0998
      13    H9      18.320730   17.676715   22.890496 H          1 MOL1         0.0998
      14    C4      18.770676   19.052881   21.270524 C.3        1 MOL1        -0.1302
      15    H10     18.086909   19.827272   21.643424 H          1 MOL1         0.0998
      16    H11     18.190317   18.463819   20.546626 H          1 MOL1         0.0998
      17    C5      19.960223   19.714678   20.538300 C.3        1 MOL1        -0.2317
      18    H12     20.660039   18.958971   20.158402 H          1 MOL1         0.1009
      19    H13     20.513396   20.393692   21.199362 H          1 MOL1         0.1009
      20    H14     19.605565   20.303077   19.682133 H          1 MOL1         0.1009
@<TRIPOS>BOND
    1     1     2    1
    2     1     3    1
    3     1     4    1
    4     1     5    1
    5     5     6    1
    6     5     7    1
    7     7     8    1
    8     7     9    1
    9     7    10    1
   10     5    11    1
   11    11    12    1
   12    11    13    1
   13    11    14    1
   14    14    15    1
   15    14    16    1
   16    14    17    1
   17    17    18    1
   18    17    19    1
   19    17    20    1
@<TRIPOS>SUBSTRUCTURE
       1 MOL1            1 RESIDUE      1      MOL     
@<SCITEGIC>MOL_PROPERTY
VConf Rank
SciTegic.value.IntegerValue
918

@<SCITEGIC>MOL_PROPERTY
Conf_Id
SciTegic.value.IntegerValue
64

@<SCITEGIC>MOL_PROPERTY
Delta U+W
SciTegic.value.DoubleValue
0.544

@<SCITEGIC>MOL_PROPERTY
U+W
SciTegic.value.DoubleValue
-35.732

@<SCITEGIC>MOL_PROPERTY
Grad RMS
SciTegic.value.DoubleValue
0.000000

@<SCITEGIC>MOL_PROPERTY
U
SciTegic.value.DoubleValue
22.800

@<SCITEGIC>MOL_PROPERTY
W
SciTegic.value.DoubleValue
-58.532

@<SCITEGIC>MOL_PROPERTY
W(PB)
SciTegic.value.DoubleValue
-60.437

@<SCITEGIC>MOL_PROPERTY
W(SA)
SciTegic.value.DoubleValue
1.905

@<SCITEGIC>MOL_PROPERTY
Valence
SciTegic.value.DoubleValue
2.662

@<SCITEGIC>MOL_PROPERTY
Coulomb
SciTegic.value.DoubleValue
19.485

@<SCITEGIC>MOL_PROPERTY
VdW
SciTegic.value.DoubleValue
0.653

@<SCITEGIC>MOL_PROPERTY
VdW6
SciTegic.value.DoubleValue
-5.460

@<SCITEGIC>MOL_PROPERTY
VdW12
SciTegic.value.DoubleValue
6.113

@<SCITEGIC>MOL_PROPERTY
Bond
SciTegic.value.DoubleValue
0.174

@<SCITEGIC>MOL_PROPERTY
Angle
SciTegic.value.DoubleValue
1.378

@<SCITEGIC>MOL_PROPERTY
Pdih
SciTegic.value.DoubleValue
1.109

@<SCITEGIC>MOL_PROPERTY
Idih
SciTegic.value.DoubleValue
0.000

@<SCITEGIC>MOL_PROPERTY
Tether
SciTegic.value.DoubleValue
0.000

@<TRIPOS>MOLECULE
guest-s10_confgen4.mol2 : confsearch ligand conformer 919
          20          19           1
SMALL
USER_CHARGES
 
@<TRIPOS>ATOM
       1    N1      19.594488   17.652077   21.020230 N.4        1 MOL1        -0.5937
       2    H1      18.759762   18.236605   20.937575 H          1 MOL1         0.3684
       3    H2      19.300449   16.679813   20.894306 H          1 MOL1         0.3684
       4    H3      20.212074   17.886031   20.238237 H          1 MOL1         0.3684
       5    C1      20.278758   17.852838   22.345485 C.3        1 MOL1         0.1270
       6    H4      21.143774   17.182255   22.340166 H          1 MOL1         0.0960
       7    C2      19.367322   17.417307   23.504502 C.3        1 MOL1        -0.2382
       8    H5      18.414073   17.958453   23.490851 H          1 MOL1         0.1009
       9    H6      19.854567   17.591444   24.471770 H          1 MOL1         0.1009
      10    H7      19.143063   16.346042   23.433296 H          1 MOL1         0.1009
      11    C3      20.825012   19.292954   22.514637 C.3        1 MOL1        -0.1392
      12    H8      21.460346   19.338786   23.408923 H          1 MOL1         0.0998
      13    H9      21.500410   19.488558   21.671395 H          1 MOL1         0.0998
      14    C4      19.765050   20.428470   22.562686 C.3        1 MOL1        -0.1302
      15    H10     18.885426   20.169251   21.958990 H          1 MOL1         0.0998
      16    H11     20.196086   21.324134   22.093670 H          1 MOL1         0.0998
      17    C5      19.332156   20.809614   23.997983 C.3        1 MOL1        -0.2317
      18    H12     18.849502   19.976004   24.519632 H          1 MOL1         0.1009
      19    H13     18.617509   21.642489   23.974215 H          1 MOL1         0.1009
      20    H14     20.194788   21.129819   24.596630 H          1 MOL1         0.1009
@<TRIPOS>BOND
    1     1     2    1
    2     1     3    1
    3     1     4    1
    4     1     5    1
    5     5     6    1
    6     5     7    1
    7     7     8    1
    8     7     9    1
    9     7    10    1
   10     5    11    1
   11    11    12    1
   12    11    13    1
   13    11    14    1
   14    14    15    1
   15    14    16    1
   16    14    17    1
   17    17    18    1
   18    17    19    1
   19    17    20    1
@<TRIPOS>SUBSTRUCTURE
       1 MOL1            1 RESIDUE      1      MOL     
@<SCITEGIC>MOL_PROPERTY
VConf Rank
SciTegic.value.IntegerValue
919

@<SCITEGIC>MOL_PROPERTY
Conf_Id
SciTegic.value.IntegerValue
35

@<SCITEGIC>MOL_PROPERTY
Delta U+W
SciTegic.value.DoubleValue
3.004

@<SCITEGIC>MOL_PROPERTY
U+W
SciTegic.value.DoubleValue
-33.272

@<SCITEGIC>MOL_PROPERTY
Grad RMS
SciTegic.value.DoubleValue
0.000000

@<SCITEGIC>MOL_PROPERTY
U
SciTegic.value.DoubleValue
25.367

@<SCITEGIC>MOL_PROPERTY
W
SciTegic.value.DoubleValue
-58.639

@<SCITEGIC>MOL_PROPERTY
W(PB)
SciTegic.value.DoubleValue
-60.512

@<SCITEGIC>MOL_PROPERTY
W(SA)
SciTegic.value.DoubleValue
1.873

@<SCITEGIC>MOL_PROPERTY
Valence
SciTegic.value.DoubleValue
4.943

@<SCITEGIC>MOL_PROPERTY
Coulomb
SciTegic.value.DoubleValue
19.661

@<SCITEGIC>MOL_PROPERTY
VdW
SciTegic.value.DoubleValue
0.764

@<SCITEGIC>MOL_PROPERTY
VdW6
SciTegic.value.DoubleValue
-5.871

@<SCITEGIC>MOL_PROPERTY
VdW12
SciTegic.value.DoubleValue
6.636

@<SCITEGIC>MOL_PROPERTY
Bond
SciTegic.value.DoubleValue
0.230

@<SCITEGIC>MOL_PROPERTY
Angle
SciTegic.value.DoubleValue
1.857

@<SCITEGIC>MOL_PROPERTY
Pdih
SciTegic.value.DoubleValue
2.855

@<SCITEGIC>MOL_PROPERTY
Idih
SciTegic.value.DoubleValue
0.000

@<SCITEGIC>MOL_PROPERTY
Tether
SciTegic.value.DoubleValue
0.000

@<TRIPOS>MOLECULE
guest-s10_confgen4.mol2 : confsearch ligand conformer 920
          20          19           1
SMALL
USER_CHARGES
 
@<TRIPOS>ATOM
       1    N1      18.269045   19.781745   22.297949 N.4        1 MOL1        -0.5937
       2    H1      17.624033   20.452217   22.724597 H          1 MOL1         0.3684
       3    H2      17.762888   19.309595   21.543984 H          1 MOL1         0.3684
       4    H3      19.029846   20.312769   21.869940 H          1 MOL1         0.3684
       5    C1      18.792644   18.799218   23.309358 C.3        1 MOL1         0.1270
       6    H4      17.909919   18.271352   23.683630 H          1 MOL1         0.0960
       7    C2      19.439072   19.517265   24.507293 C.3        1 MOL1        -0.2382
       8    H5      20.281029   20.146850   24.195802 H          1 MOL1         0.1009
       9    H6      19.805558   18.791742   25.243992 H          1 MOL1         0.1009
      10    H7      18.707063   20.160895   25.010155 H          1 MOL1         0.1009
      11    C3      19.725743   17.728004   22.688762 C.3        1 MOL1        -0.1392
      12    H8      19.800320   16.897969   23.403620 H          1 MOL1         0.0998
      13    H9      19.238901   17.303948   21.800855 H          1 MOL1         0.0998
      14    C4      21.170376   18.168092   22.320043 C.3        1 MOL1        -0.1302
      15    H10     21.706383   17.287460   21.939245 H          1 MOL1         0.0998
      16    H11     21.716171   18.477597   23.221679 H          1 MOL1         0.0998
      17    C5      21.252731   19.284062   21.253858 C.3        1 MOL1        -0.2317
      18    H12     20.644707   19.039291   20.373214 H          1 MOL1         0.1009
      19    H13     22.289712   19.411415   20.916779 H          1 MOL1         0.1009
      20    H14     20.924467   20.250057   21.654314 H          1 MOL1         0.1009
@<TRIPOS>BOND
    1     1     2    1
    2     1     3    1
    3     1     4    1
    4     1     5    1
    5     5     6    1
    6     5     7    1
    7     7     8    1
    8     7     9    1
    9     7    10    1
   10     5    11    1
   11    11    12    1
   12    11    13    1
   13    11    14    1
   14    14    15    1
   15    14    16    1
   16    14    17    1
   17    17    18    1
   18    17    19    1
   19    17    20    1
@<TRIPOS>SUBSTRUCTURE
       1 MOL1            1 RESIDUE      1      MOL     
@<SCITEGIC>MOL_PROPERTY
VConf Rank
SciTegic.value.IntegerValue
920

@<SCITEGIC>MOL_PROPERTY
Conf_Id
SciTegic.value.IntegerValue
55

@<SCITEGIC>MOL_PROPERTY
Delta U+W
SciTegic.value.DoubleValue
2.767

@<SCITEGIC>MOL_PROPERTY
U+W
SciTegic.value.DoubleValue
-33.509

@<SCITEGIC>MOL_PROPERTY
Grad RMS
SciTegic.value.DoubleValue
0.000000

@<SCITEGIC>MOL_PROPERTY
U
SciTegic.value.DoubleValue
24.552

@<SCITEGIC>MOL_PROPERTY
W
SciTegic.value.DoubleValue
-58.061

@<SCITEGIC>MOL_PROPERTY
W(PB)
SciTegic.value.DoubleValue
-59.930

@<SCITEGIC>MOL_PROPERTY
W(SA)
SciTegic.value.DoubleValue
1.869

@<SCITEGIC>MOL_PROPERTY
Valence
SciTegic.value.DoubleValue
3.726

@<SCITEGIC>MOL_PROPERTY
Coulomb
SciTegic.value.DoubleValue
20.219

@<SCITEGIC>MOL_PROPERTY
VdW
SciTegic.value.DoubleValue
0.606

@<SCITEGIC>MOL_PROPERTY
VdW6
SciTegic.value.DoubleValue
-6.395

@<SCITEGIC>MOL_PROPERTY
VdW12
SciTegic.value.DoubleValue
7.001

@<SCITEGIC>MOL_PROPERTY
Bond
SciTegic.value.DoubleValue
0.241

@<SCITEGIC>MOL_PROPERTY
Angle
SciTegic.value.DoubleValue
2.098

@<SCITEGIC>MOL_PROPERTY
Pdih
SciTegic.value.DoubleValue
1.387

@<SCITEGIC>MOL_PROPERTY
Idih
SciTegic.value.DoubleValue
0.000

@<SCITEGIC>MOL_PROPERTY
Tether
SciTegic.value.DoubleValue
0.000

@<TRIPOS>MOLECULE
guest-s10_confgen4.mol2 : confsearch ligand conformer 921
          20          19           1
SMALL
USER_CHARGES
 
@<TRIPOS>ATOM
       1    N1      19.652307   17.612249   24.158430 N.4        1 MOL1        -0.5937
       2    H1      19.536544   16.787366   23.564534 H          1 MOL1         0.3684
       3    H2      19.258419   17.385649   25.075579 H          1 MOL1         0.3684
       4    H3      20.656360   17.760062   24.287305 H          1 MOL1         0.3684
       5    C1      18.988500   18.821937   23.557533 C.3        1 MOL1         0.1270
       6    H4      19.162743   19.652546   24.248631 H          1 MOL1         0.0960
       7    C2      17.471069   18.603290   23.441071 C.3        1 MOL1        -0.2382
       8    H5      17.036046   18.368754   24.420363 H          1 MOL1         0.1009
       9    H6      17.239919   17.776694   22.757623 H          1 MOL1         0.1009
      10    H7      16.974505   19.506378   23.064911 H          1 MOL1         0.1009
      11    C3      19.582830   19.204169   22.183918 C.3        1 MOL1        -0.1392
      12    H8      19.441904   18.376044   21.476624 H          1 MOL1         0.0998
      13    H9      19.022515   20.058406   21.780937 H          1 MOL1         0.0998
      14    C4      21.082304   19.580797   22.256362 C.3        1 MOL1        -0.1302
      15    H10     21.673135   18.722604   22.603998 H          1 MOL1         0.0998
      16    H11     21.226924   20.385464   22.991098 H          1 MOL1         0.0998
      17    C5      21.621841   20.038718   20.884315 C.3        1 MOL1        -0.2317
      18    H12     21.519072   19.243735   20.134185 H          1 MOL1         0.1009
      19    H13     22.685722   20.300301   20.953714 H          1 MOL1         0.1009
      20    H14     21.081346   20.922761   20.521595 H          1 MOL1         0.1009
@<TRIPOS>BOND
    1     1     2    1
    2     1     3    1
    3     1     4    1
    4     1     5    1
    5     5     6    1
    6     5     7    1
    7     7     8    1
    8     7     9    1
    9     7    10    1
   10     5    11    1
   11    11    12    1
   12    11    13    1
   13    11    14    1
   14    14    15    1
   15    14    16    1
   16    14    17    1
   17    17    18    1
   18    17    19    1
   19    17    20    1
@<TRIPOS>SUBSTRUCTURE
       1 MOL1            1 RESIDUE      1      MOL     
@<SCITEGIC>MOL_PROPERTY
VConf Rank
SciTegic.value.IntegerValue
921

@<SCITEGIC>MOL_PROPERTY
Conf_Id
SciTegic.value.IntegerValue
74

@<SCITEGIC>MOL_PROPERTY
Delta U+W
SciTegic.value.DoubleValue
0.000

@<SCITEGIC>MOL_PROPERTY
U+W
SciTegic.value.DoubleValue
-36.276

@<SCITEGIC>MOL_PROPERTY
Grad RMS
SciTegic.value.DoubleValue
0.000000

@<SCITEGIC>MOL_PROPERTY
U
SciTegic.value.DoubleValue
22.080

@<SCITEGIC>MOL_PROPERTY
W
SciTegic.value.DoubleValue
-58.356

@<SCITEGIC>MOL_PROPERTY
W(PB)
SciTegic.value.DoubleValue
-60.289

@<SCITEGIC>MOL_PROPERTY
W(SA)
SciTegic.value.DoubleValue
1.932

@<SCITEGIC>MOL_PROPERTY
Valence
SciTegic.value.DoubleValue
1.885

@<SCITEGIC>MOL_PROPERTY
Coulomb
SciTegic.value.DoubleValue
19.559

@<SCITEGIC>MOL_PROPERTY
VdW
SciTegic.value.DoubleValue
0.637

@<SCITEGIC>MOL_PROPERTY
VdW6
SciTegic.value.DoubleValue
-4.482

@<SCITEGIC>MOL_PROPERTY
VdW12
SciTegic.value.DoubleValue
5.119

@<SCITEGIC>MOL_PROPERTY
Bond
SciTegic.value.DoubleValue
0.136

@<SCITEGIC>MOL_PROPERTY
Angle
SciTegic.value.DoubleValue
0.867

@<SCITEGIC>MOL_PROPERTY
Pdih
SciTegic.value.DoubleValue
0.882

@<SCITEGIC>MOL_PROPERTY
Idih
SciTegic.value.DoubleValue
0.000

@<SCITEGIC>MOL_PROPERTY
Tether
SciTegic.value.DoubleValue
0.000

@<TRIPOS>MOLECULE
guest-s10_confgen4.mol2 : confsearch ligand conformer 922
          20          19           1
SMALL
USER_CHARGES
 
@<TRIPOS>ATOM
       1    N1      20.133915   16.792849   23.711037 N.4        1 MOL1        -0.5937
       2    H1      20.577681   16.284983   22.940972 H          1 MOL1         0.3684
       3    H2      19.161818   16.478519   23.765357 H          1 MOL1         0.3684
       4    H3      20.597671   16.497694   24.574457 H          1 MOL1         0.3684
       5    C1      20.223382   18.282021   23.519128 C.3        1 MOL1         0.1270
       6    H4      21.289991   18.523538   23.475763 H          1 MOL1         0.0960
       7    C2      19.607984   19.013774   24.726034 C.3        1 MOL1        -0.2382
       8    H5      20.049020   18.652172   25.663026 H          1 MOL1         0.1009
       9    H6      18.523808   18.853916   24.776903 H          1 MOL1         0.1009
      10    H7      19.794588   20.092638   24.676505 H          1 MOL1         0.1009
      11    C3      19.575236   18.713745   22.183085 C.3        1 MOL1        -0.1392
      12    H8      19.978688   18.081608   21.381030 H          1 MOL1         0.0998
      13    H9      18.494766   18.520624   22.216828 H          1 MOL1         0.0998
      14    C4      19.829011   20.196065   21.815002 C.3        1 MOL1        -0.1302
      15    H10     20.907636   20.405501   21.842842 H          1 MOL1         0.0998
      16    H11     19.356633   20.858306   22.552699 H          1 MOL1         0.0998
      17    C5      19.277681   20.537574   20.413899 C.3        1 MOL1        -0.2317
      18    H12     19.757708   19.925155   19.639461 H          1 MOL1         0.1009
      19    H13     19.462652   21.592008   20.170913 H          1 MOL1         0.1009
      20    H14     18.194591   20.365548   20.363078 H          1 MOL1         0.1009
@<TRIPOS>BOND
    1     1     2    1
    2     1     3    1
    3     1     4    1
    4     1     5    1
    5     5     6    1
    6     5     7    1
    7     7     8    1
    8     7     9    1
    9     7    10    1
   10     5    11    1
   11    11    12    1
   12    11    13    1
   13    11    14    1
   14    14    15    1
   15    14    16    1
   16    14    17    1
   17    17    18    1
   18    17    19    1
   19    17    20    1
@<TRIPOS>SUBSTRUCTURE
       1 MOL1            1 RESIDUE      1      MOL     
@<SCITEGIC>MOL_PROPERTY
VConf Rank
SciTegic.value.IntegerValue
922

@<SCITEGIC>MOL_PROPERTY
Conf_Id
SciTegic.value.IntegerValue
80

@<SCITEGIC>MOL_PROPERTY
Delta U+W
SciTegic.value.DoubleValue
0.460

@<SCITEGIC>MOL_PROPERTY
U+W
SciTegic.value.DoubleValue
-35.817

@<SCITEGIC>MOL_PROPERTY
Grad RMS
SciTegic.value.DoubleValue
0.000000

@<SCITEGIC>MOL_PROPERTY
U
SciTegic.value.DoubleValue
22.495

@<SCITEGIC>MOL_PROPERTY
W
SciTegic.value.DoubleValue
-58.311

@<SCITEGIC>MOL_PROPERTY
W(PB)
SciTegic.value.DoubleValue
-60.259

@<SCITEGIC>MOL_PROPERTY
W(SA)
SciTegic.value.DoubleValue
1.948

@<SCITEGIC>MOL_PROPERTY
Valence
SciTegic.value.DoubleValue
2.419

@<SCITEGIC>MOL_PROPERTY
Coulomb
SciTegic.value.DoubleValue
19.304

@<SCITEGIC>MOL_PROPERTY
VdW
SciTegic.value.DoubleValue
0.772

@<SCITEGIC>MOL_PROPERTY
VdW6
SciTegic.value.DoubleValue
-4.635

@<SCITEGIC>MOL_PROPERTY
VdW12
SciTegic.value.DoubleValue
5.407

@<SCITEGIC>MOL_PROPERTY
Bond
SciTegic.value.DoubleValue
0.149

@<SCITEGIC>MOL_PROPERTY
Angle
SciTegic.value.DoubleValue
1.142

@<SCITEGIC>MOL_PROPERTY
Pdih
SciTegic.value.DoubleValue
1.129

@<SCITEGIC>MOL_PROPERTY
Idih
SciTegic.value.DoubleValue
0.000

@<SCITEGIC>MOL_PROPERTY
Tether
SciTegic.value.DoubleValue
0.000

@<TRIPOS>MOLECULE
guest-s10_confgen4.mol2 : confsearch ligand conformer 923
          20          19           1
SMALL
USER_CHARGES
 
@<TRIPOS>ATOM
       1    N1      21.880508   18.888171   21.611306 N.4        1 MOL1        -0.5937
       2    H1      22.560328   19.467370   22.111491 H          1 MOL1         0.3684
       3    H2      21.554996   19.425745   20.803999 H          1 MOL1         0.3684
       4    H3      22.384643   18.073539   21.250977 H          1 MOL1         0.3684
       5    C1      20.737534   18.479745   22.499871 C.3        1 MOL1         0.1270
       6    H4      21.178646   17.910400   23.323925 H          1 MOL1         0.0960
       7    C2      19.776482   17.551187   21.738021 C.3        1 MOL1        -0.2382
       8    H5      20.327532   16.734385   21.256024 H          1 MOL1         0.1009
       9    H6      19.227515   18.097226   20.960891 H          1 MOL1         0.1009
      10    H7      19.052110   17.091263   22.419755 H          1 MOL1         0.1009
      11    C3      20.028457   19.719302   23.098239 C.3        1 MOL1        -0.1392
      12    H8      20.796262   20.334344   23.585980 H          1 MOL1         0.0998
      13    H9      19.612431   20.342665   22.295699 H          1 MOL1         0.0998
      14    C4      18.935874   19.403605   24.153816 C.3        1 MOL1        -0.1302
      15    H10     18.973312   20.173251   24.937628 H          1 MOL1         0.0998
      16    H11     19.154366   18.451200   24.656958 H          1 MOL1         0.0998
      17    C5      17.503222   19.388687   23.570447 C.3        1 MOL1        -0.2317
      18    H12     17.248438   20.362339   23.132037 H          1 MOL1         0.1009
      19    H13     16.769597   19.177683   24.359278 H          1 MOL1         0.1009
      20    H14     17.381584   18.626951   22.792305 H          1 MOL1         0.1009
@<TRIPOS>BOND
    1     1     2    1
    2     1     3    1
    3     1     4    1
    4     1     5    1
    5     5     6    1
    6     5     7    1
    7     7     8    1
    8     7     9    1
    9     7    10    1
   10     5    11    1
   11    11    12    1
   12    11    13    1
   13    11    14    1
   14    14    15    1
   15    14    16    1
   16    14    17    1
   17    17    18    1
   18    17    19    1
   19    17    20    1
@<TRIPOS>SUBSTRUCTURE
       1 MOL1            1 RESIDUE      1      MOL     
@<SCITEGIC>MOL_PROPERTY
VConf Rank
SciTegic.value.IntegerValue
923

@<SCITEGIC>MOL_PROPERTY
Conf_Id
SciTegic.value.IntegerValue
52

@<SCITEGIC>MOL_PROPERTY
Delta U+W
SciTegic.value.DoubleValue
2.995

@<SCITEGIC>MOL_PROPERTY
U+W
SciTegic.value.DoubleValue
-33.282

@<SCITEGIC>MOL_PROPERTY
Grad RMS
SciTegic.value.DoubleValue
0.000000

@<SCITEGIC>MOL_PROPERTY
U
SciTegic.value.DoubleValue
25.224

@<SCITEGIC>MOL_PROPERTY
W
SciTegic.value.DoubleValue
-58.506

@<SCITEGIC>MOL_PROPERTY
W(PB)
SciTegic.value.DoubleValue
-60.411

@<SCITEGIC>MOL_PROPERTY
W(SA)
SciTegic.value.DoubleValue
1.905

@<SCITEGIC>MOL_PROPERTY
Valence
SciTegic.value.DoubleValue
4.945

@<SCITEGIC>MOL_PROPERTY
Coulomb
SciTegic.value.DoubleValue
19.467

@<SCITEGIC>MOL_PROPERTY
VdW
SciTegic.value.DoubleValue
0.813

@<SCITEGIC>MOL_PROPERTY
VdW6
SciTegic.value.DoubleValue
-5.458

@<SCITEGIC>MOL_PROPERTY
VdW12
SciTegic.value.DoubleValue
6.270

@<SCITEGIC>MOL_PROPERTY
Bond
SciTegic.value.DoubleValue
0.200

@<SCITEGIC>MOL_PROPERTY
Angle
SciTegic.value.DoubleValue
1.675

@<SCITEGIC>MOL_PROPERTY
Pdih
SciTegic.value.DoubleValue
3.070

@<SCITEGIC>MOL_PROPERTY
Idih
SciTegic.value.DoubleValue
0.000

@<SCITEGIC>MOL_PROPERTY
Tether
SciTegic.value.DoubleValue
0.000

@<TRIPOS>MOLECULE
guest-s10_confgen4.mol2 : confsearch ligand conformer 924
          20          19           1
SMALL
USER_CHARGES
 
@<TRIPOS>ATOM
       1    N1      20.682483   18.555746   23.991441 N.4        1 MOL1        -0.5937
       2    H1      20.503109   19.252122   24.718946 H          1 MOL1         0.3684
       3    H2      21.581151   18.114721   24.204842 H          1 MOL1         0.3684
       4    H3      19.959317   17.837577   24.070498 H          1 MOL1         0.3684
       5    C1      20.684586   19.180379   22.622837 C.3        1 MOL1         0.1270
       6    H4      20.929492   18.388903   21.907770 H          1 MOL1         0.0960
       7    C2      21.780340   20.256781   22.542561 C.3        1 MOL1        -0.2382
       8    H5      21.574227   21.085430   23.231558 H          1 MOL1         0.1009
       9    H6      21.852796   20.666284   21.527325 H          1 MOL1         0.1009
      10    H7      22.759734   19.834444   22.798984 H          1 MOL1         0.1009
      11    C3      19.311406   19.778475   22.234387 C.3        1 MOL1        -0.1392
      12    H8      18.920432   20.386384   23.060921 H          1 MOL1         0.0998
      13    H9      19.456463   20.471768   21.395109 H          1 MOL1         0.0998
      14    C4      18.251174   18.737303   21.788880 C.3        1 MOL1        -0.1302
      15    H10     18.631796   18.165108   20.931118 H          1 MOL1         0.0998
      16    H11     17.369991   19.282009   21.421676 H          1 MOL1         0.0998
      17    C5      17.793059   17.762001   22.897086 C.3        1 MOL1        -0.2317
      18    H12     16.910278   17.199754   22.565629 H          1 MOL1         0.1009
      19    H13     17.518997   18.299551   23.814281 H          1 MOL1         0.1009
      20    H14     18.569562   17.025530   23.133926 H          1 MOL1         0.1009
@<TRIPOS>BOND
    1     1     2    1
    2     1     3    1
    3     1     4    1
    4     1     5    1
    5     5     6    1
    6     5     7    1
    7     7     8    1
    8     7     9    1
    9     7    10    1
   10     5    11    1
   11    11    12    1
   12    11    13    1
   13    11    14    1
   14    14    15    1
   15    14    16    1
   16    14    17    1
   17    17    18    1
   18    17    19    1
   19    17    20    1
@<TRIPOS>SUBSTRUCTURE
       1 MOL1            1 RESIDUE      1      MOL     
@<SCITEGIC>MOL_PROPERTY
VConf Rank
SciTegic.value.IntegerValue
924

@<SCITEGIC>MOL_PROPERTY
Conf_Id
SciTegic.value.IntegerValue
54

@<SCITEGIC>MOL_PROPERTY
Delta U+W
SciTegic.value.DoubleValue
2.752

@<SCITEGIC>MOL_PROPERTY
U+W
SciTegic.value.DoubleValue
-33.525

@<SCITEGIC>MOL_PROPERTY
Grad RMS
SciTegic.value.DoubleValue
0.000000

@<SCITEGIC>MOL_PROPERTY
U
SciTegic.value.DoubleValue
24.337

@<SCITEGIC>MOL_PROPERTY
W
SciTegic.value.DoubleValue
-57.862

@<SCITEGIC>MOL_PROPERTY
W(PB)
SciTegic.value.DoubleValue
-59.764

@<SCITEGIC>MOL_PROPERTY
W(SA)
SciTegic.value.DoubleValue
1.901

@<SCITEGIC>MOL_PROPERTY
Valence
SciTegic.value.DoubleValue
3.593

@<SCITEGIC>MOL_PROPERTY
Coulomb
SciTegic.value.DoubleValue
20.067

@<SCITEGIC>MOL_PROPERTY
VdW
SciTegic.value.DoubleValue
0.677

@<SCITEGIC>MOL_PROPERTY
VdW6
SciTegic.value.DoubleValue
-5.466

@<SCITEGIC>MOL_PROPERTY
VdW12
SciTegic.value.DoubleValue
6.144

@<SCITEGIC>MOL_PROPERTY
Bond
SciTegic.value.DoubleValue
0.191

@<SCITEGIC>MOL_PROPERTY
Angle
SciTegic.value.DoubleValue
1.557

@<SCITEGIC>MOL_PROPERTY
Pdih
SciTegic.value.DoubleValue
1.845

@<SCITEGIC>MOL_PROPERTY
Idih
SciTegic.value.DoubleValue
0.000

@<SCITEGIC>MOL_PROPERTY
Tether
SciTegic.value.DoubleValue
0.000

@<TRIPOS>MOLECULE
guest-s10_confgen4.mol2 : confsearch ligand conformer 925
          20          19           1
SMALL
USER_CHARGES
 
@<TRIPOS>ATOM
       1    N1      20.796344   20.739470   22.750585 N.4        1 MOL1        -0.5937
       2    H1      21.020008   21.553231   23.329741 H          1 MOL1         0.3684
       3    H2      20.810731   21.048076   21.774743 H          1 MOL1         0.3684
       4    H3      21.553193   20.062449   22.870039 H          1 MOL1         0.3684
       5    C1      19.464523   20.147210   23.123906 C.3        1 MOL1         0.1270
       6    H4      18.728118   20.944275   22.981021 H          1 MOL1         0.0960
       7    C2      19.433672   19.748588   24.610174 C.3        1 MOL1        -0.2382
       8    H5      18.461873   19.315684   24.877894 H          1 MOL1         0.1009
       9    H6      19.591776   20.627975   25.246386 H          1 MOL1         0.1009
      10    H7      20.214103   19.017125   24.850866 H          1 MOL1         0.1009
      11    C3      19.056366   18.975693   22.198700 C.3        1 MOL1        -0.1392
      12    H8      18.042165   18.651208   22.466736 H          1 MOL1         0.0998
      13    H9      18.989482   19.353143   21.169883 H          1 MOL1         0.0998
      14    C4      20.009889   17.753358   22.230865 C.3        1 MOL1        -0.1302
      15    H10     20.049980   17.329065   23.242982 H          1 MOL1         0.0998
      16    H11     21.031890   18.062654   21.973935 H          1 MOL1         0.0998
      17    C5      19.554946   16.654162   21.246933 C.3        1 MOL1        -0.2317
      18    H12     20.237663   15.795262   21.282376 H          1 MOL1         0.1009
      19    H13     19.539327   17.028803   20.215128 H          1 MOL1         0.1009
      20    H14     18.548027   16.293869   21.494980 H          1 MOL1         0.1009
@<TRIPOS>BOND
    1     1     2    1
    2     1     3    1
    3     1     4    1
    4     1     5    1
    5     5     6    1
    6     5     7    1
    7     7     8    1
    8     7     9    1
    9     7    10    1
   10     5    11    1
   11    11    12    1
   12    11    13    1
   13    11    14    1
   14    14    15    1
   15    14    16    1
   16    14    17    1
   17    17    18    1
   18    17    19    1
   19    17    20    1
@<TRIPOS>SUBSTRUCTURE
       1 MOL1            1 RESIDUE      1      MOL     
@<SCITEGIC>MOL_PROPERTY
VConf Rank
SciTegic.value.IntegerValue
925

@<SCITEGIC>MOL_PROPERTY
Conf_Id
SciTegic.value.IntegerValue
63

@<SCITEGIC>MOL_PROPERTY
Delta U+W
SciTegic.value.DoubleValue
0.420

@<SCITEGIC>MOL_PROPERTY
U+W
SciTegic.value.DoubleValue
-35.856

@<SCITEGIC>MOL_PROPERTY
Grad RMS
SciTegic.value.DoubleValue
0.000000

@<SCITEGIC>MOL_PROPERTY
U
SciTegic.value.DoubleValue
22.625

@<SCITEGIC>MOL_PROPERTY
W
SciTegic.value.DoubleValue
-58.481

@<SCITEGIC>MOL_PROPERTY
W(PB)
SciTegic.value.DoubleValue
-60.400

@<SCITEGIC>MOL_PROPERTY
W(SA)
SciTegic.value.DoubleValue
1.919

@<SCITEGIC>MOL_PROPERTY
Valence
SciTegic.value.DoubleValue
2.404

@<SCITEGIC>MOL_PROPERTY
Coulomb
SciTegic.value.DoubleValue
19.464

@<SCITEGIC>MOL_PROPERTY
VdW
SciTegic.value.DoubleValue
0.757

@<SCITEGIC>MOL_PROPERTY
VdW6
SciTegic.value.DoubleValue
-5.074

@<SCITEGIC>MOL_PROPERTY
VdW12
SciTegic.value.DoubleValue
5.830

@<SCITEGIC>MOL_PROPERTY
Bond
SciTegic.value.DoubleValue
0.172

@<SCITEGIC>MOL_PROPERTY
Angle
SciTegic.value.DoubleValue
1.207

@<SCITEGIC>MOL_PROPERTY
Pdih
SciTegic.value.DoubleValue
1.025

@<SCITEGIC>MOL_PROPERTY
Idih
SciTegic.value.DoubleValue
0.000

@<SCITEGIC>MOL_PROPERTY
Tether
SciTegic.value.DoubleValue
0.000

@<TRIPOS>MOLECULE
guest-s10_confgen4.mol2 : confsearch ligand conformer 926
          20          19           1
SMALL
USER_CHARGES
 
@<TRIPOS>ATOM
       1    N1      19.068824   19.171225   24.411369 N.4        1 MOL1        -0.5937
       2    H1      19.409151   20.132509   24.327795 H          1 MOL1         0.3684
       3    H2      19.675731   18.686347   25.076934 H          1 MOL1         0.3684
       4    H3      18.133357   19.212916   24.824534 H          1 MOL1         0.3684
       5    C1      19.051905   18.479085   23.075392 C.3        1 MOL1         0.1270
       6    H4      18.382528   19.056212   22.430421 H          1 MOL1         0.0960
       7    C2      18.480919   17.057786   23.207292 C.3        1 MOL1        -0.2382
       8    H5      17.473174   17.082666   23.639805 H          1 MOL1         0.1009
       9    H6      19.113438   16.433240   23.850422 H          1 MOL1         0.1009
      10    H7      18.409206   16.573918   22.225278 H          1 MOL1         0.1009
      11    C3      20.447741   18.438875   22.412816 C.3        1 MOL1        -0.1392
      12    H8      21.130995   17.849072   23.038220 H          1 MOL1         0.0998
      13    H9      20.373220   17.907236   21.454831 H          1 MOL1         0.0998
      14    C4      21.070764   19.835051   22.158980 C.3        1 MOL1        -0.1302
      15    H10     22.056966   19.701485   21.692645 H          1 MOL1         0.0998
      16    H11     21.255245   20.348003   23.112612 H          1 MOL1         0.0998
      17    C5      20.201893   20.729234   21.245269 C.3        1 MOL1        -0.2317
      18    H12     20.003886   20.236780   20.284300 H          1 MOL1         0.1009
      19    H13     20.713933   21.677395   21.035807 H          1 MOL1         0.1009
      20    H14     19.238484   20.970098   21.711877 H          1 MOL1         0.1009
@<TRIPOS>BOND
    1     1     2    1
    2     1     3    1
    3     1     4    1
    4     1     5    1
    5     5     6    1
    6     5     7    1
    7     7     8    1
    8     7     9    1
    9     7    10    1
   10     5    11    1
   11    11    12    1
   12    11    13    1
   13    11    14    1
   14    14    15    1
   15    14    16    1
   16    14    17    1
   17    17    18    1
   18    17    19    1
   19    17    20    1
@<TRIPOS>SUBSTRUCTURE
       1 MOL1            1 RESIDUE      1      MOL     
@<SCITEGIC>MOL_PROPERTY
VConf Rank
SciTegic.value.IntegerValue
926

@<SCITEGIC>MOL_PROPERTY
Conf_Id
SciTegic.value.IntegerValue
50

@<SCITEGIC>MOL_PROPERTY
Delta U+W
SciTegic.value.DoubleValue
0.466

@<SCITEGIC>MOL_PROPERTY
U+W
SciTegic.value.DoubleValue
-35.811

@<SCITEGIC>MOL_PROPERTY
Grad RMS
SciTegic.value.DoubleValue
0.000000

@<SCITEGIC>MOL_PROPERTY
U
SciTegic.value.DoubleValue
22.369

@<SCITEGIC>MOL_PROPERTY
W
SciTegic.value.DoubleValue
-58.180

@<SCITEGIC>MOL_PROPERTY
W(PB)
SciTegic.value.DoubleValue
-60.103

@<SCITEGIC>MOL_PROPERTY
W(SA)
SciTegic.value.DoubleValue
1.923

@<SCITEGIC>MOL_PROPERTY
Valence
SciTegic.value.DoubleValue
2.168

@<SCITEGIC>MOL_PROPERTY
Coulomb
SciTegic.value.DoubleValue
19.636

@<SCITEGIC>MOL_PROPERTY
VdW
SciTegic.value.DoubleValue
0.566

@<SCITEGIC>MOL_PROPERTY
VdW6
SciTegic.value.DoubleValue
-5.263

@<SCITEGIC>MOL_PROPERTY
VdW12
SciTegic.value.DoubleValue
5.829

@<SCITEGIC>MOL_PROPERTY
Bond
SciTegic.value.DoubleValue
0.162

@<SCITEGIC>MOL_PROPERTY
Angle
SciTegic.value.DoubleValue
1.066

@<SCITEGIC>MOL_PROPERTY
Pdih
SciTegic.value.DoubleValue
0.939

@<SCITEGIC>MOL_PROPERTY
Idih
SciTegic.value.DoubleValue
0.000

@<SCITEGIC>MOL_PROPERTY
Tether
SciTegic.value.DoubleValue
0.000

@<TRIPOS>MOLECULE
guest-s10_confgen4.mol2 : confsearch ligand conformer 927
          20          19           1
SMALL
USER_CHARGES
 
@<TRIPOS>ATOM
       1    N1      21.205631   17.486068   23.795244 N.4        1 MOL1        -0.5937
       2    H1      20.932058   16.546550   23.494475 H          1 MOL1         0.3684
       3    H2      21.027535   17.550778   24.800712 H          1 MOL1         0.3684
       4    H3      22.217222   17.564094   23.659849 H          1 MOL1         0.3684
       5    C1      20.464241   18.550787   23.032817 C.3        1 MOL1         0.1270
       6    H4      20.712771   18.399008   21.977849 H          1 MOL1         0.0960
       7    C2      20.957889   19.945496   23.460676 C.3        1 MOL1        -0.2382
       8    H5      20.770453   20.121037   24.527315 H          1 MOL1         0.1009
       9    H6      20.458349   20.740359   22.896370 H          1 MOL1         0.1009
      10    H7      22.036229   20.043985   23.285718 H          1 MOL1         0.1009
      11    C3      18.929908   18.412836   23.191006 C.3        1 MOL1        -0.1392
      12    H8      18.696160   17.407422   23.565408 H          1 MOL1         0.0998
      13    H9      18.559292   19.106848   23.957168 H          1 MOL1         0.0998
      14    C4      18.142899   18.607430   21.870198 C.3        1 MOL1        -0.1302
      15    H10     17.078422   18.414924   22.064523 H          1 MOL1         0.0998
      16    H11     18.460831   17.851490   21.138383 H          1 MOL1         0.0998
      17    C5      18.287939   20.014432   21.249276 C.3        1 MOL1        -0.2317
      18    H12     18.018006   20.796059   21.971234 H          1 MOL1         0.1009
      19    H13     17.626460   20.119626   20.379551 H          1 MOL1         0.1009
      20    H14     19.313384   20.196814   20.904558 H          1 MOL1         0.1009
@<TRIPOS>BOND
    1     1     2    1
    2     1     3    1
    3     1     4    1
    4     1     5    1
    5     5     6    1
    6     5     7    1
    7     7     8    1
    8     7     9    1
    9     7    10    1
   10     5    11    1
   11    11    12    1
   12    11    13    1
   13    11    14    1
   14    14    15    1
   15    14    16    1
   16    14    17    1
   17    17    18    1
   18    17    19    1
   19    17    20    1
@<TRIPOS>SUBSTRUCTURE
       1 MOL1            1 RESIDUE      1      MOL     
@<SCITEGIC>MOL_PROPERTY
VConf Rank
SciTegic.value.IntegerValue
927

@<SCITEGIC>MOL_PROPERTY
Conf_Id
SciTegic.value.IntegerValue
3

@<SCITEGIC>MOL_PROPERTY
Delta U+W
SciTegic.value.DoubleValue
3.093

@<SCITEGIC>MOL_PROPERTY
U+W
SciTegic.value.DoubleValue
-33.184

@<SCITEGIC>MOL_PROPERTY
Grad RMS
SciTegic.value.DoubleValue
0.000000

@<SCITEGIC>MOL_PROPERTY
U
SciTegic.value.DoubleValue
25.256

@<SCITEGIC>MOL_PROPERTY
W
SciTegic.value.DoubleValue
-58.439

@<SCITEGIC>MOL_PROPERTY
W(PB)
SciTegic.value.DoubleValue
-60.337

@<SCITEGIC>MOL_PROPERTY
W(SA)
SciTegic.value.DoubleValue
1.898

@<SCITEGIC>MOL_PROPERTY
Valence
SciTegic.value.DoubleValue
4.963

@<SCITEGIC>MOL_PROPERTY
Coulomb
SciTegic.value.DoubleValue
19.511

@<SCITEGIC>MOL_PROPERTY
VdW
SciTegic.value.DoubleValue
0.782

@<SCITEGIC>MOL_PROPERTY
VdW6
SciTegic.value.DoubleValue
-5.429

@<SCITEGIC>MOL_PROPERTY
VdW12
SciTegic.value.DoubleValue
6.211

@<SCITEGIC>MOL_PROPERTY
Bond
SciTegic.value.DoubleValue
0.174

@<SCITEGIC>MOL_PROPERTY
Angle
SciTegic.value.DoubleValue
1.377

@<SCITEGIC>MOL_PROPERTY
Pdih
SciTegic.value.DoubleValue
3.412

@<SCITEGIC>MOL_PROPERTY
Idih
SciTegic.value.DoubleValue
0.000

@<SCITEGIC>MOL_PROPERTY
Tether
SciTegic.value.DoubleValue
0.000

@<TRIPOS>MOLECULE
guest-s10_confgen4.mol2 : confsearch ligand conformer 928
          20          19           1
SMALL
USER_CHARGES
 
@<TRIPOS>ATOM
       1    N1      20.501614   18.707650   24.877299 N.4        1 MOL1        -0.5937
       2    H1      21.245225   18.046474   25.117143 H          1 MOL1         0.3684
       3    H2      19.677484   18.447863   25.426072 H          1 MOL1         0.3684
       4    H3      20.802657   19.632146   25.195677 H          1 MOL1         0.3684
       5    C1      20.211497   18.698849   23.401448 C.3        1 MOL1         0.1270
       6    H4      19.903956   17.678032   23.155585 H          1 MOL1         0.0960
       7    C2      21.486032   19.028187   22.603201 C.3        1 MOL1        -0.2382
       8    H5      21.328279   18.889953   21.527311 H          1 MOL1         0.1009
       9    H6      22.309031   18.365731   22.898086 H          1 MOL1         0.1009
      10    H7      21.804964   20.063881   22.773813 H          1 MOL1         0.1009
      11    C3      19.045214   19.654723   23.054293 C.3        1 MOL1        -0.1392
      12    H8      18.194769   19.423623   23.709168 H          1 MOL1         0.0998
      13    H9      19.338701   20.686403   23.289317 H          1 MOL1         0.0998
      14    C4      18.559812   19.589053   21.583519 C.3        1 MOL1        -0.1302
      15    H10     19.347658   19.943655   20.905411 H          1 MOL1         0.0998
      16    H11     17.720203   20.287126   21.458658 H          1 MOL1         0.0998
      17    C5      18.102441   18.174926   21.159012 C.3        1 MOL1        -0.2317
      18    H12     17.315692   17.797667   21.825240 H          1 MOL1         0.1009
      19    H13     18.935423   17.460761   21.172176 H          1 MOL1         0.1009
      20    H14     17.697654   18.191763   20.138775 H          1 MOL1         0.1009
@<TRIPOS>BOND
    1     1     2    1
    2     1     3    1
    3     1     4    1
    4     1     5    1
    5     5     6    1
    6     5     7    1
    7     7     8    1
    8     7     9    1
    9     7    10    1
   10     5    11    1
   11    11    12    1
   12    11    13    1
   13    11    14    1
   14    14    15    1
   15    14    16    1
   16    14    17    1
   17    17    18    1
   18    17    19    1
   19    17    20    1
@<TRIPOS>SUBSTRUCTURE
       1 MOL1            1 RESIDUE      1      MOL     
@<SCITEGIC>MOL_PROPERTY
VConf Rank
SciTegic.value.IntegerValue
928

@<SCITEGIC>MOL_PROPERTY
Conf_Id
SciTegic.value.IntegerValue
64

@<SCITEGIC>MOL_PROPERTY
Delta U+W
SciTegic.value.DoubleValue
0.544

@<SCITEGIC>MOL_PROPERTY
U+W
SciTegic.value.DoubleValue
-35.732

@<SCITEGIC>MOL_PROPERTY
Grad RMS
SciTegic.value.DoubleValue
0.000000

@<SCITEGIC>MOL_PROPERTY
U
SciTegic.value.DoubleValue
22.800

@<SCITEGIC>MOL_PROPERTY
W
SciTegic.value.DoubleValue
-58.532

@<SCITEGIC>MOL_PROPERTY
W(PB)
SciTegic.value.DoubleValue
-60.437

@<SCITEGIC>MOL_PROPERTY
W(SA)
SciTegic.value.DoubleValue
1.905

@<SCITEGIC>MOL_PROPERTY
Valence
SciTegic.value.DoubleValue
2.662

@<SCITEGIC>MOL_PROPERTY
Coulomb
SciTegic.value.DoubleValue
19.485

@<SCITEGIC>MOL_PROPERTY
VdW
SciTegic.value.DoubleValue
0.653

@<SCITEGIC>MOL_PROPERTY
VdW6
SciTegic.value.DoubleValue
-5.460

@<SCITEGIC>MOL_PROPERTY
VdW12
SciTegic.value.DoubleValue
6.113

@<SCITEGIC>MOL_PROPERTY
Bond
SciTegic.value.DoubleValue
0.174

@<SCITEGIC>MOL_PROPERTY
Angle
SciTegic.value.DoubleValue
1.378

@<SCITEGIC>MOL_PROPERTY
Pdih
SciTegic.value.DoubleValue
1.109

@<SCITEGIC>MOL_PROPERTY
Idih
SciTegic.value.DoubleValue
0.000

@<SCITEGIC>MOL_PROPERTY
Tether
SciTegic.value.DoubleValue
0.000

@<TRIPOS>MOLECULE
guest-s10_confgen4.mol2 : confsearch ligand conformer 929
          20          19           1
SMALL
USER_CHARGES
 
@<TRIPOS>ATOM
       1    N1      17.894396   19.574236   22.020189 N.4        1 MOL1        -0.5937
       2    H1      18.528700   20.112747   21.426102 H          1 MOL1         0.3684
       3    H2      17.193870   20.224001   22.387179 H          1 MOL1         0.3684
       4    H3      17.403628   18.906365   21.419561 H          1 MOL1         0.3684
       5    C1      18.635805   18.879605   23.130429 C.3        1 MOL1         0.1270
       6    H4      17.875732   18.345997   23.709666 H          1 MOL1         0.0960
       7    C2      19.296789   19.900627   24.070821 C.3        1 MOL1        -0.2382
       8    H5      19.977266   20.565884   23.526676 H          1 MOL1         0.1009
       9    H6      19.861922   19.394043   24.862867 H          1 MOL1         0.1009
      10    H7      18.535385   20.525485   24.553301 H          1 MOL1         0.1009
      11    C3      19.629063   17.815109   22.600121 C.3        1 MOL1        -0.1392
      12    H8      20.010483   17.221718   23.441491 H          1 MOL1         0.0998
      13    H9      19.055347   17.108419   21.986184 H          1 MOL1         0.0998
      14    C4      20.816071   18.346596   21.749381 C.3        1 MOL1        -0.1302
      15    H10     20.528672   19.251267   21.197700 H          1 MOL1         0.0998
      16    H11     21.057957   17.594642   20.985157 H          1 MOL1         0.0998
      17    C5      22.098039   18.610505   22.573794 C.3        1 MOL1        -0.2317
      18    H12     21.949398   19.386212   23.332846 H          1 MOL1         0.1009
      19    H13     22.913729   18.941935   21.918225 H          1 MOL1         0.1009
      20    H14     22.432363   17.697551   23.083486 H          1 MOL1         0.1009
@<TRIPOS>BOND
    1     1     2    1
    2     1     3    1
    3     1     4    1
    4     1     5    1
    5     5     6    1
    6     5     7    1
    7     7     8    1
    8     7     9    1
    9     7    10    1
   10     5    11    1
   11    11    12    1
   12    11    13    1
   13    11    14    1
   14    14    15    1
   15    14    16    1
   16    14    17    1
   17    17    18    1
   18    17    19    1
   19    17    20    1
@<TRIPOS>SUBSTRUCTURE
       1 MOL1            1 RESIDUE      1      MOL     
@<SCITEGIC>MOL_PROPERTY
VConf Rank
SciTegic.value.IntegerValue
929

@<SCITEGIC>MOL_PROPERTY
Conf_Id
SciTegic.value.IntegerValue
35

@<SCITEGIC>MOL_PROPERTY
Delta U+W
SciTegic.value.DoubleValue
3.004

@<SCITEGIC>MOL_PROPERTY
U+W
SciTegic.value.DoubleValue
-33.272

@<SCITEGIC>MOL_PROPERTY
Grad RMS
SciTegic.value.DoubleValue
0.000000

@<SCITEGIC>MOL_PROPERTY
U
SciTegic.value.DoubleValue
25.367

@<SCITEGIC>MOL_PROPERTY
W
SciTegic.value.DoubleValue
-58.639

@<SCITEGIC>MOL_PROPERTY
W(PB)
SciTegic.value.DoubleValue
-60.512

@<SCITEGIC>MOL_PROPERTY
W(SA)
SciTegic.value.DoubleValue
1.873

@<SCITEGIC>MOL_PROPERTY
Valence
SciTegic.value.DoubleValue
4.943

@<SCITEGIC>MOL_PROPERTY
Coulomb
SciTegic.value.DoubleValue
19.661

@<SCITEGIC>MOL_PROPERTY
VdW
SciTegic.value.DoubleValue
0.764

@<SCITEGIC>MOL_PROPERTY
VdW6
SciTegic.value.DoubleValue
-5.871

@<SCITEGIC>MOL_PROPERTY
VdW12
SciTegic.value.DoubleValue
6.636

@<SCITEGIC>MOL_PROPERTY
Bond
SciTegic.value.DoubleValue
0.230

@<SCITEGIC>MOL_PROPERTY
Angle
SciTegic.value.DoubleValue
1.857

@<SCITEGIC>MOL_PROPERTY
Pdih
SciTegic.value.DoubleValue
2.855

@<SCITEGIC>MOL_PROPERTY
Idih
SciTegic.value.DoubleValue
0.000

@<SCITEGIC>MOL_PROPERTY
Tether
SciTegic.value.DoubleValue
0.000

@<TRIPOS>MOLECULE
guest-s10_confgen4.mol2 : confsearch ligand conformer 930
          20          19           1
SMALL
USER_CHARGES
 
@<TRIPOS>ATOM
       1    N1      20.219363   19.548491   21.063906 N.4        1 MOL1        -0.5937
       2    H1      19.913406   20.271853   20.407599 H          1 MOL1         0.3684
       3    H2      20.752550   18.857707   20.529013 H          1 MOL1         0.3684
       4    H3      20.862464   19.984128   21.727712 H          1 MOL1         0.3684
       5    C1      19.052481   18.915921   21.771512 C.3        1 MOL1         0.1270
       6    H4      18.446893   18.461344   20.981227 H          1 MOL1         0.0960
       7    C2      18.177701   19.973434   22.467886 C.3        1 MOL1        -0.2382
       8    H5      18.745615   20.540549   23.214980 H          1 MOL1         0.1009
       9    H6      17.323320   19.502345   22.969413 H          1 MOL1         0.1009
      10    H7      17.781214   20.687015   21.735378 H          1 MOL1         0.1009
      11    C3      19.471196   17.771379   22.729642 C.3        1 MOL1        -0.1392
      12    H8      18.574503   17.176942   22.949025 H          1 MOL1         0.0998
      13    H9      20.147627   17.090860   22.196207 H          1 MOL1         0.0998
      14    C4      20.115698   18.176112   24.085151 C.3        1 MOL1        -0.1302
      15    H10     20.308385   17.257437   24.656756 H          1 MOL1         0.0998
      16    H11     19.402562   18.753977   24.688591 H          1 MOL1         0.0998
      17    C5      21.443738   18.956969   23.960665 C.3        1 MOL1        -0.2317
      18    H12     22.146649   18.443366   23.291884 H          1 MOL1         0.1009
      19    H13     21.925070   19.046614   24.943239 H          1 MOL1         0.1009
      20    H14     21.280173   19.975100   23.589285 H          1 MOL1         0.1009
@<TRIPOS>BOND
    1     1     2    1
    2     1     3    1
    3     1     4    1
    4     1     5    1
    5     5     6    1
    6     5     7    1
    7     7     8    1
    8     7     9    1
    9     7    10    1
   10     5    11    1
   11    11    12    1
   12    11    13    1
   13    11    14    1
   14    14    15    1
   15    14    16    1
   16    14    17    1
   17    17    18    1
   18    17    19    1
   19    17    20    1
@<TRIPOS>SUBSTRUCTURE
       1 MOL1            1 RESIDUE      1      MOL     
@<SCITEGIC>MOL_PROPERTY
VConf Rank
SciTegic.value.IntegerValue
930

@<SCITEGIC>MOL_PROPERTY
Conf_Id
SciTegic.value.IntegerValue
55

@<SCITEGIC>MOL_PROPERTY
Delta U+W
SciTegic.value.DoubleValue
2.767

@<SCITEGIC>MOL_PROPERTY
U+W
SciTegic.value.DoubleValue
-33.509

@<SCITEGIC>MOL_PROPERTY
Grad RMS
SciTegic.value.DoubleValue
0.000000

@<SCITEGIC>MOL_PROPERTY
U
SciTegic.value.DoubleValue
24.552

@<SCITEGIC>MOL_PROPERTY
W
SciTegic.value.DoubleValue
-58.061

@<SCITEGIC>MOL_PROPERTY
W(PB)
SciTegic.value.DoubleValue
-59.930

@<SCITEGIC>MOL_PROPERTY
W(SA)
SciTegic.value.DoubleValue
1.869

@<SCITEGIC>MOL_PROPERTY
Valence
SciTegic.value.DoubleValue
3.726

@<SCITEGIC>MOL_PROPERTY
Coulomb
SciTegic.value.DoubleValue
20.219

@<SCITEGIC>MOL_PROPERTY
VdW
SciTegic.value.DoubleValue
0.606

@<SCITEGIC>MOL_PROPERTY
VdW6
SciTegic.value.DoubleValue
-6.395

@<SCITEGIC>MOL_PROPERTY
VdW12
SciTegic.value.DoubleValue
7.001

@<SCITEGIC>MOL_PROPERTY
Bond
SciTegic.value.DoubleValue
0.241

@<SCITEGIC>MOL_PROPERTY
Angle
SciTegic.value.DoubleValue
2.098

@<SCITEGIC>MOL_PROPERTY
Pdih
SciTegic.value.DoubleValue
1.387

@<SCITEGIC>MOL_PROPERTY
Idih
SciTegic.value.DoubleValue
0.000

@<SCITEGIC>MOL_PROPERTY
Tether
SciTegic.value.DoubleValue
0.000

@<TRIPOS>MOLECULE
guest-s10_confgen4.mol2 : confsearch ligand conformer 931
          20          19           1
SMALL
USER_CHARGES
 
@<TRIPOS>ATOM
       1    N1      19.477929   20.899447   22.908341 N.4        1 MOL1        -0.5937
       2    H1      19.650210   21.154113   21.932631 H          1 MOL1         0.3684
       3    H2      19.675806   21.725848   23.478923 H          1 MOL1         0.3684
       4    H3      18.479337   20.697865   23.001939 H          1 MOL1         0.3684
       5    C1      20.320293   19.725264   23.328790 C.3        1 MOL1         0.1270
       6    H4      20.072706   19.518608   24.374678 H          1 MOL1         0.0960
       7    C2      21.814973   20.076658   23.248650 C.3        1 MOL1        -0.2382
       8    H5      22.040894   20.956017   23.864241 H          1 MOL1         0.1009
       9    H6      22.117132   20.295090   22.216768 H          1 MOL1         0.1009
      10    H7      22.431123   19.246765   23.616448 H          1 MOL1         0.1009
      11    C3      20.022393   18.454798   22.502158 C.3        1 MOL1        -0.1392
      12    H8      20.240558   18.643426   21.442564 H          1 MOL1         0.0998
      13    H9      20.702915   17.655206   22.824042 H          1 MOL1         0.0998
      14    C4      18.563861   17.960277   22.655960 C.3        1 MOL1        -0.1302
      15    H10     17.863646   18.721996   22.287302 H          1 MOL1         0.0998
      16    H11     18.335369   17.806148   23.720045 H          1 MOL1         0.0998
      17    C5      18.324254   16.643792   21.886052 C.3        1 MOL1        -0.2317
      18    H12     18.515277   16.773553   20.812773 H          1 MOL1         0.1009
      19    H13     17.285655   16.308694   22.004816 H          1 MOL1         0.1009
      20    H14     18.979675   15.844361   22.255602 H          1 MOL1         0.1009
@<TRIPOS>BOND
    1     1     2    1
    2     1     3    1
    3     1     4    1
    4     1     5    1
    5     5     6    1
    6     5     7    1
    7     7     8    1
    8     7     9    1
    9     7    10    1
   10     5    11    1
   11    11    12    1
   12    11    13    1
   13    11    14    1
   14    14    15    1
   15    14    16    1
   16    14    17    1
   17    17    18    1
   18    17    19    1
   19    17    20    1
@<TRIPOS>SUBSTRUCTURE
       1 MOL1            1 RESIDUE      1      MOL     
@<SCITEGIC>MOL_PROPERTY
VConf Rank
SciTegic.value.IntegerValue
931

@<SCITEGIC>MOL_PROPERTY
Conf_Id
SciTegic.value.IntegerValue
74

@<SCITEGIC>MOL_PROPERTY
Delta U+W
SciTegic.value.DoubleValue
0.000

@<SCITEGIC>MOL_PROPERTY
U+W
SciTegic.value.DoubleValue
-36.276

@<SCITEGIC>MOL_PROPERTY
Grad RMS
SciTegic.value.DoubleValue
0.000000

@<SCITEGIC>MOL_PROPERTY
U
SciTegic.value.DoubleValue
22.080

@<SCITEGIC>MOL_PROPERTY
W
SciTegic.value.DoubleValue
-58.356

@<SCITEGIC>MOL_PROPERTY
W(PB)
SciTegic.value.DoubleValue
-60.289

@<SCITEGIC>MOL_PROPERTY
W(SA)
SciTegic.value.DoubleValue
1.932

@<SCITEGIC>MOL_PROPERTY
Valence
SciTegic.value.DoubleValue
1.885

@<SCITEGIC>MOL_PROPERTY
Coulomb
SciTegic.value.DoubleValue
19.559

@<SCITEGIC>MOL_PROPERTY
VdW
SciTegic.value.DoubleValue
0.637

@<SCITEGIC>MOL_PROPERTY
VdW6
SciTegic.value.DoubleValue
-4.482

@<SCITEGIC>MOL_PROPERTY
VdW12
SciTegic.value.DoubleValue
5.119

@<SCITEGIC>MOL_PROPERTY
Bond
SciTegic.value.DoubleValue
0.136

@<SCITEGIC>MOL_PROPERTY
Angle
SciTegic.value.DoubleValue
0.867

@<SCITEGIC>MOL_PROPERTY
Pdih
SciTegic.value.DoubleValue
0.882

@<SCITEGIC>MOL_PROPERTY
Idih
SciTegic.value.DoubleValue
0.000

@<SCITEGIC>MOL_PROPERTY
Tether
SciTegic.value.DoubleValue
0.000

@<TRIPOS>MOLECULE
guest-s10_confgen4.mol2 : confsearch ligand conformer 932
          20          19           1
SMALL
USER_CHARGES
 
@<TRIPOS>ATOM
       1    N1      21.067443   17.899418   21.021350 N.4        1 MOL1        -0.5937
       2    H1      21.565809   17.181271   21.554034 H          1 MOL1         0.3684
       3    H2      21.720729   18.670205   20.860631 H          1 MOL1         0.3684
       4    H3      20.842253   17.496154   20.107924 H          1 MOL1         0.3684
       5    C1      19.829659   18.364378   21.738407 C.3        1 MOL1         0.1270
       6    H4      19.195243   17.481174   21.862236 H          1 MOL1         0.0960
       7    C2      19.069735   19.392241   20.880028 C.3        1 MOL1        -0.2382
       8    H5      18.886283   18.995242   19.874066 H          1 MOL1         0.1009
       9    H6      19.639723   20.324144   20.778795 H          1 MOL1         0.1009
      10    H7      18.093027   19.632086   21.315621 H          1 MOL1         0.1009
      11    C3      20.170422   18.915552   23.142535 C.3        1 MOL1        -0.1392
      12    H8      20.801462   18.181104   23.660258 H          1 MOL1         0.0998
      13    H9      20.772696   19.828594   23.045227 H          1 MOL1         0.0998
      14    C4      18.927775   19.201397   24.020761 C.3        1 MOL1        -0.1302
      15    H10     18.292266   18.305796   24.066560 H          1 MOL1         0.0998
      16    H11     18.320939   20.000282   23.574181 H          1 MOL1         0.0998
      17    C5      19.326099   19.619661   25.452570 C.3        1 MOL1        -0.2317
      18    H12     19.899513   18.827443   25.951393 H          1 MOL1         0.1009
      19    H13     18.434132   19.821840   26.059700 H          1 MOL1         0.1009
      20    H14     19.939251   20.530257   25.441741 H          1 MOL1         0.1009
@<TRIPOS>BOND
    1     1     2    1
    2     1     3    1
    3     1     4    1
    4     1     5    1
    5     5     6    1
    6     5     7    1
    7     7     8    1
    8     7     9    1
    9     7    10    1
   10     5    11    1
   11    11    12    1
   12    11    13    1
   13    11    14    1
   14    14    15    1
   15    14    16    1
   16    14    17    1
   17    17    18    1
   18    17    19    1
   19    17    20    1
@<TRIPOS>SUBSTRUCTURE
       1 MOL1            1 RESIDUE      1      MOL     
@<SCITEGIC>MOL_PROPERTY
VConf Rank
SciTegic.value.IntegerValue
932

@<SCITEGIC>MOL_PROPERTY
Conf_Id
SciTegic.value.IntegerValue
80

@<SCITEGIC>MOL_PROPERTY
Delta U+W
SciTegic.value.DoubleValue
0.460

@<SCITEGIC>MOL_PROPERTY
U+W
SciTegic.value.DoubleValue
-35.817

@<SCITEGIC>MOL_PROPERTY
Grad RMS
SciTegic.value.DoubleValue
0.000000

@<SCITEGIC>MOL_PROPERTY
U
SciTegic.value.DoubleValue
22.495

@<SCITEGIC>MOL_PROPERTY
W
SciTegic.value.DoubleValue
-58.311

@<SCITEGIC>MOL_PROPERTY
W(PB)
SciTegic.value.DoubleValue
-60.259

@<SCITEGIC>MOL_PROPERTY
W(SA)
SciTegic.value.DoubleValue
1.948

@<SCITEGIC>MOL_PROPERTY
Valence
SciTegic.value.DoubleValue
2.419

@<SCITEGIC>MOL_PROPERTY
Coulomb
SciTegic.value.DoubleValue
19.304

@<SCITEGIC>MOL_PROPERTY
VdW
SciTegic.value.DoubleValue
0.772

@<SCITEGIC>MOL_PROPERTY
VdW6
SciTegic.value.DoubleValue
-4.635

@<SCITEGIC>MOL_PROPERTY
VdW12
SciTegic.value.DoubleValue
5.407

@<SCITEGIC>MOL_PROPERTY
Bond
SciTegic.value.DoubleValue
0.149

@<SCITEGIC>MOL_PROPERTY
Angle
SciTegic.value.DoubleValue
1.142

@<SCITEGIC>MOL_PROPERTY
Pdih
SciTegic.value.DoubleValue
1.129

@<SCITEGIC>MOL_PROPERTY
Idih
SciTegic.value.DoubleValue
0.000

@<SCITEGIC>MOL_PROPERTY
Tether
SciTegic.value.DoubleValue
0.000

@<TRIPOS>MOLECULE
guest-s10_confgen4.mol2 : confsearch ligand conformer 933
          20          19           1
SMALL
USER_CHARGES
 
@<TRIPOS>ATOM
       1    N1      19.965882   20.560034   21.019899 N.4        1 MOL1        -0.5937
       2    H1      20.380256   21.418547   21.392808 H          1 MOL1         0.3684
       3    H2      18.959531   20.720023   20.928514 H          1 MOL1         0.3684
       4    H3      20.339925   20.429079   20.076206 H          1 MOL1         0.3684
       5    C1      20.258931   19.374291   21.897900 C.3        1 MOL1         0.1270
       6    H4      21.348759   19.279381   21.930554 H          1 MOL1         0.0960
       7    C2      19.686152   18.092272   21.269721 C.3        1 MOL1        -0.2382
       8    H5      19.995109   18.003138   20.221034 H          1 MOL1         0.1009
       9    H6      18.589666   18.087682   21.303651 H          1 MOL1         0.1009
      10    H7      20.055532   17.201287   21.790021 H          1 MOL1         0.1009
      11    C3      19.754411   19.613949   23.341977 C.3        1 MOL1        -0.1392
      12    H8      20.184953   20.562974   23.687921 H          1 MOL1         0.0998
      13    H9      18.666346   19.761731   23.344128 H          1 MOL1         0.0998
      14    C4      20.148998   18.515999   24.364938 C.3        1 MOL1        -0.1302
      15    H10     20.367792   18.997397   25.328527 H          1 MOL1         0.0998
      16    H11     21.081786   18.023471   24.056246 H          1 MOL1         0.0998
      17    C5      19.037355   17.466162   24.599729 C.3        1 MOL1        -0.2317
      18    H12     18.124016   17.941078   24.981019 H          1 MOL1         0.1009
      19    H13     19.360279   16.724349   25.341629 H          1 MOL1         0.1009
      20    H14     18.778156   16.926214   23.682224 H          1 MOL1         0.1009
@<TRIPOS>BOND
    1     1     2    1
    2     1     3    1
    3     1     4    1
    4     1     5    1
    5     5     6    1
    6     5     7    1
    7     7     8    1
    8     7     9    1
    9     7    10    1
   10     5    11    1
   11    11    12    1
   12    11    13    1
   13    11    14    1
   14    14    15    1
   15    14    16    1
   16    14    17    1
   17    17    18    1
   18    17    19    1
   19    17    20    1
@<TRIPOS>SUBSTRUCTURE
       1 MOL1            1 RESIDUE      1      MOL     
@<SCITEGIC>MOL_PROPERTY
VConf Rank
SciTegic.value.IntegerValue
933

@<SCITEGIC>MOL_PROPERTY
Conf_Id
SciTegic.value.IntegerValue
52

@<SCITEGIC>MOL_PROPERTY
Delta U+W
SciTegic.value.DoubleValue
2.995

@<SCITEGIC>MOL_PROPERTY
U+W
SciTegic.value.DoubleValue
-33.282

@<SCITEGIC>MOL_PROPERTY
Grad RMS
SciTegic.value.DoubleValue
0.000000

@<SCITEGIC>MOL_PROPERTY
U
SciTegic.value.DoubleValue
25.224

@<SCITEGIC>MOL_PROPERTY
W
SciTegic.value.DoubleValue
-58.506

@<SCITEGIC>MOL_PROPERTY
W(PB)
SciTegic.value.DoubleValue
-60.411

@<SCITEGIC>MOL_PROPERTY
W(SA)
SciTegic.value.DoubleValue
1.905

@<SCITEGIC>MOL_PROPERTY
Valence
SciTegic.value.DoubleValue
4.945

@<SCITEGIC>MOL_PROPERTY
Coulomb
SciTegic.value.DoubleValue
19.467

@<SCITEGIC>MOL_PROPERTY
VdW
SciTegic.value.DoubleValue
0.813

@<SCITEGIC>MOL_PROPERTY
VdW6
SciTegic.value.DoubleValue
-5.458

@<SCITEGIC>MOL_PROPERTY
VdW12
SciTegic.value.DoubleValue
6.270

@<SCITEGIC>MOL_PROPERTY
Bond
SciTegic.value.DoubleValue
0.200

@<SCITEGIC>MOL_PROPERTY
Angle
SciTegic.value.DoubleValue
1.675

@<SCITEGIC>MOL_PROPERTY
Pdih
SciTegic.value.DoubleValue
3.070

@<SCITEGIC>MOL_PROPERTY
Idih
SciTegic.value.DoubleValue
0.000

@<SCITEGIC>MOL_PROPERTY
Tether
SciTegic.value.DoubleValue
0.000

@<TRIPOS>MOLECULE
guest-s10_confgen4.mol2 : confsearch ligand conformer 934
          20          19           1
SMALL
USER_CHARGES
 
@<TRIPOS>ATOM
       1    N1      19.598663   17.575522   23.478942 N.4        1 MOL1        -0.5937
       2    H1      18.707816   17.632534   23.978460 H          1 MOL1         0.3684
       3    H2      20.150928   16.836078   23.921519 H          1 MOL1         0.3684
       4    H3      19.394512   17.278274   22.522411 H          1 MOL1         0.3684
       5    C1      20.323677   18.893562   23.498299 C.3        1 MOL1         0.1270
       6    H4      21.281486   18.741951   22.991000 H          1 MOL1         0.0960
       7    C2      20.609682   19.310128   24.951032 C.3        1 MOL1        -0.2382
       8    H5      19.678770   19.491038   25.502877 H          1 MOL1         0.1009
       9    H6      21.210374   20.227590   24.983867 H          1 MOL1         0.1009
      10    H7      21.172027   18.528239   25.476153 H          1 MOL1         0.1009
      11    C3      19.553348   20.012775   22.757901 C.3        1 MOL1        -0.1392
      12    H8      18.501825   20.015773   23.073915 H          1 MOL1         0.0998
      13    H9      19.962292   20.983532   23.068514 H          1 MOL1         0.0998
      14    C4      19.646044   19.951993   21.210542 C.3        1 MOL1        -0.1302
      15    H10     20.699610   19.997114   20.900708 H          1 MOL1         0.0998
      16    H11     19.172432   20.856515   20.803655 H          1 MOL1         0.0998
      17    C5      18.971698   18.718715   20.567510 C.3        1 MOL1        -0.2317
      18    H12     18.902479   18.849076   19.479621 H          1 MOL1         0.1009
      19    H13     17.952643   18.575580   20.950076 H          1 MOL1         0.1009
      20    H14     19.550085   17.804280   20.742771 H          1 MOL1         0.1009
@<TRIPOS>BOND
    1     1     2    1
    2     1     3    1
    3     1     4    1
    4     1     5    1
    5     5     6    1
    6     5     7    1
    7     7     8    1
    8     7     9    1
    9     7    10    1
   10     5    11    1
   11    11    12    1
   12    11    13    1
   13    11    14    1
   14    14    15    1
   15    14    16    1
   16    14    17    1
   17    17    18    1
   18    17    19    1
   19    17    20    1
@<TRIPOS>SUBSTRUCTURE
       1 MOL1            1 RESIDUE      1      MOL     
@<SCITEGIC>MOL_PROPERTY
VConf Rank
SciTegic.value.IntegerValue
934

@<SCITEGIC>MOL_PROPERTY
Conf_Id
SciTegic.value.IntegerValue
54

@<SCITEGIC>MOL_PROPERTY
Delta U+W
SciTegic.value.DoubleValue
2.752

@<SCITEGIC>MOL_PROPERTY
U+W
SciTegic.value.DoubleValue
-33.525

@<SCITEGIC>MOL_PROPERTY
Grad RMS
SciTegic.value.DoubleValue
0.000000

@<SCITEGIC>MOL_PROPERTY
U
SciTegic.value.DoubleValue
24.337

@<SCITEGIC>MOL_PROPERTY
W
SciTegic.value.DoubleValue
-57.862

@<SCITEGIC>MOL_PROPERTY
W(PB)
SciTegic.value.DoubleValue
-59.764

@<SCITEGIC>MOL_PROPERTY
W(SA)
SciTegic.value.DoubleValue
1.901

@<SCITEGIC>MOL_PROPERTY
Valence
SciTegic.value.DoubleValue
3.593

@<SCITEGIC>MOL_PROPERTY
Coulomb
SciTegic.value.DoubleValue
20.067

@<SCITEGIC>MOL_PROPERTY
VdW
SciTegic.value.DoubleValue
0.677

@<SCITEGIC>MOL_PROPERTY
VdW6
SciTegic.value.DoubleValue
-5.466

@<SCITEGIC>MOL_PROPERTY
VdW12
SciTegic.value.DoubleValue
6.144

@<SCITEGIC>MOL_PROPERTY
Bond
SciTegic.value.DoubleValue
0.191

@<SCITEGIC>MOL_PROPERTY
Angle
SciTegic.value.DoubleValue
1.557

@<SCITEGIC>MOL_PROPERTY
Pdih
SciTegic.value.DoubleValue
1.845

@<SCITEGIC>MOL_PROPERTY
Idih
SciTegic.value.DoubleValue
0.000

@<SCITEGIC>MOL_PROPERTY
Tether
SciTegic.value.DoubleValue
0.000

@<TRIPOS>MOLECULE
guest-s10_confgen4.mol2 : confsearch ligand conformer 935
          20          19           1
SMALL
USER_CHARGES
 
@<TRIPOS>ATOM
       1    N1      21.174311   17.780549   21.759484 N.4        1 MOL1        -0.5937
       2    H1      21.523742   16.824067   21.656066 H          1 MOL1         0.3684
       3    H2      21.969798   18.410604   21.625535 H          1 MOL1         0.3684
       4    H3      20.516334   17.949483   20.995300 H          1 MOL1         0.3684
       5    C1      20.524496   17.987408   23.100691 C.3        1 MOL1         0.1270
       6    H4      21.294622   17.768645   23.847063 H          1 MOL1         0.0960
       7    C2      19.372716   16.989661   23.316900 C.3        1 MOL1        -0.2382
       8    H5      18.900528   17.144863   24.294869 H          1 MOL1         0.1009
       9    H6      19.747726   15.959277   23.289276 H          1 MOL1         0.1009
      10    H7      18.601556   17.085635   22.543503 H          1 MOL1         0.1009
      11    C3      20.075158   19.451668   23.322248 C.3        1 MOL1        -0.1392
      12    H8      19.694663   19.552760   24.347305 H          1 MOL1         0.0998
      13    H9      20.960265   20.098719   23.264656 H          1 MOL1         0.0998
      14    C4      19.003952   19.965553   22.325862 C.3        1 MOL1        -0.1302
      15    H10     18.090058   19.361837   22.405466 H          1 MOL1         0.0998
      16    H11     19.365374   19.862613   21.293903 H          1 MOL1         0.0998
      17    C5      18.649021   21.444775   22.589028 C.3        1 MOL1        -0.2317
      18    H12     17.888750   21.793524   21.878094 H          1 MOL1         0.1009
      19    H13     19.531530   22.088630   22.480172 H          1 MOL1         0.1009
      20    H14     18.249477   21.581031   23.602449 H          1 MOL1         0.1009
@<TRIPOS>BOND
    1     1     2    1
    2     1     3    1
    3     1     4    1
    4     1     5    1
    5     5     6    1
    6     5     7    1
    7     7     8    1
    8     7     9    1
    9     7    10    1
   10     5    11    1
   11    11    12    1
   12    11    13    1
   13    11    14    1
   14    14    15    1
   15    14    16    1
   16    14    17    1
   17    17    18    1
   18    17    19    1
   19    17    20    1
@<TRIPOS>SUBSTRUCTURE
       1 MOL1            1 RESIDUE      1      MOL     
@<SCITEGIC>MOL_PROPERTY
VConf Rank
SciTegic.value.IntegerValue
935

@<SCITEGIC>MOL_PROPERTY
Conf_Id
SciTegic.value.IntegerValue
63

@<SCITEGIC>MOL_PROPERTY
Delta U+W
SciTegic.value.DoubleValue
0.420

@<SCITEGIC>MOL_PROPERTY
U+W
SciTegic.value.DoubleValue
-35.856

@<SCITEGIC>MOL_PROPERTY
Grad RMS
SciTegic.value.DoubleValue
0.000000

@<SCITEGIC>MOL_PROPERTY
U
SciTegic.value.DoubleValue
22.625

@<SCITEGIC>MOL_PROPERTY
W
SciTegic.value.DoubleValue
-58.481

@<SCITEGIC>MOL_PROPERTY
W(PB)
SciTegic.value.DoubleValue
-60.400

@<SCITEGIC>MOL_PROPERTY
W(SA)
SciTegic.value.DoubleValue
1.919

@<SCITEGIC>MOL_PROPERTY
Valence
SciTegic.value.DoubleValue
2.404

@<SCITEGIC>MOL_PROPERTY
Coulomb
SciTegic.value.DoubleValue
19.464

@<SCITEGIC>MOL_PROPERTY
VdW
SciTegic.value.DoubleValue
0.757

@<SCITEGIC>MOL_PROPERTY
VdW6
SciTegic.value.DoubleValue
-5.074

@<SCITEGIC>MOL_PROPERTY
VdW12
SciTegic.value.DoubleValue
5.830

@<SCITEGIC>MOL_PROPERTY
Bond
SciTegic.value.DoubleValue
0.172

@<SCITEGIC>MOL_PROPERTY
Angle
SciTegic.value.DoubleValue
1.207

@<SCITEGIC>MOL_PROPERTY
Pdih
SciTegic.value.DoubleValue
1.025

@<SCITEGIC>MOL_PROPERTY
Idih
SciTegic.value.DoubleValue
0.000

@<SCITEGIC>MOL_PROPERTY
Tether
SciTegic.value.DoubleValue
0.000

@<TRIPOS>MOLECULE
guest-s10_confgen4.mol2 : confsearch ligand conformer 936
          20          19           1
SMALL
USER_CHARGES
 
@<TRIPOS>ATOM
       1    N1      20.949789   19.838544   21.866005 N.4        1 MOL1        -0.5937
       2    H1      20.956224   20.474324   22.667639 H          1 MOL1         0.3684
       3    H2      20.545254   20.344843   21.074529 H          1 MOL1         0.3684
       4    H3      21.924485   19.632449   21.631411 H          1 MOL1         0.3684
       5    C1      20.177827   18.583203   22.169934 C.3        1 MOL1         0.1270
       6    H4      20.675134   18.105888   23.019630 H          1 MOL1         0.0960
       7    C2      20.229027   17.612406   20.978949 C.3        1 MOL1        -0.2382
       8    H5      21.267014   17.371501   20.718593 H          1 MOL1         0.1009
       9    H6      19.745906   18.043698   20.093322 H          1 MOL1         0.1009
      10    H7      19.720182   16.671138   21.221259 H          1 MOL1         0.1009
      11    C3      18.712007   18.872017   22.566090 C.3        1 MOL1        -0.1392
      12    H8      18.190592   19.337157   21.718975 H          1 MOL1         0.0998
      13    H9      18.199105   17.919789   22.756144 H          1 MOL1         0.0998
      14    C4      18.558074   19.777034   23.814748 C.3        1 MOL1        -0.1302
      15    H10     17.487242   19.926613   24.011848 H          1 MOL1         0.0998
      16    H11     18.969891   20.775312   23.613713 H          1 MOL1         0.0998
      17    C5      19.221654   19.183844   25.078534 C.3        1 MOL1        -0.2317
      18    H12     18.825249   18.184350   25.300015 H          1 MOL1         0.1009
      19    H13     19.026710   19.821595   25.950508 H          1 MOL1         0.1009
      20    H14     20.309994   19.103429   24.964755 H          1 MOL1         0.1009
@<TRIPOS>BOND
    1     1     2    1
    2     1     3    1
    3     1     4    1
    4     1     5    1
    5     5     6    1
    6     5     7    1
    7     7     8    1
    8     7     9    1
    9     7    10    1
   10     5    11    1
   11    11    12    1
   12    11    13    1
   13    11    14    1
   14    14    15    1
   15    14    16    1
   16    14    17    1
   17    17    18    1
   18    17    19    1
   19    17    20    1
@<TRIPOS>SUBSTRUCTURE
       1 MOL1            1 RESIDUE      1      MOL     
@<SCITEGIC>MOL_PROPERTY
VConf Rank
SciTegic.value.IntegerValue
936

@<SCITEGIC>MOL_PROPERTY
Conf_Id
SciTegic.value.IntegerValue
50

@<SCITEGIC>MOL_PROPERTY
Delta U+W
SciTegic.value.DoubleValue
0.466

@<SCITEGIC>MOL_PROPERTY
U+W
SciTegic.value.DoubleValue
-35.811

@<SCITEGIC>MOL_PROPERTY
Grad RMS
SciTegic.value.DoubleValue
0.000000

@<SCITEGIC>MOL_PROPERTY
U
SciTegic.value.DoubleValue
22.369

@<SCITEGIC>MOL_PROPERTY
W
SciTegic.value.DoubleValue
-58.180

@<SCITEGIC>MOL_PROPERTY
W(PB)
SciTegic.value.DoubleValue
-60.103

@<SCITEGIC>MOL_PROPERTY
W(SA)
SciTegic.value.DoubleValue
1.923

@<SCITEGIC>MOL_PROPERTY
Valence
SciTegic.value.DoubleValue
2.168

@<SCITEGIC>MOL_PROPERTY
Coulomb
SciTegic.value.DoubleValue
19.636

@<SCITEGIC>MOL_PROPERTY
VdW
SciTegic.value.DoubleValue
0.566

@<SCITEGIC>MOL_PROPERTY
VdW6
SciTegic.value.DoubleValue
-5.263

@<SCITEGIC>MOL_PROPERTY
VdW12
SciTegic.value.DoubleValue
5.829

@<SCITEGIC>MOL_PROPERTY
Bond
SciTegic.value.DoubleValue
0.162

@<SCITEGIC>MOL_PROPERTY
Angle
SciTegic.value.DoubleValue
1.066

@<SCITEGIC>MOL_PROPERTY
Pdih
SciTegic.value.DoubleValue
0.939

@<SCITEGIC>MOL_PROPERTY
Idih
SciTegic.value.DoubleValue
0.000

@<SCITEGIC>MOL_PROPERTY
Tether
SciTegic.value.DoubleValue
0.000

@<TRIPOS>MOLECULE
guest-s10_confgen4.mol2 : confsearch ligand conformer 937
          20          19           1
SMALL
USER_CHARGES
 
@<TRIPOS>ATOM
       1    N1      20.929929   18.352182   24.635912 N.4        1 MOL1        -0.5937
       2    H1      21.748808   18.965007   24.592555 H          1 MOL1         0.3684
       3    H2      21.257673   17.391803   24.505039 H          1 MOL1         0.3684
       4    H3      20.552996   18.418263   25.585275 H          1 MOL1         0.3684
       5    C1      19.899087   18.729652   23.606610 C.3        1 MOL1         0.1270
       6    H4      19.615246   19.763877   23.824728 H          1 MOL1         0.0960
       7    C2      18.654619   17.834437   23.754434 C.3        1 MOL1        -0.2382
       8    H5      18.905177   16.779053   23.589960 H          1 MOL1         0.1009
       9    H6      17.872810   18.109817   23.038383 H          1 MOL1         0.1009
      10    H7      18.228583   17.928412   24.760809 H          1 MOL1         0.1009
      11    C3      20.472573   18.680427   22.168930 C.3        1 MOL1        -0.1392
      12    H8      21.569446   18.680300   22.219341 H          1 MOL1         0.0998
      13    H9      20.199333   17.736317   21.679022 H          1 MOL1         0.0998
      14    C4      20.051886   19.881202   21.284089 C.3        1 MOL1        -0.1302
      15    H10     20.565997   19.800692   20.316029 H          1 MOL1         0.0998
      16    H11     20.406367   20.816007   21.740775 H          1 MOL1         0.0998
      17    C5      18.530940   19.978653   21.032171 C.3        1 MOL1        -0.2317
      18    H12     18.137515   19.042696   20.614765 H          1 MOL1         0.1009
      19    H13     18.311575   20.782053   20.317000 H          1 MOL1         0.1009
      20    H14     17.985120   20.205198   21.956502 H          1 MOL1         0.1009
@<TRIPOS>BOND
    1     1     2    1
    2     1     3    1
    3     1     4    1
    4     1     5    1
    5     5     6    1
    6     5     7    1
    7     7     8    1
    8     7     9    1
    9     7    10    1
   10     5    11    1
   11    11    12    1
   12    11    13    1
   13    11    14    1
   14    14    15    1
   15    14    16    1
   16    14    17    1
   17    17    18    1
   18    17    19    1
   19    17    20    1
@<TRIPOS>SUBSTRUCTURE
       1 MOL1            1 RESIDUE      1      MOL     
@<SCITEGIC>MOL_PROPERTY
VConf Rank
SciTegic.value.IntegerValue
937

@<SCITEGIC>MOL_PROPERTY
Conf_Id
SciTegic.value.IntegerValue
3

@<SCITEGIC>MOL_PROPERTY
Delta U+W
SciTegic.value.DoubleValue
3.093

@<SCITEGIC>MOL_PROPERTY
U+W
SciTegic.value.DoubleValue
-33.184

@<SCITEGIC>MOL_PROPERTY
Grad RMS
SciTegic.value.DoubleValue
0.000000

@<SCITEGIC>MOL_PROPERTY
U
SciTegic.value.DoubleValue
25.256

@<SCITEGIC>MOL_PROPERTY
W
SciTegic.value.DoubleValue
-58.439

@<SCITEGIC>MOL_PROPERTY
W(PB)
SciTegic.value.DoubleValue
-60.337

@<SCITEGIC>MOL_PROPERTY
W(SA)
SciTegic.value.DoubleValue
1.898

@<SCITEGIC>MOL_PROPERTY
Valence
SciTegic.value.DoubleValue
4.963

@<SCITEGIC>MOL_PROPERTY
Coulomb
SciTegic.value.DoubleValue
19.511

@<SCITEGIC>MOL_PROPERTY
VdW
SciTegic.value.DoubleValue
0.782

@<SCITEGIC>MOL_PROPERTY
VdW6
SciTegic.value.DoubleValue
-5.429

@<SCITEGIC>MOL_PROPERTY
VdW12
SciTegic.value.DoubleValue
6.211

@<SCITEGIC>MOL_PROPERTY
Bond
SciTegic.value.DoubleValue
0.174

@<SCITEGIC>MOL_PROPERTY
Angle
SciTegic.value.DoubleValue
1.377

@<SCITEGIC>MOL_PROPERTY
Pdih
SciTegic.value.DoubleValue
3.412

@<SCITEGIC>MOL_PROPERTY
Idih
SciTegic.value.DoubleValue
0.000

@<SCITEGIC>MOL_PROPERTY
Tether
SciTegic.value.DoubleValue
0.000

@<TRIPOS>MOLECULE
guest-s10_confgen4.mol2 : confsearch ligand conformer 938
          20          19           1
SMALL
USER_CHARGES
 
@<TRIPOS>ATOM
       1    N1      19.888195   21.209371   22.756532 N.4        1 MOL1        -0.5937
       2    H1      20.365139   21.723221   22.010799 H          1 MOL1         0.3684
       3    H2      20.391443   21.402850   23.626668 H          1 MOL1         0.3684
       4    H3      18.950926   21.608846   22.849432 H          1 MOL1         0.3684
       5    C1      19.833959   19.735308   22.462289 C.3        1 MOL1         0.1270
       6    H4      20.872365   19.401347   22.376973 H          1 MOL1         0.0960
       7    C2      19.130151   19.483452   21.116435 C.3        1 MOL1        -0.2382
       8    H5      19.204602   18.430904   20.819561 H          1 MOL1         0.1009
       9    H6      19.593807   20.078593   20.320217 H          1 MOL1         0.1009
      10    H7      18.067749   19.752130   21.167454 H          1 MOL1         0.1009
      11    C3      19.166831   18.957055   23.621466 C.3        1 MOL1        -0.1392
      12    H8      19.658508   19.238112   24.562097 H          1 MOL1         0.0998
      13    H9      18.120413   19.275499   23.718097 H          1 MOL1         0.0998
      14    C4      19.215966   17.413394   23.488054 C.3        1 MOL1        -0.1302
      15    H10     18.618394   17.085537   22.626840 H          1 MOL1         0.0998
      16    H11     18.737472   16.968506   24.371772 H          1 MOL1         0.0998
      17    C5      20.654544   16.861249   23.366480 C.3        1 MOL1        -0.2317
      18    H12     21.272632   17.178802   24.216353 H          1 MOL1         0.1009
      19    H13     21.140049   17.200623   22.442806 H          1 MOL1         0.1009
      20    H14     20.645162   15.763667   23.350879 H          1 MOL1         0.1009
@<TRIPOS>BOND
    1     1     2    1
    2     1     3    1
    3     1     4    1
    4     1     5    1
    5     5     6    1
    6     5     7    1
    7     7     8    1
    8     7     9    1
    9     7    10    1
   10     5    11    1
   11    11    12    1
   12    11    13    1
   13    11    14    1
   14    14    15    1
   15    14    16    1
   16    14    17    1
   17    17    18    1
   18    17    19    1
   19    17    20    1
@<TRIPOS>SUBSTRUCTURE
       1 MOL1            1 RESIDUE      1      MOL     
@<SCITEGIC>MOL_PROPERTY
VConf Rank
SciTegic.value.IntegerValue
938

@<SCITEGIC>MOL_PROPERTY
Conf_Id
SciTegic.value.IntegerValue
64

@<SCITEGIC>MOL_PROPERTY
Delta U+W
SciTegic.value.DoubleValue
0.544

@<SCITEGIC>MOL_PROPERTY
U+W
SciTegic.value.DoubleValue
-35.732

@<SCITEGIC>MOL_PROPERTY
Grad RMS
SciTegic.value.DoubleValue
0.000000

@<SCITEGIC>MOL_PROPERTY
U
SciTegic.value.DoubleValue
22.800

@<SCITEGIC>MOL_PROPERTY
W
SciTegic.value.DoubleValue
-58.532

@<SCITEGIC>MOL_PROPERTY
W(PB)
SciTegic.value.DoubleValue
-60.437

@<SCITEGIC>MOL_PROPERTY
W(SA)
SciTegic.value.DoubleValue
1.905

@<SCITEGIC>MOL_PROPERTY
Valence
SciTegic.value.DoubleValue
2.662

@<SCITEGIC>MOL_PROPERTY
Coulomb
SciTegic.value.DoubleValue
19.485

@<SCITEGIC>MOL_PROPERTY
VdW
SciTegic.value.DoubleValue
0.653

@<SCITEGIC>MOL_PROPERTY
VdW6
SciTegic.value.DoubleValue
-5.460

@<SCITEGIC>MOL_PROPERTY
VdW12
SciTegic.value.DoubleValue
6.113

@<SCITEGIC>MOL_PROPERTY
Bond
SciTegic.value.DoubleValue
0.174

@<SCITEGIC>MOL_PROPERTY
Angle
SciTegic.value.DoubleValue
1.378

@<SCITEGIC>MOL_PROPERTY
Pdih
SciTegic.value.DoubleValue
1.109

@<SCITEGIC>MOL_PROPERTY
Idih
SciTegic.value.DoubleValue
0.000

@<SCITEGIC>MOL_PROPERTY
Tether
SciTegic.value.DoubleValue
0.000

@<TRIPOS>MOLECULE
guest-s10_confgen4.mol2 : confsearch ligand conformer 939
          20          19           1
SMALL
USER_CHARGES
 
@<TRIPOS>ATOM
       1    N1      17.950035   19.656083   23.443034 N.4        1 MOL1        -0.5937
       2    H1      17.664593   19.241633   22.553075 H          1 MOL1         0.3684
       3    H2      17.527266   20.586694   23.496351 H          1 MOL1         0.3684
       4    H3      17.537520   19.092084   24.190962 H          1 MOL1         0.3684
       5    C1      19.448574   19.724681   23.563477 C.3        1 MOL1         0.1270
       6    H4      19.649765   20.188466   24.534245 H          1 MOL1         0.0960
       7    C2      20.043779   20.643117   22.483694 C.3        1 MOL1        -0.2382
       8    H5      19.765037   20.311857   21.476580 H          1 MOL1         0.1009
       9    H6      21.138248   20.669600   22.552793 H          1 MOL1         0.1009
      10    H7      19.677770   21.669321   22.609844 H          1 MOL1         0.1009
      11    C3      20.102699   18.320273   23.589892 C.3        1 MOL1        -0.1392
      12    H8      21.164223   18.417815   23.852856 H          1 MOL1         0.0998
      13    H9      19.650264   17.763460   24.421001 H          1 MOL1         0.0998
      14    C4      19.956125   17.469800   22.297437 C.3        1 MOL1        -0.1302
      15    H10     19.016824   17.703214   21.779161 H          1 MOL1         0.0998
      16    H11     19.883406   16.411754   22.585939 H          1 MOL1         0.0998
      17    C5      21.150483   17.612470   21.324863 C.3        1 MOL1        -0.2317
      18    H12     21.262558   18.637418   20.954868 H          1 MOL1         0.1009
      19    H13     21.014687   16.959599   20.452919 H          1 MOL1         0.1009
      20    H14     22.090757   17.323606   21.812187 H          1 MOL1         0.1009
@<TRIPOS>BOND
    1     1     2    1
    2     1     3    1
    3     1     4    1
    4     1     5    1
    5     5     6    1
    6     5     7    1
    7     7     8    1
    8     7     9    1
    9     7    10    1
   10     5    11    1
   11    11    12    1
   12    11    13    1
   13    11    14    1
   14    14    15    1
   15    14    16    1
   16    14    17    1
   17    17    18    1
   18    17    19    1
   19    17    20    1
@<TRIPOS>SUBSTRUCTURE
       1 MOL1            1 RESIDUE      1      MOL     
@<SCITEGIC>MOL_PROPERTY
VConf Rank
SciTegic.value.IntegerValue
939

@<SCITEGIC>MOL_PROPERTY
Conf_Id
SciTegic.value.IntegerValue
35

@<SCITEGIC>MOL_PROPERTY
Delta U+W
SciTegic.value.DoubleValue
3.004

@<SCITEGIC>MOL_PROPERTY
U+W
SciTegic.value.DoubleValue
-33.272

@<SCITEGIC>MOL_PROPERTY
Grad RMS
SciTegic.value.DoubleValue
0.000000

@<SCITEGIC>MOL_PROPERTY
U
SciTegic.value.DoubleValue
25.367

@<SCITEGIC>MOL_PROPERTY
W
SciTegic.value.DoubleValue
-58.639

@<SCITEGIC>MOL_PROPERTY
W(PB)
SciTegic.value.DoubleValue
-60.512

@<SCITEGIC>MOL_PROPERTY
W(SA)
SciTegic.value.DoubleValue
1.873

@<SCITEGIC>MOL_PROPERTY
Valence
SciTegic.value.DoubleValue
4.943

@<SCITEGIC>MOL_PROPERTY
Coulomb
SciTegic.value.DoubleValue
19.661

@<SCITEGIC>MOL_PROPERTY
VdW
SciTegic.value.DoubleValue
0.764

@<SCITEGIC>MOL_PROPERTY
VdW6
SciTegic.value.DoubleValue
-5.871

@<SCITEGIC>MOL_PROPERTY
VdW12
SciTegic.value.DoubleValue
6.636

@<SCITEGIC>MOL_PROPERTY
Bond
SciTegic.value.DoubleValue
0.230

@<SCITEGIC>MOL_PROPERTY
Angle
SciTegic.value.DoubleValue
1.857

@<SCITEGIC>MOL_PROPERTY
Pdih
SciTegic.value.DoubleValue
2.855

@<SCITEGIC>MOL_PROPERTY
Idih
SciTegic.value.DoubleValue
0.000

@<SCITEGIC>MOL_PROPERTY
Tether
SciTegic.value.DoubleValue
0.000

@<TRIPOS>MOLECULE
guest-s10_confgen4.mol2 : confsearch ligand conformer 940
          20          19           1
SMALL
USER_CHARGES
 
@<TRIPOS>ATOM
       1    N1      20.331910   20.607196   22.231680 N.4        1 MOL1        -0.5937
       2    H1      19.913507   21.481086   21.901744 H          1 MOL1         0.3684
       3    H2      21.332229   20.649120   22.019106 H          1 MOL1         0.3684
       4    H3      20.236063   20.582166   23.248628 H          1 MOL1         0.3684
       5    C1      19.683100   19.409316   21.594035 C.3        1 MOL1         0.1270
       6    H4      19.863994   19.519787   20.520257 H          1 MOL1         0.0960
       7    C2      18.158645   19.417692   21.804933 C.3        1 MOL1        -0.2382
       8    H5      17.897075   19.403967   22.869680 H          1 MOL1         0.1009
       9    H6      17.694899   18.547011   21.325063 H          1 MOL1         0.1009
      10    H7      17.714397   20.317380   21.362018 H          1 MOL1         0.1009
      11    C3      20.331503   18.067786   22.022033 C.3        1 MOL1        -0.1392
      12    H8      20.024429   17.303707   21.295789 H          1 MOL1         0.0998
      13    H9      21.421021   18.149430   21.914780 H          1 MOL1         0.0998
      14    C4      19.995019   17.534505   23.442944 C.3        1 MOL1        -0.1302
      15    H10     20.493650   16.563068   23.567453 H          1 MOL1         0.0998
      16    H11     18.919757   17.326206   23.526933 H          1 MOL1         0.0998
      17    C5      20.437485   18.458254   24.600456 C.3        1 MOL1        -0.2317
      18    H12     21.489632   18.753162   24.494831 H          1 MOL1         0.1009
      19    H13     20.332825   17.938914   25.561967 H          1 MOL1         0.1009
      20    H14     19.819471   19.361791   24.654741 H          1 MOL1         0.1009
@<TRIPOS>BOND
    1     1     2    1
    2     1     3    1
    3     1     4    1
    4     1     5    1
    5     5     6    1
    6     5     7    1
    7     7     8    1
    8     7     9    1
    9     7    10    1
   10     5    11    1
   11    11    12    1
   12    11    13    1
   13    11    14    1
   14    14    15    1
   15    14    16    1
   16    14    17    1
   17    17    18    1
   18    17    19    1
   19    17    20    1
@<TRIPOS>SUBSTRUCTURE
       1 MOL1            1 RESIDUE      1      MOL     
@<SCITEGIC>MOL_PROPERTY
VConf Rank
SciTegic.value.IntegerValue
940

@<SCITEGIC>MOL_PROPERTY
Conf_Id
SciTegic.value.IntegerValue
55

@<SCITEGIC>MOL_PROPERTY
Delta U+W
SciTegic.value.DoubleValue
2.767

@<SCITEGIC>MOL_PROPERTY
U+W
SciTegic.value.DoubleValue
-33.509

@<SCITEGIC>MOL_PROPERTY
Grad RMS
SciTegic.value.DoubleValue
0.000000

@<SCITEGIC>MOL_PROPERTY
U
SciTegic.value.DoubleValue
24.552

@<SCITEGIC>MOL_PROPERTY
W
SciTegic.value.DoubleValue
-58.061

@<SCITEGIC>MOL_PROPERTY
W(PB)
SciTegic.value.DoubleValue
-59.930

@<SCITEGIC>MOL_PROPERTY
W(SA)
SciTegic.value.DoubleValue
1.869

@<SCITEGIC>MOL_PROPERTY
Valence
SciTegic.value.DoubleValue
3.726

@<SCITEGIC>MOL_PROPERTY
Coulomb
SciTegic.value.DoubleValue
20.219

@<SCITEGIC>MOL_PROPERTY
VdW
SciTegic.value.DoubleValue
0.606

@<SCITEGIC>MOL_PROPERTY
VdW6
SciTegic.value.DoubleValue
-6.395

@<SCITEGIC>MOL_PROPERTY
VdW12
SciTegic.value.DoubleValue
7.001

@<SCITEGIC>MOL_PROPERTY
Bond
SciTegic.value.DoubleValue
0.241

@<SCITEGIC>MOL_PROPERTY
Angle
SciTegic.value.DoubleValue
2.098

@<SCITEGIC>MOL_PROPERTY
Pdih
SciTegic.value.DoubleValue
1.387

@<SCITEGIC>MOL_PROPERTY
Idih
SciTegic.value.DoubleValue
0.000

@<SCITEGIC>MOL_PROPERTY
Tether
SciTegic.value.DoubleValue
0.000

@<TRIPOS>MOLECULE
guest-s10_confgen4.mol2 : confsearch ligand conformer 941
          20          19           1
SMALL
USER_CHARGES
 
@<TRIPOS>ATOM
       1    N1      19.677586   20.539279   23.890267 N.4        1 MOL1        -0.5937
       2    H1      19.832878   20.055249   24.778042 H          1 MOL1         0.3684
       3    H2      19.185756   21.411963   24.100462 H          1 MOL1         0.3684
       4    H3      20.594448   20.790857   23.512571 H          1 MOL1         0.3684
       5    C1      18.898089   19.686200   22.926056 C.3        1 MOL1         0.1270
       6    H4      18.781398   20.273148   22.009670 H          1 MOL1         0.0960
       7    C2      17.498056   19.382039   23.484055 C.3        1 MOL1        -0.2382
       8    H5      16.957480   20.310724   23.704476 H          1 MOL1         0.1009
       9    H6      17.557737   18.793760   24.408262 H          1 MOL1         0.1009
      10    H7      16.902740   18.815990   22.756850 H          1 MOL1         0.1009
      11    C3      19.630371   18.373867   22.568716 C.3        1 MOL1        -0.1392
      12    H8      19.781479   17.775548   23.477065 H          1 MOL1         0.0998
      13    H9      18.987937   17.779067   21.905723 H          1 MOL1         0.0998
      14    C4      20.989000   18.610358   21.866065 C.3        1 MOL1        -0.1302
      15    H10     21.671151   19.155924   22.531988 H          1 MOL1         0.0998
      16    H11     20.841447   19.239353   20.976776 H          1 MOL1         0.0998
      17    C5      21.653005   17.281089   21.447202 C.3        1 MOL1        -0.2317
      18    H12     21.841630   16.641748   22.319509 H          1 MOL1         0.1009
      19    H13     22.614999   17.467295   20.952247 H          1 MOL1         0.1009
      20    H14     21.016821   16.724468   20.746720 H          1 MOL1         0.1009
@<TRIPOS>BOND
    1     1     2    1
    2     1     3    1
    3     1     4    1
    4     1     5    1
    5     5     6    1
    6     5     7    1
    7     7     8    1
    8     7     9    1
    9     7    10    1
   10     5    11    1
   11    11    12    1
   12    11    13    1
   13    11    14    1
   14    14    15    1
   15    14    16    1
   16    14    17    1
   17    17    18    1
   18    17    19    1
   19    17    20    1
@<TRIPOS>SUBSTRUCTURE
       1 MOL1            1 RESIDUE      1      MOL     
@<SCITEGIC>MOL_PROPERTY
VConf Rank
SciTegic.value.IntegerValue
941

@<SCITEGIC>MOL_PROPERTY
Conf_Id
SciTegic.value.IntegerValue
74

@<SCITEGIC>MOL_PROPERTY
Delta U+W
SciTegic.value.DoubleValue
0.000

@<SCITEGIC>MOL_PROPERTY
U+W
SciTegic.value.DoubleValue
-36.276

@<SCITEGIC>MOL_PROPERTY
Grad RMS
SciTegic.value.DoubleValue
0.000000

@<SCITEGIC>MOL_PROPERTY
U
SciTegic.value.DoubleValue
22.080

@<SCITEGIC>MOL_PROPERTY
W
SciTegic.value.DoubleValue
-58.356

@<SCITEGIC>MOL_PROPERTY
W(PB)
SciTegic.value.DoubleValue
-60.289

@<SCITEGIC>MOL_PROPERTY
W(SA)
SciTegic.value.DoubleValue
1.932

@<SCITEGIC>MOL_PROPERTY
Valence
SciTegic.value.DoubleValue
1.885

@<SCITEGIC>MOL_PROPERTY
Coulomb
SciTegic.value.DoubleValue
19.559

@<SCITEGIC>MOL_PROPERTY
VdW
SciTegic.value.DoubleValue
0.637

@<SCITEGIC>MOL_PROPERTY
VdW6
SciTegic.value.DoubleValue
-4.482

@<SCITEGIC>MOL_PROPERTY
VdW12
SciTegic.value.DoubleValue
5.119

@<SCITEGIC>MOL_PROPERTY
Bond
SciTegic.value.DoubleValue
0.136

@<SCITEGIC>MOL_PROPERTY
Angle
SciTegic.value.DoubleValue
0.867

@<SCITEGIC>MOL_PROPERTY
Pdih
SciTegic.value.DoubleValue
0.882

@<SCITEGIC>MOL_PROPERTY
Idih
SciTegic.value.DoubleValue
0.000

@<SCITEGIC>MOL_PROPERTY
Tether
SciTegic.value.DoubleValue
0.000

@<TRIPOS>MOLECULE
guest-s10_confgen4.mol2 : confsearch ligand conformer 942
          20          19           1
SMALL
USER_CHARGES
 
@<TRIPOS>ATOM
       1    N1      19.704389   17.871415   24.862753 N.4        1 MOL1        -0.5937
       2    H1      20.702737   17.803114   25.078372 H          1 MOL1         0.3684
       3    H2      19.392563   16.945561   24.558970 H          1 MOL1         0.3684
       4    H3      19.219880   18.083087   25.739180 H          1 MOL1         0.3684
       5    C1      19.432154   18.917178   23.816457 C.3        1 MOL1         0.1270
       6    H4      19.792985   19.865276   24.227283 H          1 MOL1         0.0960
       7    C2      17.917880   19.040710   23.566425 C.3        1 MOL1        -0.2382
       8    H5      17.381876   19.196749   24.510656 H          1 MOL1         0.1009
       9    H6      17.517997   18.134669   23.094448 H          1 MOL1         0.1009
      10    H7      17.688340   19.895310   22.919746 H          1 MOL1         0.1009
      11    C3      20.215847   18.624416   22.515840 C.3        1 MOL1        -0.1392
      12    H8      21.266416   18.440892   22.777160 H          1 MOL1         0.0998
      13    H9      19.842833   17.697627   22.060021 H          1 MOL1         0.0998
      14    C4      20.160821   19.774043   21.480228 C.3        1 MOL1        -0.1302
      15    H10     20.474323   20.714999   21.953924 H          1 MOL1         0.0998
      16    H11     19.130917   19.921745   21.128970 H          1 MOL1         0.0998
      17    C5      21.066119   19.487884   20.262759 C.3        1 MOL1        -0.2317
      18    H12     22.115071   19.376330   20.566888 H          1 MOL1         0.1009
      19    H13     21.012229   20.310378   19.537716 H          1 MOL1         0.1009
      20    H14     20.759081   18.566856   19.750222 H          1 MOL1         0.1009
@<TRIPOS>BOND
    1     1     2    1
    2     1     3    1
    3     1     4    1
    4     1     5    1
    5     5     6    1
    6     5     7    1
    7     7     8    1
    8     7     9    1
    9     7    10    1
   10     5    11    1
   11    11    12    1
   12    11    13    1
   13    11    14    1
   14    14    15    1
   15    14    16    1
   16    14    17    1
   17    17    18    1
   18    17    19    1
   19    17    20    1
@<TRIPOS>SUBSTRUCTURE
       1 MOL1            1 RESIDUE      1      MOL     
@<SCITEGIC>MOL_PROPERTY
VConf Rank
SciTegic.value.IntegerValue
942

@<SCITEGIC>MOL_PROPERTY
Conf_Id
SciTegic.value.IntegerValue
80

@<SCITEGIC>MOL_PROPERTY
Delta U+W
SciTegic.value.DoubleValue
0.460

@<SCITEGIC>MOL_PROPERTY
U+W
SciTegic.value.DoubleValue
-35.817

@<SCITEGIC>MOL_PROPERTY
Grad RMS
SciTegic.value.DoubleValue
0.000000

@<SCITEGIC>MOL_PROPERTY
U
SciTegic.value.DoubleValue
22.495

@<SCITEGIC>MOL_PROPERTY
W
SciTegic.value.DoubleValue
-58.311

@<SCITEGIC>MOL_PROPERTY
W(PB)
SciTegic.value.DoubleValue
-60.259

@<SCITEGIC>MOL_PROPERTY
W(SA)
SciTegic.value.DoubleValue
1.948

@<SCITEGIC>MOL_PROPERTY
Valence
SciTegic.value.DoubleValue
2.419

@<SCITEGIC>MOL_PROPERTY
Coulomb
SciTegic.value.DoubleValue
19.304

@<SCITEGIC>MOL_PROPERTY
VdW
SciTegic.value.DoubleValue
0.772

@<SCITEGIC>MOL_PROPERTY
VdW6
SciTegic.value.DoubleValue
-4.635

@<SCITEGIC>MOL_PROPERTY
VdW12
SciTegic.value.DoubleValue
5.407

@<SCITEGIC>MOL_PROPERTY
Bond
SciTegic.value.DoubleValue
0.149

@<SCITEGIC>MOL_PROPERTY
Angle
SciTegic.value.DoubleValue
1.142

@<SCITEGIC>MOL_PROPERTY
Pdih
SciTegic.value.DoubleValue
1.129

@<SCITEGIC>MOL_PROPERTY
Idih
SciTegic.value.DoubleValue
0.000

@<SCITEGIC>MOL_PROPERTY
Tether
SciTegic.value.DoubleValue
0.000

@<TRIPOS>MOLECULE
guest-s10_confgen4.mol2 : confsearch ligand conformer 943
          20          19           1
SMALL
USER_CHARGES
 
@<TRIPOS>ATOM
       1    N1      21.088958   16.903242   22.971460 N.4        1 MOL1        -0.5937
       2    H1      21.146413   16.613864   23.951649 H          1 MOL1         0.3684
       3    H2      21.972091   17.362540   22.735220 H          1 MOL1         0.3684
       4    H3      21.029090   16.051016   22.407773 H          1 MOL1         0.3684
       5    C1      19.912998   17.808874   22.727125 C.3        1 MOL1         0.1270
       6    H4      19.022254   17.234373   22.999749 H          1 MOL1         0.0960
       7    C2      19.814868   18.162618   21.233307 C.3        1 MOL1        -0.2382
       8    H5      19.861396   17.256659   20.616690 H          1 MOL1         0.1009
       9    H6      20.632869   18.826138   20.926598 H          1 MOL1         0.1009
      10    H7      18.862222   18.655438   21.008360 H          1 MOL1         0.1009
      11    C3      19.975553   19.058973   23.638538 C.3        1 MOL1        -0.1392
      12    H8      20.080888   18.707078   24.673317 H          1 MOL1         0.0998
      13    H9      20.884104   19.638033   23.426514 H          1 MOL1         0.0998
      14    C4      18.726832   19.977995   23.577390 C.3        1 MOL1        -0.1302
      15    H10     18.530757   20.370027   24.585350 H          1 MOL1         0.0998
      16    H11     17.836359   19.395122   23.303014 H          1 MOL1         0.0998
      17    C5      18.896784   21.183722   22.623256 C.3        1 MOL1        -0.2317
      18    H12     19.739514   21.814406   22.934963 H          1 MOL1         0.1009
      19    H13     17.994350   21.808665   22.629694 H          1 MOL1         0.1009
      20    H14     19.075536   20.870277   21.588682 H          1 MOL1         0.1009
@<TRIPOS>BOND
    1     1     2    1
    2     1     3    1
    3     1     4    1
    4     1     5    1
    5     5     6    1
    6     5     7    1
    7     7     8    1
    8     7     9    1
    9     7    10    1
   10     5    11    1
   11    11    12    1
   12    11    13    1
   13    11    14    1
   14    14    15    1
   15    14    16    1
   16    14    17    1
   17    17    18    1
   18    17    19    1
   19    17    20    1
@<TRIPOS>SUBSTRUCTURE
       1 MOL1            1 RESIDUE      1      MOL     
@<SCITEGIC>MOL_PROPERTY
VConf Rank
SciTegic.value.IntegerValue
943

@<SCITEGIC>MOL_PROPERTY
Conf_Id
SciTegic.value.IntegerValue
52

@<SCITEGIC>MOL_PROPERTY
Delta U+W
SciTegic.value.DoubleValue
2.995

@<SCITEGIC>MOL_PROPERTY
U+W
SciTegic.value.DoubleValue
-33.282

@<SCITEGIC>MOL_PROPERTY
Grad RMS
SciTegic.value.DoubleValue
0.000000

@<SCITEGIC>MOL_PROPERTY
U
SciTegic.value.DoubleValue
25.224

@<SCITEGIC>MOL_PROPERTY
W
SciTegic.value.DoubleValue
-58.506

@<SCITEGIC>MOL_PROPERTY
W(PB)
SciTegic.value.DoubleValue
-60.411

@<SCITEGIC>MOL_PROPERTY
W(SA)
SciTegic.value.DoubleValue
1.905

@<SCITEGIC>MOL_PROPERTY
Valence
SciTegic.value.DoubleValue
4.945

@<SCITEGIC>MOL_PROPERTY
Coulomb
SciTegic.value.DoubleValue
19.467

@<SCITEGIC>MOL_PROPERTY
VdW
SciTegic.value.DoubleValue
0.813

@<SCITEGIC>MOL_PROPERTY
VdW6
SciTegic.value.DoubleValue
-5.458

@<SCITEGIC>MOL_PROPERTY
VdW12
SciTegic.value.DoubleValue
6.270

@<SCITEGIC>MOL_PROPERTY
Bond
SciTegic.value.DoubleValue
0.200

@<SCITEGIC>MOL_PROPERTY
Angle
SciTegic.value.DoubleValue
1.675

@<SCITEGIC>MOL_PROPERTY
Pdih
SciTegic.value.DoubleValue
3.070

@<SCITEGIC>MOL_PROPERTY
Idih
SciTegic.value.DoubleValue
0.000

@<SCITEGIC>MOL_PROPERTY
Tether
SciTegic.value.DoubleValue
0.000

@<TRIPOS>MOLECULE
guest-s10_confgen4.mol2 : confsearch ligand conformer 944
          20          19           1
SMALL
USER_CHARGES
 
@<TRIPOS>ATOM
       1    N1      20.725705   19.779428   21.693950 N.4        1 MOL1        -0.5937
       2    H1      21.670966   19.492349   21.959360 H          1 MOL1         0.3684
       3    H2      20.808253   20.650023   21.162069 H          1 MOL1         0.3684
       4    H3      20.355141   19.065709   21.062861 H          1 MOL1         0.3684
       5    C1      19.845170   19.951005   22.901622 C.3        1 MOL1         0.1270
       6    H4      18.872659   20.303158   22.543929 H          1 MOL1         0.0960
       7    C2      20.435121   21.027433   23.828454 C.3        1 MOL1        -0.2382
       8    H5      21.407967   20.716481   24.229375 H          1 MOL1         0.1009
       9    H6      19.764629   21.225976   24.673834 H          1 MOL1         0.1009
      10    H7      20.574038   21.971986   23.288215 H          1 MOL1         0.1009
      11    C3      19.628262   18.630394   23.678263 C.3        1 MOL1        -0.1392
      12    H8      20.589852   18.122158   23.828646 H          1 MOL1         0.0998
      13    H9      19.256884   18.872289   24.683076 H          1 MOL1         0.0998
      14    C4      18.604933   17.658109   23.034783 C.3        1 MOL1        -0.1302
      15    H10     17.632378   18.159551   22.931212 H          1 MOL1         0.0998
      16    H11     18.441844   16.823263   23.730815 H          1 MOL1         0.0998
      17    C5      19.032992   17.075636   21.668511 C.3        1 MOL1        -0.2317
      18    H12     18.363057   16.255162   21.379900 H          1 MOL1         0.1009
      19    H13     20.053437   16.672577   21.707935 H          1 MOL1         0.1009
      20    H14     18.977104   17.827581   20.872965 H          1 MOL1         0.1009
@<TRIPOS>BOND
    1     1     2    1
    2     1     3    1
    3     1     4    1
    4     1     5    1
    5     5     6    1
    6     5     7    1
    7     7     8    1
    8     7     9    1
    9     7    10    1
   10     5    11    1
   11    11    12    1
   12    11    13    1
   13    11    14    1
   14    14    15    1
   15    14    16    1
   16    14    17    1
   17    17    18    1
   18    17    19    1
   19    17    20    1
@<TRIPOS>SUBSTRUCTURE
       1 MOL1            1 RESIDUE      1      MOL     
@<SCITEGIC>MOL_PROPERTY
VConf Rank
SciTegic.value.IntegerValue
944

@<SCITEGIC>MOL_PROPERTY
Conf_Id
SciTegic.value.IntegerValue
54

@<SCITEGIC>MOL_PROPERTY
Delta U+W
SciTegic.value.DoubleValue
2.752

@<SCITEGIC>MOL_PROPERTY
U+W
SciTegic.value.DoubleValue
-33.525

@<SCITEGIC>MOL_PROPERTY
Grad RMS
SciTegic.value.DoubleValue
0.000000

@<SCITEGIC>MOL_PROPERTY
U
SciTegic.value.DoubleValue
24.337

@<SCITEGIC>MOL_PROPERTY
W
SciTegic.value.DoubleValue
-57.862

@<SCITEGIC>MOL_PROPERTY
W(PB)
SciTegic.value.DoubleValue
-59.764

@<SCITEGIC>MOL_PROPERTY
W(SA)
SciTegic.value.DoubleValue
1.901

@<SCITEGIC>MOL_PROPERTY
Valence
SciTegic.value.DoubleValue
3.593

@<SCITEGIC>MOL_PROPERTY
Coulomb
SciTegic.value.DoubleValue
20.067

@<SCITEGIC>MOL_PROPERTY
VdW
SciTegic.value.DoubleValue
0.677

@<SCITEGIC>MOL_PROPERTY
VdW6
SciTegic.value.DoubleValue
-5.466

@<SCITEGIC>MOL_PROPERTY
VdW12
SciTegic.value.DoubleValue
6.144

@<SCITEGIC>MOL_PROPERTY
Bond
SciTegic.value.DoubleValue
0.191

@<SCITEGIC>MOL_PROPERTY
Angle
SciTegic.value.DoubleValue
1.557

@<SCITEGIC>MOL_PROPERTY
Pdih
SciTegic.value.DoubleValue
1.845

@<SCITEGIC>MOL_PROPERTY
Idih
SciTegic.value.DoubleValue
0.000

@<SCITEGIC>MOL_PROPERTY
Tether
SciTegic.value.DoubleValue
0.000

@<TRIPOS>MOLECULE
guest-s10_confgen4.mol2 : confsearch ligand conformer 945
          20          19           1
SMALL
USER_CHARGES
 
@<TRIPOS>ATOM
       1    N1      18.183507   18.069951   23.701612 N.4        1 MOL1        -0.5937
       2    H1      17.170600   17.922941   23.693731 H          1 MOL1         0.3684
       3    H2      18.482871   18.069093   24.680434 H          1 MOL1         0.3684
       4    H3      18.613015   17.260434   23.248122 H          1 MOL1         0.3684
       5    C1      18.559279   19.351907   23.009319 C.3        1 MOL1         0.1270
       6    H4      18.043062   20.150851   23.550827 H          1 MOL1         0.0960
       7    C2      18.045462   19.368125   21.558605 C.3        1 MOL1        -0.2382
       8    H5      18.322922   20.303417   21.056889 H          1 MOL1         0.1009
       9    H6      16.951392   19.292687   21.538455 H          1 MOL1         0.1009
      10    H7      18.449039   18.532084   20.975336 H          1 MOL1         0.1009
      11    C3      20.075948   19.648230   23.092750 C.3        1 MOL1        -0.1392
      12    H8      20.267569   20.634891   22.650577 H          1 MOL1         0.0998
      13    H9      20.355125   19.733461   24.151146 H          1 MOL1         0.0998
      14    C4      20.987083   18.595774   22.409732 C.3        1 MOL1        -0.1302
      15    H10     20.757840   18.533085   21.337570 H          1 MOL1         0.0998
      16    H11     20.801021   17.600205   22.834450 H          1 MOL1         0.0998
      17    C5      22.481338   18.944043   22.580724 C.3        1 MOL1        -0.2317
      18    H12     23.113311   18.192020   22.090685 H          1 MOL1         0.1009
      19    H13     22.760592   18.977921   23.641898 H          1 MOL1         0.1009
      20    H14     22.713103   19.920182   22.135010 H          1 MOL1         0.1009
@<TRIPOS>BOND
    1     1     2    1
    2     1     3    1
    3     1     4    1
    4     1     5    1
    5     5     6    1
    6     5     7    1
    7     7     8    1
    8     7     9    1
    9     7    10    1
   10     5    11    1
   11    11    12    1
   12    11    13    1
   13    11    14    1
   14    14    15    1
   15    14    16    1
   16    14    17    1
   17    17    18    1
   18    17    19    1
   19    17    20    1
@<TRIPOS>SUBSTRUCTURE
       1 MOL1            1 RESIDUE      1      MOL     
@<SCITEGIC>MOL_PROPERTY
VConf Rank
SciTegic.value.IntegerValue
945

@<SCITEGIC>MOL_PROPERTY
Conf_Id
SciTegic.value.IntegerValue
63

@<SCITEGIC>MOL_PROPERTY
Delta U+W
SciTegic.value.DoubleValue
0.420

@<SCITEGIC>MOL_PROPERTY
U+W
SciTegic.value.DoubleValue
-35.856

@<SCITEGIC>MOL_PROPERTY
Grad RMS
SciTegic.value.DoubleValue
0.000000

@<SCITEGIC>MOL_PROPERTY
U
SciTegic.value.DoubleValue
22.625

@<SCITEGIC>MOL_PROPERTY
W
SciTegic.value.DoubleValue
-58.481

@<SCITEGIC>MOL_PROPERTY
W(PB)
SciTegic.value.DoubleValue
-60.400

@<SCITEGIC>MOL_PROPERTY
W(SA)
SciTegic.value.DoubleValue
1.919

@<SCITEGIC>MOL_PROPERTY
Valence
SciTegic.value.DoubleValue
2.404

@<SCITEGIC>MOL_PROPERTY
Coulomb
SciTegic.value.DoubleValue
19.464

@<SCITEGIC>MOL_PROPERTY
VdW
SciTegic.value.DoubleValue
0.757

@<SCITEGIC>MOL_PROPERTY
VdW6
SciTegic.value.DoubleValue
-5.074

@<SCITEGIC>MOL_PROPERTY
VdW12
SciTegic.value.DoubleValue
5.830

@<SCITEGIC>MOL_PROPERTY
Bond
SciTegic.value.DoubleValue
0.172

@<SCITEGIC>MOL_PROPERTY
Angle
SciTegic.value.DoubleValue
1.207

@<SCITEGIC>MOL_PROPERTY
Pdih
SciTegic.value.DoubleValue
1.025

@<SCITEGIC>MOL_PROPERTY
Idih
SciTegic.value.DoubleValue
0.000

@<SCITEGIC>MOL_PROPERTY
Tether
SciTegic.value.DoubleValue
0.000

@<TRIPOS>MOLECULE
guest-s10_confgen4.mol2 : confsearch ligand conformer 946
          20          19           1
SMALL
USER_CHARGES
 
@<TRIPOS>ATOM
       1    N1      20.142837   17.705962   21.616339 N.4        1 MOL1        -0.5937
       2    H1      19.826969   17.063132   22.347004 H          1 MOL1         0.3684
       3    H2      21.161208   17.629165   21.557654 H          1 MOL1         0.3684
       4    H3      19.759136   17.371746   20.728299 H          1 MOL1         0.3684
       5    C1      19.712416   19.118193   21.907061 C.3        1 MOL1         0.1270
       6    H4      18.619138   19.111493   21.949818 H          1 MOL1         0.0960
       7    C2      20.140708   20.061252   20.770964 C.3        1 MOL1        -0.2382
       8    H5      19.730249   19.724469   19.811100 H          1 MOL1         0.1009
       9    H6      21.233245   20.103170   20.679529 H          1 MOL1         0.1009
      10    H7      19.773676   21.079440   20.950414 H          1 MOL1         0.1009
      11    C3      20.247273   19.631818   23.263195 C.3        1 MOL1        -0.1392
      12    H8      21.344600   19.661438   23.234379 H          1 MOL1         0.0998
      13    H9      19.916444   20.668886   23.408002 H          1 MOL1         0.0998
      14    C4      19.794852   18.791016   24.483959 C.3        1 MOL1        -0.1302
      15    H10     20.226970   19.230160   25.394085 H          1 MOL1         0.0998
      16    H11     20.203228   17.773512   24.417018 H          1 MOL1         0.0998
      17    C5      18.258291   18.727171   24.639755 C.3        1 MOL1        -0.2317
      18    H12     17.826635   19.734182   24.708908 H          1 MOL1         0.1009
      19    H13     17.986790   18.183539   25.553987 H          1 MOL1         0.1009
      20    H14     17.786692   18.209392   23.795128 H          1 MOL1         0.1009
@<TRIPOS>BOND
    1     1     2    1
    2     1     3    1
    3     1     4    1
    4     1     5    1
    5     5     6    1
    6     5     7    1
    7     7     8    1
    8     7     9    1
    9     7    10    1
   10     5    11    1
   11    11    12    1
   12    11    13    1
   13    11    14    1
   14    14    15    1
   15    14    16    1
   16    14    17    1
   17    17    18    1
   18    17    19    1
   19    17    20    1
@<TRIPOS>SUBSTRUCTURE
       1 MOL1            1 RESIDUE      1      MOL     
@<SCITEGIC>MOL_PROPERTY
VConf Rank
SciTegic.value.IntegerValue
946

@<SCITEGIC>MOL_PROPERTY
Conf_Id
SciTegic.value.IntegerValue
50

@<SCITEGIC>MOL_PROPERTY
Delta U+W
SciTegic.value.DoubleValue
0.466

@<SCITEGIC>MOL_PROPERTY
U+W
SciTegic.value.DoubleValue
-35.811

@<SCITEGIC>MOL_PROPERTY
Grad RMS
SciTegic.value.DoubleValue
0.000000

@<SCITEGIC>MOL_PROPERTY
U
SciTegic.value.DoubleValue
22.369

@<SCITEGIC>MOL_PROPERTY
W
SciTegic.value.DoubleValue
-58.180

@<SCITEGIC>MOL_PROPERTY
W(PB)
SciTegic.value.DoubleValue
-60.103

@<SCITEGIC>MOL_PROPERTY
W(SA)
SciTegic.value.DoubleValue
1.923

@<SCITEGIC>MOL_PROPERTY
Valence
SciTegic.value.DoubleValue
2.168

@<SCITEGIC>MOL_PROPERTY
Coulomb
SciTegic.value.DoubleValue
19.636

@<SCITEGIC>MOL_PROPERTY
VdW
SciTegic.value.DoubleValue
0.566

@<SCITEGIC>MOL_PROPERTY
VdW6
SciTegic.value.DoubleValue
-5.263

@<SCITEGIC>MOL_PROPERTY
VdW12
SciTegic.value.DoubleValue
5.829

@<SCITEGIC>MOL_PROPERTY
Bond
SciTegic.value.DoubleValue
0.162

@<SCITEGIC>MOL_PROPERTY
Angle
SciTegic.value.DoubleValue
1.066

@<SCITEGIC>MOL_PROPERTY
Pdih
SciTegic.value.DoubleValue
0.939

@<SCITEGIC>MOL_PROPERTY
Idih
SciTegic.value.DoubleValue
0.000

@<SCITEGIC>MOL_PROPERTY
Tether
SciTegic.value.DoubleValue
0.000

@<TRIPOS>MOLECULE
guest-s10_confgen4.mol2 : confsearch ligand conformer 947
          20          19           1
SMALL
USER_CHARGES
 
@<TRIPOS>ATOM
       1    N1      20.551115   20.472317   21.308952 N.4        1 MOL1        -0.5937
       2    H1      19.807725   20.621885   20.621203 H          1 MOL1         0.3684
       3    H2      21.335157   20.030070   20.822570 H          1 MOL1         0.3684
       4    H3      20.866800   21.395569   21.618279 H          1 MOL1         0.3684
       5    C1      20.076230   19.636298   22.466595 C.3        1 MOL1         0.1270
       6    H4      19.242884   20.184611   22.916761 H          1 MOL1         0.0960
       7    C2      21.198620   19.498231   23.512129 C.3        1 MOL1        -0.2382
       8    H5      22.075245   18.994084   23.086654 H          1 MOL1         0.1009
       9    H6      20.869155   18.921632   24.383206 H          1 MOL1         0.1009
      10    H7      21.516298   20.485092   23.870340 H          1 MOL1         0.1009
      11    C3      19.550504   18.254778   22.004809 C.3        1 MOL1        -0.1392
      12    H8      19.350476   18.288735   20.925685 H          1 MOL1         0.0998
      13    H9      20.323473   17.486122   22.137853 H          1 MOL1         0.0998
      14    C4      18.238111   17.817298   22.703393 C.3        1 MOL1        -0.1302
      15    H10     17.902802   16.869951   22.258382 H          1 MOL1         0.0998
      16    H11     17.447163   18.550510   22.491540 H          1 MOL1         0.0998
      17    C5      18.367264   17.630107   24.231305 C.3        1 MOL1        -0.2317
      18    H12     19.179479   16.934112   24.478136 H          1 MOL1         0.1009
      19    H13     17.437683   17.220281   24.647193 H          1 MOL1         0.1009
      20    H14     18.559494   18.584362   24.737345 H          1 MOL1         0.1009
@<TRIPOS>BOND
    1     1     2    1
    2     1     3    1
    3     1     4    1
    4     1     5    1
    5     5     6    1
    6     5     7    1
    7     7     8    1
    8     7     9    1
    9     7    10    1
   10     5    11    1
   11    11    12    1
   12    11    13    1
   13    11    14    1
   14    14    15    1
   15    14    16    1
   16    14    17    1
   17    17    18    1
   18    17    19    1
   19    17    20    1
@<TRIPOS>SUBSTRUCTURE
       1 MOL1            1 RESIDUE      1      MOL     
@<SCITEGIC>MOL_PROPERTY
VConf Rank
SciTegic.value.IntegerValue
947

@<SCITEGIC>MOL_PROPERTY
Conf_Id
SciTegic.value.IntegerValue
3

@<SCITEGIC>MOL_PROPERTY
Delta U+W
SciTegic.value.DoubleValue
3.093

@<SCITEGIC>MOL_PROPERTY
U+W
SciTegic.value.DoubleValue
-33.184

@<SCITEGIC>MOL_PROPERTY
Grad RMS
SciTegic.value.DoubleValue
0.000000

@<SCITEGIC>MOL_PROPERTY
U
SciTegic.value.DoubleValue
25.256

@<SCITEGIC>MOL_PROPERTY
W
SciTegic.value.DoubleValue
-58.439

@<SCITEGIC>MOL_PROPERTY
W(PB)
SciTegic.value.DoubleValue
-60.337

@<SCITEGIC>MOL_PROPERTY
W(SA)
SciTegic.value.DoubleValue
1.898

@<SCITEGIC>MOL_PROPERTY
Valence
SciTegic.value.DoubleValue
4.963

@<SCITEGIC>MOL_PROPERTY
Coulomb
SciTegic.value.DoubleValue
19.511

@<SCITEGIC>MOL_PROPERTY
VdW
SciTegic.value.DoubleValue
0.782

@<SCITEGIC>MOL_PROPERTY
VdW6
SciTegic.value.DoubleValue
-5.429

@<SCITEGIC>MOL_PROPERTY
VdW12
SciTegic.value.DoubleValue
6.211

@<SCITEGIC>MOL_PROPERTY
Bond
SciTegic.value.DoubleValue
0.174

@<SCITEGIC>MOL_PROPERTY
Angle
SciTegic.value.DoubleValue
1.377

@<SCITEGIC>MOL_PROPERTY
Pdih
SciTegic.value.DoubleValue
3.412

@<SCITEGIC>MOL_PROPERTY
Idih
SciTegic.value.DoubleValue
0.000

@<SCITEGIC>MOL_PROPERTY
Tether
SciTegic.value.DoubleValue
0.000

@<TRIPOS>MOLECULE
guest-s10_confgen4.mol2 : confsearch ligand conformer 948
          20          19           1
SMALL
USER_CHARGES
 
@<TRIPOS>ATOM
       1    N1      18.592020   17.837223   24.440923 N.4        1 MOL1        -0.5937
       2    H1      17.922132   17.082188   24.271197 H          1 MOL1         0.3684
       3    H2      18.088907   18.584005   24.927774 H          1 MOL1         0.3684
       4    H3      19.300880   17.475698   25.083964 H          1 MOL1         0.3684
       5    C1      19.207283   18.326452   23.158547 C.3        1 MOL1         0.1270
       6    H4      18.380104   18.686570   22.539527 H          1 MOL1         0.0960
       7    C2      19.898342   17.166199   22.419391 C.3        1 MOL1        -0.2382
       8    H5      20.230116   17.472451   21.420557 H          1 MOL1         0.1009
       9    H6      19.206784   16.325044   22.287709 H          1 MOL1         0.1009
      10    H7      20.771757   16.804763   22.976166 H          1 MOL1         0.1009
      11    C3      20.172300   19.508429   23.415648 C.3        1 MOL1        -0.1392
      12    H8      19.648379   20.266155   24.013045 H          1 MOL1         0.0998
      13    H9      21.013380   19.163476   24.031544 H          1 MOL1         0.0998
      14    C4      20.726319   20.191592   22.139146 C.3        1 MOL1        -0.1302
      15    H10     21.369128   19.496384   21.582590 H          1 MOL1         0.0998
      16    H11     21.376213   21.025193   22.440119 H          1 MOL1         0.0998
      17    C5      19.615279   20.732967   21.210893 C.3        1 MOL1        -0.2317
      18    H12     18.957187   21.429198   21.746929 H          1 MOL1         0.1009
      19    H13     18.998647   19.921540   20.804180 H          1 MOL1         0.1009
      20    H14     20.053150   21.272940   20.361354 H          1 MOL1         0.1009
@<TRIPOS>BOND
    1     1     2    1
    2     1     3    1
    3     1     4    1
    4     1     5    1
    5     5     6    1
    6     5     7    1
    7     7     8    1
    8     7     9    1
    9     7    10    1
   10     5    11    1
   11    11    12    1
   12    11    13    1
   13    11    14    1
   14    14    15    1
   15    14    16    1
   16    14    17    1
   17    17    18    1
   18    17    19    1
   19    17    20    1
@<TRIPOS>SUBSTRUCTURE
       1 MOL1            1 RESIDUE      1      MOL     
@<SCITEGIC>MOL_PROPERTY
VConf Rank
SciTegic.value.IntegerValue
948

@<SCITEGIC>MOL_PROPERTY
Conf_Id
SciTegic.value.IntegerValue
64

@<SCITEGIC>MOL_PROPERTY
Delta U+W
SciTegic.value.DoubleValue
0.544

@<SCITEGIC>MOL_PROPERTY
U+W
SciTegic.value.DoubleValue
-35.732

@<SCITEGIC>MOL_PROPERTY
Grad RMS
SciTegic.value.DoubleValue
0.000000

@<SCITEGIC>MOL_PROPERTY
U
SciTegic.value.DoubleValue
22.800

@<SCITEGIC>MOL_PROPERTY
W
SciTegic.value.DoubleValue
-58.532

@<SCITEGIC>MOL_PROPERTY
W(PB)
SciTegic.value.DoubleValue
-60.437

@<SCITEGIC>MOL_PROPERTY
W(SA)
SciTegic.value.DoubleValue
1.905

@<SCITEGIC>MOL_PROPERTY
Valence
SciTegic.value.DoubleValue
2.662

@<SCITEGIC>MOL_PROPERTY
Coulomb
SciTegic.value.DoubleValue
19.485

@<SCITEGIC>MOL_PROPERTY
VdW
SciTegic.value.DoubleValue
0.653

@<SCITEGIC>MOL_PROPERTY
VdW6
SciTegic.value.DoubleValue
-5.460

@<SCITEGIC>MOL_PROPERTY
VdW12
SciTegic.value.DoubleValue
6.113

@<SCITEGIC>MOL_PROPERTY
Bond
SciTegic.value.DoubleValue
0.174

@<SCITEGIC>MOL_PROPERTY
Angle
SciTegic.value.DoubleValue
1.378

@<SCITEGIC>MOL_PROPERTY
Pdih
SciTegic.value.DoubleValue
1.109

@<SCITEGIC>MOL_PROPERTY
Idih
SciTegic.value.DoubleValue
0.000

@<SCITEGIC>MOL_PROPERTY
Tether
SciTegic.value.DoubleValue
0.000

@<TRIPOS>MOLECULE
guest-s10_confgen4.mol2 : confsearch ligand conformer 949
          20          19           1
SMALL
USER_CHARGES
 
@<TRIPOS>ATOM
       1    N1      17.715005   19.335691   22.770952 N.4        1 MOL1        -0.5937
       2    H1      18.038853   20.003195   22.067508 H          1 MOL1         0.3684
       3    H2      17.115614   19.846970   23.424357 H          1 MOL1         0.3684
       4    H3      17.126168   18.647824   22.293699 H          1 MOL1         0.3684
       5    C1      18.868723   18.679728   23.480514 C.3        1 MOL1         0.1270
       6    H4      18.422050   17.999595   24.212543 H          1 MOL1         0.0960
       7    C2      19.693437   19.716562   24.260608 C.3        1 MOL1        -0.2382
       8    H5      20.063135   20.512302   23.603470 H          1 MOL1         0.1009
       9    H6      20.551480   19.243050   24.753443 H          1 MOL1         0.1009
      10    H7      19.080148   20.185977   25.039387 H          1 MOL1         0.1009
      11    C3      19.731442   17.814246   22.527835 C.3        1 MOL1        -0.1392
      12    H8      20.445344   17.224475   23.117759 H          1 MOL1         0.0998
      13    H9      19.065171   17.076821   22.061179 H          1 MOL1         0.0998
      14    C4      20.482014   18.574771   21.399354 C.3        1 MOL1        -0.1302
      15    H10     19.920470   19.464586   21.085864 H          1 MOL1         0.0998
      16    H11     20.528461   17.923722   20.515069 H          1 MOL1         0.0998
      17    C5      21.931117   18.964622   21.774671 C.3        1 MOL1        -0.2317
      18    H12     21.967014   19.653217   22.625862 H          1 MOL1         0.1009
      19    H13     22.426192   19.459013   20.928832 H          1 MOL1         0.1009
      20    H14     22.522777   18.076578   22.032272 H          1 MOL1         0.1009
@<TRIPOS>BOND
    1     1     2    1
    2     1     3    1
    3     1     4    1
    4     1     5    1
    5     5     6    1
    6     5     7    1
    7     7     8    1
    8     7     9    1
    9     7    10    1
   10     5    11    1
   11    11    12    1
   12    11    13    1
   13    11    14    1
   14    14    15    1
   15    14    16    1
   16    14    17    1
   17    17    18    1
   18    17    19    1
   19    17    20    1
@<TRIPOS>SUBSTRUCTURE
       1 MOL1            1 RESIDUE      1      MOL     
@<SCITEGIC>MOL_PROPERTY
VConf Rank
SciTegic.value.IntegerValue
949

@<SCITEGIC>MOL_PROPERTY
Conf_Id
SciTegic.value.IntegerValue
35

@<SCITEGIC>MOL_PROPERTY
Delta U+W
SciTegic.value.DoubleValue
3.004

@<SCITEGIC>MOL_PROPERTY
U+W
SciTegic.value.DoubleValue
-33.272

@<SCITEGIC>MOL_PROPERTY
Grad RMS
SciTegic.value.DoubleValue
0.000000

@<SCITEGIC>MOL_PROPERTY
U
SciTegic.value.DoubleValue
25.367

@<SCITEGIC>MOL_PROPERTY
W
SciTegic.value.DoubleValue
-58.639

@<SCITEGIC>MOL_PROPERTY
W(PB)
SciTegic.value.DoubleValue
-60.512

@<SCITEGIC>MOL_PROPERTY
W(SA)
SciTegic.value.DoubleValue
1.873

@<SCITEGIC>MOL_PROPERTY
Valence
SciTegic.value.DoubleValue
4.943

@<SCITEGIC>MOL_PROPERTY
Coulomb
SciTegic.value.DoubleValue
19.661

@<SCITEGIC>MOL_PROPERTY
VdW
SciTegic.value.DoubleValue
0.764

@<SCITEGIC>MOL_PROPERTY
VdW6
SciTegic.value.DoubleValue
-5.871

@<SCITEGIC>MOL_PROPERTY
VdW12
SciTegic.value.DoubleValue
6.636

@<SCITEGIC>MOL_PROPERTY
Bond
SciTegic.value.DoubleValue
0.230

@<SCITEGIC>MOL_PROPERTY
Angle
SciTegic.value.DoubleValue
1.857

@<SCITEGIC>MOL_PROPERTY
Pdih
SciTegic.value.DoubleValue
2.855

@<SCITEGIC>MOL_PROPERTY
Idih
SciTegic.value.DoubleValue
0.000

@<SCITEGIC>MOL_PROPERTY
Tether
SciTegic.value.DoubleValue
0.000

@<TRIPOS>MOLECULE
guest-s10_confgen4.mol2 : confsearch ligand conformer 950
          20          19           1
SMALL
USER_CHARGES
 
@<TRIPOS>ATOM
       1    N1      18.282950   18.570065   23.536117 N.4        1 MOL1        -0.5937
       2    H1      17.436145   18.021226   23.364947 H          1 MOL1         0.3684
       3    H2      18.075647   19.219983   24.299147 H          1 MOL1         0.3684
       4    H3      19.005991   17.929035   23.868216 H          1 MOL1         0.3684
       5    C1      18.728250   19.298599   22.297808 C.3        1 MOL1         0.1270
       6    H4      17.901643   19.969612   22.044056 H          1 MOL1         0.0960
       7    C2      18.913885   18.332609   21.114206 C.3        1 MOL1        -0.2382
       8    H5      19.666764   17.565687   21.331687 H          1 MOL1         0.1009
       9    H6      19.225995   18.876172   20.213903 H          1 MOL1         0.1009
      10    H7      17.971219   17.821407   20.883945 H          1 MOL1         0.1009
      11    C3      19.973828   20.191043   22.533163 C.3        1 MOL1        -0.1392
      12    H8      20.034060   20.903825   21.700183 H          1 MOL1         0.0998
      13    H9      19.807824   20.803989   23.428684 H          1 MOL1         0.0998
      14    C4      21.350407   19.478025   22.648197 C.3        1 MOL1        -0.1302
      15    H10     22.123481   20.250210   22.766147 H          1 MOL1         0.0998
      16    H11     21.591470   18.961352   21.709278 H          1 MOL1         0.0998
      17    C5      21.468391   18.489555   23.830537 C.3        1 MOL1        -0.2317
      18    H12     21.150485   18.955334   24.772411 H          1 MOL1         0.1009
      19    H13     22.510736   18.167946   23.954047 H          1 MOL1         0.1009
      20    H14     20.871438   17.585872   23.662391 H          1 MOL1         0.1009
@<TRIPOS>BOND
    1     1     2    1
    2     1     3    1
    3     1     4    1
    4     1     5    1
    5     5     6    1
    6     5     7    1
    7     7     8    1
    8     7     9    1
    9     7    10    1
   10     5    11    1
   11    11    12    1
   12    11    13    1
   13    11    14    1
   14    14    15    1
   15    14    16    1
   16    14    17    1
   17    17    18    1
   18    17    19    1
   19    17    20    1
@<TRIPOS>SUBSTRUCTURE
       1 MOL1            1 RESIDUE      1      MOL     
@<SCITEGIC>MOL_PROPERTY
VConf Rank
SciTegic.value.IntegerValue
950

@<SCITEGIC>MOL_PROPERTY
Conf_Id
SciTegic.value.IntegerValue
55

@<SCITEGIC>MOL_PROPERTY
Delta U+W
SciTegic.value.DoubleValue
2.767

@<SCITEGIC>MOL_PROPERTY
U+W
SciTegic.value.DoubleValue
-33.509

@<SCITEGIC>MOL_PROPERTY
Grad RMS
SciTegic.value.DoubleValue
0.000000

@<SCITEGIC>MOL_PROPERTY
U
SciTegic.value.DoubleValue
24.552

@<SCITEGIC>MOL_PROPERTY
W
SciTegic.value.DoubleValue
-58.061

@<SCITEGIC>MOL_PROPERTY
W(PB)
SciTegic.value.DoubleValue
-59.930

@<SCITEGIC>MOL_PROPERTY
W(SA)
SciTegic.value.DoubleValue
1.869

@<SCITEGIC>MOL_PROPERTY
Valence
SciTegic.value.DoubleValue
3.726

@<SCITEGIC>MOL_PROPERTY
Coulomb
SciTegic.value.DoubleValue
20.219

@<SCITEGIC>MOL_PROPERTY
VdW
SciTegic.value.DoubleValue
0.606

@<SCITEGIC>MOL_PROPERTY
VdW6
SciTegic.value.DoubleValue
-6.395

@<SCITEGIC>MOL_PROPERTY
VdW12
SciTegic.value.DoubleValue
7.001

@<SCITEGIC>MOL_PROPERTY
Bond
SciTegic.value.DoubleValue
0.241

@<SCITEGIC>MOL_PROPERTY
Angle
SciTegic.value.DoubleValue
2.098

@<SCITEGIC>MOL_PROPERTY
Pdih
SciTegic.value.DoubleValue
1.387

@<SCITEGIC>MOL_PROPERTY
Idih
SciTegic.value.DoubleValue
0.000

@<SCITEGIC>MOL_PROPERTY
Tether
SciTegic.value.DoubleValue
0.000

@<TRIPOS>MOLECULE
guest-s10_confgen4.mol2 : confsearch ligand conformer 951
          20          19           1
SMALL
USER_CHARGES
 
@<TRIPOS>ATOM
       1    N1      19.763438   17.521305   24.071015 N.4        1 MOL1        -0.5937
       2    H1      20.760238   17.297942   24.015845 H          1 MOL1         0.3684
       3    H2      19.283263   16.688966   24.423577 H          1 MOL1         0.3684
       4    H3      19.651399   18.256771   24.773238 H          1 MOL1         0.3684
       5    C1      19.218771   17.946514   22.734005 C.3        1 MOL1         0.1270
       6    H4      18.157464   18.168815   22.882655 H          1 MOL1         0.0960
       7    C2      19.332121   16.800382   21.715426 C.3        1 MOL1        -0.2382
       8    H5      18.812740   15.905060   22.078615 H          1 MOL1         0.1009
       9    H6      20.380618   16.535649   21.530053 H          1 MOL1         0.1009
      10    H7      18.876876   17.082838   20.758028 H          1 MOL1         0.1009
      11    C3      19.906688   19.218151   22.190076 C.3        1 MOL1        -0.1392
      12    H8      20.979782   19.028701   22.054086 H          1 MOL1         0.0998
      13    H9      19.500156   19.442575   21.194871 H          1 MOL1         0.0998
      14    C4      19.704822   20.452868   23.101253 C.3        1 MOL1        -0.1302
      15    H10     20.153893   20.274514   24.087636 H          1 MOL1         0.0998
      16    H11     18.630946   20.620013   23.265859 H          1 MOL1         0.0998
      17    C5      20.331312   21.723064   22.486910 C.3        1 MOL1        -0.2317
      18    H12     21.411835   21.598196   22.338139 H          1 MOL1         0.1009
      19    H13     20.180182   22.587708   23.146178 H          1 MOL1         0.1009
      20    H14     19.877461   21.957894   21.515258 H          1 MOL1         0.1009
@<TRIPOS>BOND
    1     1     2    1
    2     1     3    1
    3     1     4    1
    4     1     5    1
    5     5     6    1
    6     5     7    1
    7     7     8    1
    8     7     9    1
    9     7    10    1
   10     5    11    1
   11    11    12    1
   12    11    13    1
   13    11    14    1
   14    14    15    1
   15    14    16    1
   16    14    17    1
   17    17    18    1
   18    17    19    1
   19    17    20    1
@<TRIPOS>SUBSTRUCTURE
       1 MOL1            1 RESIDUE      1      MOL     
@<SCITEGIC>MOL_PROPERTY
VConf Rank
SciTegic.value.IntegerValue
951

@<SCITEGIC>MOL_PROPERTY
Conf_Id
SciTegic.value.IntegerValue
74

@<SCITEGIC>MOL_PROPERTY
Delta U+W
SciTegic.value.DoubleValue
0.000

@<SCITEGIC>MOL_PROPERTY
U+W
SciTegic.value.DoubleValue
-36.276

@<SCITEGIC>MOL_PROPERTY
Grad RMS
SciTegic.value.DoubleValue
0.000000

@<SCITEGIC>MOL_PROPERTY
U
SciTegic.value.DoubleValue
22.080

@<SCITEGIC>MOL_PROPERTY
W
SciTegic.value.DoubleValue
-58.356

@<SCITEGIC>MOL_PROPERTY
W(PB)
SciTegic.value.DoubleValue
-60.289

@<SCITEGIC>MOL_PROPERTY
W(SA)
SciTegic.value.DoubleValue
1.932

@<SCITEGIC>MOL_PROPERTY
Valence
SciTegic.value.DoubleValue
1.885

@<SCITEGIC>MOL_PROPERTY
Coulomb
SciTegic.value.DoubleValue
19.559

@<SCITEGIC>MOL_PROPERTY
VdW
SciTegic.value.DoubleValue
0.637

@<SCITEGIC>MOL_PROPERTY
VdW6
SciTegic.value.DoubleValue
-4.482

@<SCITEGIC>MOL_PROPERTY
VdW12
SciTegic.value.DoubleValue
5.119

@<SCITEGIC>MOL_PROPERTY
Bond
SciTegic.value.DoubleValue
0.136

@<SCITEGIC>MOL_PROPERTY
Angle
SciTegic.value.DoubleValue
0.867

@<SCITEGIC>MOL_PROPERTY
Pdih
SciTegic.value.DoubleValue
0.882

@<SCITEGIC>MOL_PROPERTY
Idih
SciTegic.value.DoubleValue
0.000

@<SCITEGIC>MOL_PROPERTY
Tether
SciTegic.value.DoubleValue
0.000

@<TRIPOS>MOLECULE
guest-s10_confgen4.mol2 : confsearch ligand conformer 952
          20          19           1
SMALL
USER_CHARGES
 
@<TRIPOS>ATOM
       1    N1      21.163768   19.258904   20.827016 N.4        1 MOL1        -0.5937
       2    H1      21.394484   18.294967   20.571179 H          1 MOL1         0.3684
       3    H2      21.971933   19.646767   21.320127 H          1 MOL1         0.3684
       4    H3      21.057655   19.785507   19.955748 H          1 MOL1         0.3684
       5    C1      19.918196   19.327827   21.667412 C.3        1 MOL1         0.1270
       6    H4      19.114089   18.897530   21.062331 H          1 MOL1         0.0960
       7    C2      19.562940   20.793860   21.976184 C.3        1 MOL1        -0.2382
       8    H5      19.517083   21.383122   21.052122 H          1 MOL1         0.1009
       9    H6      20.309950   21.253235   22.635372 H          1 MOL1         0.1009
      10    H7      18.582386   20.873907   22.459227 H          1 MOL1         0.1009
      11    C3      20.062912   18.479895   22.952542 C.3        1 MOL1        -0.1392
      12    H8      20.420878   17.480767   22.670999 H          1 MOL1         0.0998
      13    H9      20.836469   18.916269   23.598325 H          1 MOL1         0.0998
      14    C4      18.745125   18.322933   23.750015 C.3        1 MOL1        -0.1302
      15    H10     17.953607   17.945358   23.087439 H          1 MOL1         0.0998
      16    H11     18.408173   19.298376   24.125348 H          1 MOL1         0.0998
      17    C5      18.913827   17.360487   24.945389 C.3        1 MOL1        -0.2317
      18    H12     19.209263   16.358360   24.608201 H          1 MOL1         0.1009
      19    H13     17.972124   17.263847   25.501217 H          1 MOL1         0.1009
      20    H14     19.679596   17.726318   25.641826 H          1 MOL1         0.1009
@<TRIPOS>BOND
    1     1     2    1
    2     1     3    1
    3     1     4    1
    4     1     5    1
    5     5     6    1
    6     5     7    1
    7     7     8    1
    8     7     9    1
    9     7    10    1
   10     5    11    1
   11    11    12    1
   12    11    13    1
   13    11    14    1
   14    14    15    1
   15    14    16    1
   16    14    17    1
   17    17    18    1
   18    17    19    1
   19    17    20    1
@<TRIPOS>SUBSTRUCTURE
       1 MOL1            1 RESIDUE      1      MOL     
@<SCITEGIC>MOL_PROPERTY
VConf Rank
SciTegic.value.IntegerValue
952

@<SCITEGIC>MOL_PROPERTY
Conf_Id
SciTegic.value.IntegerValue
80

@<SCITEGIC>MOL_PROPERTY
Delta U+W
SciTegic.value.DoubleValue
0.460

@<SCITEGIC>MOL_PROPERTY
U+W
SciTegic.value.DoubleValue
-35.817

@<SCITEGIC>MOL_PROPERTY
Grad RMS
SciTegic.value.DoubleValue
0.000000

@<SCITEGIC>MOL_PROPERTY
U
SciTegic.value.DoubleValue
22.495

@<SCITEGIC>MOL_PROPERTY
W
SciTegic.value.DoubleValue
-58.311

@<SCITEGIC>MOL_PROPERTY
W(PB)
SciTegic.value.DoubleValue
-60.259

@<SCITEGIC>MOL_PROPERTY
W(SA)
SciTegic.value.DoubleValue
1.948

@<SCITEGIC>MOL_PROPERTY
Valence
SciTegic.value.DoubleValue
2.419

@<SCITEGIC>MOL_PROPERTY
Coulomb
SciTegic.value.DoubleValue
19.304

@<SCITEGIC>MOL_PROPERTY
VdW
SciTegic.value.DoubleValue
0.772

@<SCITEGIC>MOL_PROPERTY
VdW6
SciTegic.value.DoubleValue
-4.635

@<SCITEGIC>MOL_PROPERTY
VdW12
SciTegic.value.DoubleValue
5.407

@<SCITEGIC>MOL_PROPERTY
Bond
SciTegic.value.DoubleValue
0.149

@<SCITEGIC>MOL_PROPERTY
Angle
SciTegic.value.DoubleValue
1.142

@<SCITEGIC>MOL_PROPERTY
Pdih
SciTegic.value.DoubleValue
1.129

@<SCITEGIC>MOL_PROPERTY
Idih
SciTegic.value.DoubleValue
0.000

@<SCITEGIC>MOL_PROPERTY
Tether
SciTegic.value.DoubleValue
0.000

@<TRIPOS>MOLECULE
guest-s10_confgen4.mol2 : confsearch ligand conformer 953
          20          19           1
SMALL
USER_CHARGES
 
@<TRIPOS>ATOM
       1    N1      21.250497   17.202348   23.563396 N.4        1 MOL1        -0.5937
       2    H1      22.219423   17.532423   23.556730 H          1 MOL1         0.3684
       3    H2      21.134505   16.576186   22.762674 H          1 MOL1         0.3684
       4    H3      21.128751   16.639625   24.409643 H          1 MOL1         0.3684
       5    C1      20.273485   18.345158   23.516681 C.3        1 MOL1         0.1270
       6    H4      20.467858   18.950766   24.407331 H          1 MOL1         0.0960
       7    C2      18.831490   17.816602   23.603490 C.3        1 MOL1        -0.2382
       8    H5      18.722736   17.124134   24.447175 H          1 MOL1         0.1009
       9    H6      18.546339   17.285025   22.687210 H          1 MOL1         0.1009
      10    H7      18.122281   18.635890   23.767188 H          1 MOL1         0.1009
      11    C3      20.515094   19.232213   22.270850 C.3        1 MOL1        -0.1392
      12    H8      21.572524   19.528005   22.277330 H          1 MOL1         0.0998
      13    H9      20.375403   18.644610   21.353823 H          1 MOL1         0.0998
      14    C4      19.663002   20.527692   22.213267 C.3        1 MOL1        -0.1302
      15    H10     20.277016   21.332012   21.784112 H          1 MOL1         0.0998
      16    H11     19.401068   20.858307   23.228181 H          1 MOL1         0.0998
      17    C5      18.389374   20.388012   21.346437 C.3        1 MOL1        -0.2317
      18    H12     18.646567   20.131519   20.310493 H          1 MOL1         0.1009
      19    H13     17.833256   21.334210   21.325815 H          1 MOL1         0.1009
      20    H14     17.713168   19.614323   21.726824 H          1 MOL1         0.1009
@<TRIPOS>BOND
    1     1     2    1
    2     1     3    1
    3     1     4    1
    4     1     5    1
    5     5     6    1
    6     5     7    1
    7     7     8    1
    8     7     9    1
    9     7    10    1
   10     5    11    1
   11    11    12    1
   12    11    13    1
   13    11    14    1
   14    14    15    1
   15    14    16    1
   16    14    17    1
   17    17    18    1
   18    17    19    1
   19    17    20    1
@<TRIPOS>SUBSTRUCTURE
       1 MOL1            1 RESIDUE      1      MOL     
@<SCITEGIC>MOL_PROPERTY
VConf Rank
SciTegic.value.IntegerValue
953

@<SCITEGIC>MOL_PROPERTY
Conf_Id
SciTegic.value.IntegerValue
52

@<SCITEGIC>MOL_PROPERTY
Delta U+W
SciTegic.value.DoubleValue
2.995

@<SCITEGIC>MOL_PROPERTY
U+W
SciTegic.value.DoubleValue
-33.282

@<SCITEGIC>MOL_PROPERTY
Grad RMS
SciTegic.value.DoubleValue
0.000000

@<SCITEGIC>MOL_PROPERTY
U
SciTegic.value.DoubleValue
25.224

@<SCITEGIC>MOL_PROPERTY
W
SciTegic.value.DoubleValue
-58.506

@<SCITEGIC>MOL_PROPERTY
W(PB)
SciTegic.value.DoubleValue
-60.411

@<SCITEGIC>MOL_PROPERTY
W(SA)
SciTegic.value.DoubleValue
1.905

@<SCITEGIC>MOL_PROPERTY
Valence
SciTegic.value.DoubleValue
4.945

@<SCITEGIC>MOL_PROPERTY
Coulomb
SciTegic.value.DoubleValue
19.467

@<SCITEGIC>MOL_PROPERTY
VdW
SciTegic.value.DoubleValue
0.813

@<SCITEGIC>MOL_PROPERTY
VdW6
SciTegic.value.DoubleValue
-5.458

@<SCITEGIC>MOL_PROPERTY
VdW12
SciTegic.value.DoubleValue
6.270

@<SCITEGIC>MOL_PROPERTY
Bond
SciTegic.value.DoubleValue
0.200

@<SCITEGIC>MOL_PROPERTY
Angle
SciTegic.value.DoubleValue
1.675

@<SCITEGIC>MOL_PROPERTY
Pdih
SciTegic.value.DoubleValue
3.070

@<SCITEGIC>MOL_PROPERTY
Idih
SciTegic.value.DoubleValue
0.000

@<SCITEGIC>MOL_PROPERTY
Tether
SciTegic.value.DoubleValue
0.000

@<TRIPOS>MOLECULE
guest-s10_confgen4.mol2 : confsearch ligand conformer 954
          20          19           1
SMALL
USER_CHARGES
 
@<TRIPOS>ATOM
       1    N1      19.707766   19.115221   24.362311 N.4        1 MOL1        -0.5937
       2    H1      18.713554   19.189441   24.591245 H          1 MOL1         0.3684
       3    H2      20.233695   19.483658   25.159368 H          1 MOL1         0.3684
       4    H3      19.929085   18.120690   24.279178 H          1 MOL1         0.3684
       5    C1      20.035372   19.855501   23.094277 C.3        1 MOL1         0.1270
       6    H4      21.115981   19.772052   22.942438 H          1 MOL1         0.0960
       7    C2      19.685994   21.344777   23.254758 C.3        1 MOL1        -0.2382
       8    H5      18.607041   21.486715   23.394658 H          1 MOL1         0.1009
       9    H6      19.994177   21.916374   22.370481 H          1 MOL1         0.1009
      10    H7      20.202625   21.774050   24.122025 H          1 MOL1         0.1009
      11    C3      19.323256   19.264985   21.853948 C.3        1 MOL1        -0.1392
      12    H8      18.260812   19.098991   22.075831 H          1 MOL1         0.0998
      13    H9      19.348067   20.010698   21.048107 H          1 MOL1         0.0998
      14    C4      19.961475   17.966400   21.294520 C.3        1 MOL1        -0.1302
      15    H10     21.011868   18.153952   21.030830 H          1 MOL1         0.0998
      16    H11     19.453982   17.713964   20.352844 H          1 MOL1         0.0998
      17    C5      19.876478   16.743310   22.235813 C.3        1 MOL1        -0.2317
      18    H12     20.161324   15.830171   21.696994 H          1 MOL1         0.1009
      19    H13     18.855880   16.600529   22.614375 H          1 MOL1         0.1009
      20    H14     20.561961   16.838790   23.085776 H          1 MOL1         0.1009
@<TRIPOS>BOND
    1     1     2    1
    2     1     3    1
    3     1     4    1
    4     1     5    1
    5     5     6    1
    6     5     7    1
    7     7     8    1
    8     7     9    1
    9     7    10    1
   10     5    11    1
   11    11    12    1
   12    11    13    1
   13    11    14    1
   14    14    15    1
   15    14    16    1
   16    14    17    1
   17    17    18    1
   18    17    19    1
   19    17    20    1
@<TRIPOS>SUBSTRUCTURE
       1 MOL1            1 RESIDUE      1      MOL     
@<SCITEGIC>MOL_PROPERTY
VConf Rank
SciTegic.value.IntegerValue
954

@<SCITEGIC>MOL_PROPERTY
Conf_Id
SciTegic.value.IntegerValue
54

@<SCITEGIC>MOL_PROPERTY
Delta U+W
SciTegic.value.DoubleValue
2.752

@<SCITEGIC>MOL_PROPERTY
U+W
SciTegic.value.DoubleValue
-33.525

@<SCITEGIC>MOL_PROPERTY
Grad RMS
SciTegic.value.DoubleValue
0.000000

@<SCITEGIC>MOL_PROPERTY
U
SciTegic.value.DoubleValue
24.337

@<SCITEGIC>MOL_PROPERTY
W
SciTegic.value.DoubleValue
-57.862

@<SCITEGIC>MOL_PROPERTY
W(PB)
SciTegic.value.DoubleValue
-59.764

@<SCITEGIC>MOL_PROPERTY
W(SA)
SciTegic.value.DoubleValue
1.901

@<SCITEGIC>MOL_PROPERTY
Valence
SciTegic.value.DoubleValue
3.593

@<SCITEGIC>MOL_PROPERTY
Coulomb
SciTegic.value.DoubleValue
20.067

@<SCITEGIC>MOL_PROPERTY
VdW
SciTegic.value.DoubleValue
0.677

@<SCITEGIC>MOL_PROPERTY
VdW6
SciTegic.value.DoubleValue
-5.466

@<SCITEGIC>MOL_PROPERTY
VdW12
SciTegic.value.DoubleValue
6.144

@<SCITEGIC>MOL_PROPERTY
Bond
SciTegic.value.DoubleValue
0.191

@<SCITEGIC>MOL_PROPERTY
Angle
SciTegic.value.DoubleValue
1.557

@<SCITEGIC>MOL_PROPERTY
Pdih
SciTegic.value.DoubleValue
1.845

@<SCITEGIC>MOL_PROPERTY
Idih
SciTegic.value.DoubleValue
0.000

@<SCITEGIC>MOL_PROPERTY
Tether
SciTegic.value.DoubleValue
0.000

@<TRIPOS>MOLECULE
guest-s10_confgen4.mol2 : confsearch ligand conformer 955
          20          19           1
SMALL
USER_CHARGES
 
@<TRIPOS>ATOM
       1    N1      19.441907   20.280552   24.249898 N.4        1 MOL1        -0.5937
       2    H1      19.864735   20.700135   25.082257 H          1 MOL1         0.3684
       3    H2      18.431710   20.240379   24.409900 H          1 MOL1         0.3684
       4    H3      19.604254   20.920709   23.469328 H          1 MOL1         0.3684
       5    C1      20.012417   18.916610   23.970491 C.3        1 MOL1         0.1270
       6    H4      19.806353   18.314189   24.860799 H          1 MOL1         0.0960
       7    C2      21.540454   18.981092   23.797904 C.3        1 MOL1        -0.2382
       8    H5      21.952252   17.985219   23.592643 H          1 MOL1         0.1009
       9    H6      22.014440   19.353748   24.714175 H          1 MOL1         0.1009
      10    H7      21.828767   19.648375   22.977141 H          1 MOL1         0.1009
      11    C3      19.320816   18.218192   22.775103 C.3        1 MOL1        -0.1392
      12    H8      19.719268   17.199117   22.683138 H          1 MOL1         0.0998
      13    H9      18.254291   18.104252   23.009512 H          1 MOL1         0.0998
      14    C4      19.467318   18.949454   21.415640 C.3        1 MOL1        -0.1302
      15    H10     20.527020   19.027420   21.138216 H          1 MOL1         0.0998
      16    H11     19.081554   19.974817   21.492965 H          1 MOL1         0.0998
      17    C5      18.710344   18.211012   20.290908 C.3        1 MOL1        -0.2317
      18    H12     18.824878   18.738692   19.335135 H          1 MOL1         0.1009
      19    H13     17.637107   18.146491   20.512765 H          1 MOL1         0.1009
      20    H14     19.094190   17.190847   20.159953 H          1 MOL1         0.1009
@<TRIPOS>BOND
    1     1     2    1
    2     1     3    1
    3     1     4    1
    4     1     5    1
    5     5     6    1
    6     5     7    1
    7     7     8    1
    8     7     9    1
    9     7    10    1
   10     5    11    1
   11    11    12    1
   12    11    13    1
   13    11    14    1
   14    14    15    1
   15    14    16    1
   16    14    17    1
   17    17    18    1
   18    17    19    1
   19    17    20    1
@<TRIPOS>SUBSTRUCTURE
       1 MOL1            1 RESIDUE      1      MOL     
@<SCITEGIC>MOL_PROPERTY
VConf Rank
SciTegic.value.IntegerValue
955

@<SCITEGIC>MOL_PROPERTY
Conf_Id
SciTegic.value.IntegerValue
63

@<SCITEGIC>MOL_PROPERTY
Delta U+W
SciTegic.value.DoubleValue
0.420

@<SCITEGIC>MOL_PROPERTY
U+W
SciTegic.value.DoubleValue
-35.856

@<SCITEGIC>MOL_PROPERTY
Grad RMS
SciTegic.value.DoubleValue
0.000000

@<SCITEGIC>MOL_PROPERTY
U
SciTegic.value.DoubleValue
22.625

@<SCITEGIC>MOL_PROPERTY
W
SciTegic.value.DoubleValue
-58.481

@<SCITEGIC>MOL_PROPERTY
W(PB)
SciTegic.value.DoubleValue
-60.400

@<SCITEGIC>MOL_PROPERTY
W(SA)
SciTegic.value.DoubleValue
1.919

@<SCITEGIC>MOL_PROPERTY
Valence
SciTegic.value.DoubleValue
2.404

@<SCITEGIC>MOL_PROPERTY
Coulomb
SciTegic.value.DoubleValue
19.464

@<SCITEGIC>MOL_PROPERTY
VdW
SciTegic.value.DoubleValue
0.757

@<SCITEGIC>MOL_PROPERTY
VdW6
SciTegic.value.DoubleValue
-5.074

@<SCITEGIC>MOL_PROPERTY
VdW12
SciTegic.value.DoubleValue
5.830

@<SCITEGIC>MOL_PROPERTY
Bond
SciTegic.value.DoubleValue
0.172

@<SCITEGIC>MOL_PROPERTY
Angle
SciTegic.value.DoubleValue
1.207

@<SCITEGIC>MOL_PROPERTY
Pdih
SciTegic.value.DoubleValue
1.025

@<SCITEGIC>MOL_PROPERTY
Idih
SciTegic.value.DoubleValue
0.000

@<SCITEGIC>MOL_PROPERTY
Tether
SciTegic.value.DoubleValue
0.000

@<TRIPOS>MOLECULE
guest-s10_confgen4.mol2 : confsearch ligand conformer 956
          20          19           1
SMALL
USER_CHARGES
 
@<TRIPOS>ATOM
       1    N1      20.731811   19.831678   23.908233 N.4        1 MOL1        -0.5937
       2    H1      20.745621   18.942671   24.414543 H          1 MOL1         0.3684
       3    H2      20.185992   20.494443   24.464330 H          1 MOL1         0.3684
       4    H3      21.693792   20.179574   23.875013 H          1 MOL1         0.3684
       5    C1      20.156798   19.665768   22.527649 C.3        1 MOL1         0.1270
       6    H4      20.796807   18.949163   22.004203 H          1 MOL1         0.0960
       7    C2      20.199454   20.995996   21.758113 C.3        1 MOL1        -0.2382
       8    H5      21.225408   21.380248   21.703288 H          1 MOL1         0.1009
       9    H6      19.575261   21.756490   22.243690 H          1 MOL1         0.1009
      10    H7      19.838889   20.863470   20.730469 H          1 MOL1         0.1009
      11    C3      18.717323   19.103300   22.550564 C.3        1 MOL1        -0.1392
      12    H8      18.055299   19.817217   23.058383 H          1 MOL1         0.0998
      13    H9      18.348525   19.023559   21.519275 H          1 MOL1         0.0998
      14    C4      18.587542   17.717929   23.233062 C.3        1 MOL1        -0.1302
      15    H10     17.533648   17.407580   23.203162 H          1 MOL1         0.0998
      16    H11     18.849773   17.792389   24.297137 H          1 MOL1         0.0998
      17    C5      19.450041   16.626928   22.558392 C.3        1 MOL1        -0.2317
      18    H12     19.205347   16.533890   21.492255 H          1 MOL1         0.1009
      19    H13     19.272421   15.650998   23.028583 H          1 MOL1         0.1009
      20    H14     20.521607   16.845843   22.646257 H          1 MOL1         0.1009
@<TRIPOS>BOND
    1     1     2    1
    2     1     3    1
    3     1     4    1
    4     1     5    1
    5     5     6    1
    6     5     7    1
    7     7     8    1
    8     7     9    1
    9     7    10    1
   10     5    11    1
   11    11    12    1
   12    11    13    1
   13    11    14    1
   14    14    15    1
   15    14    16    1
   16    14    17    1
   17    17    18    1
   18    17    19    1
   19    17    20    1
@<TRIPOS>SUBSTRUCTURE
       1 MOL1            1 RESIDUE      1      MOL     
@<SCITEGIC>MOL_PROPERTY
VConf Rank
SciTegic.value.IntegerValue
956

@<SCITEGIC>MOL_PROPERTY
Conf_Id
SciTegic.value.IntegerValue
50

@<SCITEGIC>MOL_PROPERTY
Delta U+W
SciTegic.value.DoubleValue
0.466

@<SCITEGIC>MOL_PROPERTY
U+W
SciTegic.value.DoubleValue
-35.811

@<SCITEGIC>MOL_PROPERTY
Grad RMS
SciTegic.value.DoubleValue
0.000000

@<SCITEGIC>MOL_PROPERTY
U
SciTegic.value.DoubleValue
22.369

@<SCITEGIC>MOL_PROPERTY
W
SciTegic.value.DoubleValue
-58.180

@<SCITEGIC>MOL_PROPERTY
W(PB)
SciTegic.value.DoubleValue
-60.103

@<SCITEGIC>MOL_PROPERTY
W(SA)
SciTegic.value.DoubleValue
1.923

@<SCITEGIC>MOL_PROPERTY
Valence
SciTegic.value.DoubleValue
2.168

@<SCITEGIC>MOL_PROPERTY
Coulomb
SciTegic.value.DoubleValue
19.636

@<SCITEGIC>MOL_PROPERTY
VdW
SciTegic.value.DoubleValue
0.566

@<SCITEGIC>MOL_PROPERTY
VdW6
SciTegic.value.DoubleValue
-5.263

@<SCITEGIC>MOL_PROPERTY
VdW12
SciTegic.value.DoubleValue
5.829

@<SCITEGIC>MOL_PROPERTY
Bond
SciTegic.value.DoubleValue
0.162

@<SCITEGIC>MOL_PROPERTY
Angle
SciTegic.value.DoubleValue
1.066

@<SCITEGIC>MOL_PROPERTY
Pdih
SciTegic.value.DoubleValue
0.939

@<SCITEGIC>MOL_PROPERTY
Idih
SciTegic.value.DoubleValue
0.000

@<SCITEGIC>MOL_PROPERTY
Tether
SciTegic.value.DoubleValue
0.000

@<TRIPOS>MOLECULE
guest-s10_confgen4.mol2 : confsearch ligand conformer 957
          20          19           1
SMALL
USER_CHARGES
 
@<TRIPOS>ATOM
       1    N1      18.635606   20.916831   22.415733 N.4        1 MOL1        -0.5937
       2    H1      19.103531   21.317980   21.598345 H          1 MOL1         0.3684
       3    H2      18.861102   21.508095   23.219742 H          1 MOL1         0.3684
       4    H3      17.627661   20.993617   22.254839 H          1 MOL1         0.3684
       5    C1      19.049174   19.488462   22.646609 C.3        1 MOL1         0.1270
       6    H4      18.772758   18.940943   21.740199 H          1 MOL1         0.0960
       7    C2      18.268460   18.899722   23.836498 C.3        1 MOL1        -0.2382
       8    H5      18.480824   19.451770   24.760516 H          1 MOL1         0.1009
       9    H6      18.525271   17.848549   24.006421 H          1 MOL1         0.1009
      10    H7      17.188286   18.950155   23.652626 H          1 MOL1         0.1009
      11    C3      20.579432   19.354121   22.842812 C.3        1 MOL1        -0.1392
      12    H8      21.070294   20.264691   22.474587 H          1 MOL1         0.0998
      13    H9      20.825667   19.297427   23.911534 H          1 MOL1         0.0998
      14    C4      21.206052   18.154863   22.087227 C.3        1 MOL1        -0.1302
      15    H10     22.296451   18.186929   22.221143 H          1 MOL1         0.0998
      16    H11     21.027917   18.266794   21.008422 H          1 MOL1         0.0998
      17    C5      20.688964   16.775236   22.551430 C.3        1 MOL1        -0.2317
      18    H12     20.813815   16.649107   23.634727 H          1 MOL1         0.1009
      19    H13     21.245838   15.970182   22.054618 H          1 MOL1         0.1009
      20    H14     19.628575   16.640571   22.304303 H          1 MOL1         0.1009
@<TRIPOS>BOND
    1     1     2    1
    2     1     3    1
    3     1     4    1
    4     1     5    1
    5     5     6    1
    6     5     7    1
    7     7     8    1
    8     7     9    1
    9     7    10    1
   10     5    11    1
   11    11    12    1
   12    11    13    1
   13    11    14    1
   14    14    15    1
   15    14    16    1
   16    14    17    1
   17    17    18    1
   18    17    19    1
   19    17    20    1
@<TRIPOS>SUBSTRUCTURE
       1 MOL1            1 RESIDUE      1      MOL     
@<SCITEGIC>MOL_PROPERTY
VConf Rank
SciTegic.value.IntegerValue
957

@<SCITEGIC>MOL_PROPERTY
Conf_Id
SciTegic.value.IntegerValue
3

@<SCITEGIC>MOL_PROPERTY
Delta U+W
SciTegic.value.DoubleValue
3.093

@<SCITEGIC>MOL_PROPERTY
U+W
SciTegic.value.DoubleValue
-33.184

@<SCITEGIC>MOL_PROPERTY
Grad RMS
SciTegic.value.DoubleValue
0.000000

@<SCITEGIC>MOL_PROPERTY
U
SciTegic.value.DoubleValue
25.256

@<SCITEGIC>MOL_PROPERTY
W
SciTegic.value.DoubleValue
-58.439

@<SCITEGIC>MOL_PROPERTY
W(PB)
SciTegic.value.DoubleValue
-60.337

@<SCITEGIC>MOL_PROPERTY
W(SA)
SciTegic.value.DoubleValue
1.898

@<SCITEGIC>MOL_PROPERTY
Valence
SciTegic.value.DoubleValue
4.963

@<SCITEGIC>MOL_PROPERTY
Coulomb
SciTegic.value.DoubleValue
19.511

@<SCITEGIC>MOL_PROPERTY
VdW
SciTegic.value.DoubleValue
0.782

@<SCITEGIC>MOL_PROPERTY
VdW6
SciTegic.value.DoubleValue
-5.429

@<SCITEGIC>MOL_PROPERTY
VdW12
SciTegic.value.DoubleValue
6.211

@<SCITEGIC>MOL_PROPERTY
Bond
SciTegic.value.DoubleValue
0.174

@<SCITEGIC>MOL_PROPERTY
Angle
SciTegic.value.DoubleValue
1.377

@<SCITEGIC>MOL_PROPERTY
Pdih
SciTegic.value.DoubleValue
3.412

@<SCITEGIC>MOL_PROPERTY
Idih
SciTegic.value.DoubleValue
0.000

@<SCITEGIC>MOL_PROPERTY
Tether
SciTegic.value.DoubleValue
0.000

@<TRIPOS>MOLECULE
guest-s10_confgen4.mol2 : confsearch ligand conformer 958
          20          19           1
SMALL
USER_CHARGES
 
@<TRIPOS>ATOM
       1    N1      20.230142   16.789403   22.237060 N.4        1 MOL1        -0.5937
       2    H1      20.743317   16.173323   22.873246 H          1 MOL1         0.3684
       3    H2      20.798059   16.891671   21.391577 H          1 MOL1         0.3684
       4    H3      19.369979   16.303396   21.971352 H          1 MOL1         0.3684
       5    C1      19.938566   18.120159   22.874598 C.3        1 MOL1         0.1270
       6    H4      20.908891   18.558981   23.125599 H          1 MOL1         0.0960
       7    C2      19.140982   17.926644   24.177101 C.3        1 MOL1        -0.2382
       8    H5      19.040358   18.870264   24.725728 H          1 MOL1         0.1009
       9    H6      19.650968   17.218137   24.841229 H          1 MOL1         0.1009
      10    H7      18.135407   17.538471   23.973068 H          1 MOL1         0.1009
      11    C3      19.217285   19.068213   21.886987 C.3        1 MOL1        -0.1392
      12    H8      19.790462   19.102797   20.951146 H          1 MOL1         0.0998
      13    H9      18.237236   18.646031   21.628142 H          1 MOL1         0.0998
      14    C4      19.024895   20.520220   22.394694 C.3        1 MOL1        -0.1302
      15    H10     18.343872   20.536204   23.256219 H          1 MOL1         0.0998
      16    H11     18.527280   21.104841   21.608287 H          1 MOL1         0.0998
      17    C5      20.355399   21.213037   22.767406 C.3        1 MOL1        -0.2317
      18    H12     21.054567   21.206835   21.921071 H          1 MOL1         0.1009
      19    H13     20.841992   20.720375   23.618626 H          1 MOL1         0.1009
      20    H14     20.178652   22.259463   23.048066 H          1 MOL1         0.1009
@<TRIPOS>BOND
    1     1     2    1
    2     1     3    1
    3     1     4    1
    4     1     5    1
    5     5     6    1
    6     5     7    1
    7     7     8    1
    8     7     9    1
    9     7    10    1
   10     5    11    1
   11    11    12    1
   12    11    13    1
   13    11    14    1
   14    14    15    1
   15    14    16    1
   16    14    17    1
   17    17    18    1
   18    17    19    1
   19    17    20    1
@<TRIPOS>SUBSTRUCTURE
       1 MOL1            1 RESIDUE      1      MOL     
@<SCITEGIC>MOL_PROPERTY
VConf Rank
SciTegic.value.IntegerValue
958

@<SCITEGIC>MOL_PROPERTY
Conf_Id
SciTegic.value.IntegerValue
64

@<SCITEGIC>MOL_PROPERTY
Delta U+W
SciTegic.value.DoubleValue
0.544

@<SCITEGIC>MOL_PROPERTY
U+W
SciTegic.value.DoubleValue
-35.732

@<SCITEGIC>MOL_PROPERTY
Grad RMS
SciTegic.value.DoubleValue
0.000000

@<SCITEGIC>MOL_PROPERTY
U
SciTegic.value.DoubleValue
22.800

@<SCITEGIC>MOL_PROPERTY
W
SciTegic.value.DoubleValue
-58.532

@<SCITEGIC>MOL_PROPERTY
W(PB)
SciTegic.value.DoubleValue
-60.437

@<SCITEGIC>MOL_PROPERTY
W(SA)
SciTegic.value.DoubleValue
1.905

@<SCITEGIC>MOL_PROPERTY
Valence
SciTegic.value.DoubleValue
2.662

@<SCITEGIC>MOL_PROPERTY
Coulomb
SciTegic.value.DoubleValue
19.485

@<SCITEGIC>MOL_PROPERTY
VdW
SciTegic.value.DoubleValue
0.653

@<SCITEGIC>MOL_PROPERTY
VdW6
SciTegic.value.DoubleValue
-5.460

@<SCITEGIC>MOL_PROPERTY
VdW12
SciTegic.value.DoubleValue
6.113

@<SCITEGIC>MOL_PROPERTY
Bond
SciTegic.value.DoubleValue
0.174

@<SCITEGIC>MOL_PROPERTY
Angle
SciTegic.value.DoubleValue
1.378

@<SCITEGIC>MOL_PROPERTY
Pdih
SciTegic.value.DoubleValue
1.109

@<SCITEGIC>MOL_PROPERTY
Idih
SciTegic.value.DoubleValue
0.000

@<SCITEGIC>MOL_PROPERTY
Tether
SciTegic.value.DoubleValue
0.000

@<TRIPOS>MOLECULE
guest-s10_confgen4.mol2 : confsearch ligand conformer 959
          20          19           1
SMALL
USER_CHARGES
 
@<TRIPOS>ATOM
       1    N1      20.262804   20.788793   21.837791 N.4        1 MOL1        -0.5937
       2    H1      20.891705   20.761643   22.643409 H          1 MOL1         0.3684
       3    H2      19.809246   21.706338   21.834922 H          1 MOL1         0.3684
       4    H3      20.840743   20.733342   20.994837 H          1 MOL1         0.3684
       5    C1      19.251767   19.675291   21.890229 C.3        1 MOL1         0.1270
       6    H4      18.625973   19.797268   21.000584 H          1 MOL1         0.0960
       7    C2      18.338015   19.821970   23.117936 C.3        1 MOL1        -0.2382
       8    H5      18.916678   19.844858   24.048707 H          1 MOL1         0.1009
       9    H6      17.620462   18.994030   23.172445 H          1 MOL1         0.1009
      10    H7      17.764907   20.755279   23.059178 H          1 MOL1         0.1009
      11    C3      19.910142   18.276159   21.790672 C.3        1 MOL1        -0.1392
      12    H8      19.129986   17.515201   21.657263 H          1 MOL1         0.0998
      13    H9      20.495207   18.254479   20.861850 H          1 MOL1         0.0998
      14    C4      20.845181   17.871884   22.964337 C.3        1 MOL1        -0.1302
      15    H10     21.333968   18.754269   23.397769 H          1 MOL1         0.0998
      16    H11     21.655982   17.248576   22.561756 H          1 MOL1         0.0998
      17    C5      20.131967   17.060667   24.071585 C.3        1 MOL1        -0.2317
      18    H12     19.333937   17.634105   24.555624 H          1 MOL1         0.1009
      19    H13     20.846387   16.765989   24.851159 H          1 MOL1         0.1009
      20    H14     19.689560   16.142801   23.663124 H          1 MOL1         0.1009
@<TRIPOS>BOND
    1     1     2    1
    2     1     3    1
    3     1     4    1
    4     1     5    1
    5     5     6    1
    6     5     7    1
    7     7     8    1
    8     7     9    1
    9     7    10    1
   10     5    11    1
   11    11    12    1
   12    11    13    1
   13    11    14    1
   14    14    15    1
   15    14    16    1
   16    14    17    1
   17    17    18    1
   18    17    19    1
   19    17    20    1
@<TRIPOS>SUBSTRUCTURE
       1 MOL1            1 RESIDUE      1      MOL     
@<SCITEGIC>MOL_PROPERTY
VConf Rank
SciTegic.value.IntegerValue
959

@<SCITEGIC>MOL_PROPERTY
Conf_Id
SciTegic.value.IntegerValue
35

@<SCITEGIC>MOL_PROPERTY
Delta U+W
SciTegic.value.DoubleValue
3.004

@<SCITEGIC>MOL_PROPERTY
U+W
SciTegic.value.DoubleValue
-33.272

@<SCITEGIC>MOL_PROPERTY
Grad RMS
SciTegic.value.DoubleValue
0.000000

@<SCITEGIC>MOL_PROPERTY
U
SciTegic.value.DoubleValue
25.367

@<SCITEGIC>MOL_PROPERTY
W
SciTegic.value.DoubleValue
-58.639

@<SCITEGIC>MOL_PROPERTY
W(PB)
SciTegic.value.DoubleValue
-60.512

@<SCITEGIC>MOL_PROPERTY
W(SA)
SciTegic.value.DoubleValue
1.873

@<SCITEGIC>MOL_PROPERTY
Valence
SciTegic.value.DoubleValue
4.943

@<SCITEGIC>MOL_PROPERTY
Coulomb
SciTegic.value.DoubleValue
19.661

@<SCITEGIC>MOL_PROPERTY
VdW
SciTegic.value.DoubleValue
0.764

@<SCITEGIC>MOL_PROPERTY
VdW6
SciTegic.value.DoubleValue
-5.871

@<SCITEGIC>MOL_PROPERTY
VdW12
SciTegic.value.DoubleValue
6.636

@<SCITEGIC>MOL_PROPERTY
Bond
SciTegic.value.DoubleValue
0.230

@<SCITEGIC>MOL_PROPERTY
Angle
SciTegic.value.DoubleValue
1.857

@<SCITEGIC>MOL_PROPERTY
Pdih
SciTegic.value.DoubleValue
2.855

@<SCITEGIC>MOL_PROPERTY
Idih
SciTegic.value.DoubleValue
0.000

@<SCITEGIC>MOL_PROPERTY
Tether
SciTegic.value.DoubleValue
0.000

@<TRIPOS>MOLECULE
guest-s10_confgen4.mol2 : confsearch ligand conformer 960
          20          19           1
SMALL
USER_CHARGES
 
@<TRIPOS>ATOM
       1    N1      19.454490   19.239837   24.424733 N.4        1 MOL1        -0.5937
       2    H1      18.705482   19.632049   25.001586 H          1 MOL1         0.3684
       3    H2      20.297410   19.202547   25.004109 H          1 MOL1         0.3684
       4    H3      19.197904   18.277704   24.195692 H          1 MOL1         0.3684
       5    C1      19.677161   20.054872   23.180306 C.3        1 MOL1         0.1270
       6    H4      19.969053   21.048704   23.533892 H          1 MOL1         0.0960
       7    C2      18.375282   20.218941   22.376127 C.3        1 MOL1        -0.2382
       8    H5      17.966963   19.250179   22.064566 H          1 MOL1         0.1009
       9    H6      18.546679   20.825352   21.478181 H          1 MOL1         0.1009
      10    H7      17.612404   20.726108   22.979257 H          1 MOL1         0.1009
      11    C3      20.846746   19.527419   22.310147 C.3        1 MOL1        -0.1392
      12    H8      21.136841   20.331303   21.620829 H          1 MOL1         0.0998
      13    H9      21.722334   19.365099   22.952187 H          1 MOL1         0.0998
      14    C4      20.586649   18.248630   21.465373 C.3        1 MOL1        -0.1302
      15    H10     21.492386   18.039446   20.879108 H          1 MOL1         0.0998
      16    H11     19.794684   18.434260   20.727157 H          1 MOL1         0.0998
      17    C5      20.242247   16.988484   22.291415 C.3        1 MOL1        -0.2317
      18    H12     20.973046   16.826556   23.094442 H          1 MOL1         0.1009
      19    H13     20.252211   16.098629   21.648586 H          1 MOL1         0.1009
      20    H14     19.240638   17.055425   22.731375 H          1 MOL1         0.1009
@<TRIPOS>BOND
    1     1     2    1
    2     1     3    1
    3     1     4    1
    4     1     5    1
    5     5     6    1
    6     5     7    1
    7     7     8    1
    8     7     9    1
    9     7    10    1
   10     5    11    1
   11    11    12    1
   12    11    13    1
   13    11    14    1
   14    14    15    1
   15    14    16    1
   16    14    17    1
   17    17    18    1
   18    17    19    1
   19    17    20    1
@<TRIPOS>SUBSTRUCTURE
       1 MOL1            1 RESIDUE      1      MOL     
@<SCITEGIC>MOL_PROPERTY
VConf Rank
SciTegic.value.IntegerValue
960

@<SCITEGIC>MOL_PROPERTY
Conf_Id
SciTegic.value.IntegerValue
55

@<SCITEGIC>MOL_PROPERTY
Delta U+W
SciTegic.value.DoubleValue
2.767

@<SCITEGIC>MOL_PROPERTY
U+W
SciTegic.value.DoubleValue
-33.509

@<SCITEGIC>MOL_PROPERTY
Grad RMS
SciTegic.value.DoubleValue
0.000000

@<SCITEGIC>MOL_PROPERTY
U
SciTegic.value.DoubleValue
24.552

@<SCITEGIC>MOL_PROPERTY
W
SciTegic.value.DoubleValue
-58.061

@<SCITEGIC>MOL_PROPERTY
W(PB)
SciTegic.value.DoubleValue
-59.930

@<SCITEGIC>MOL_PROPERTY
W(SA)
SciTegic.value.DoubleValue
1.869

@<SCITEGIC>MOL_PROPERTY
Valence
SciTegic.value.DoubleValue
3.726

@<SCITEGIC>MOL_PROPERTY
Coulomb
SciTegic.value.DoubleValue
20.219

@<SCITEGIC>MOL_PROPERTY
VdW
SciTegic.value.DoubleValue
0.606

@<SCITEGIC>MOL_PROPERTY
VdW6
SciTegic.value.DoubleValue
-6.395

@<SCITEGIC>MOL_PROPERTY
VdW12
SciTegic.value.DoubleValue
7.001

@<SCITEGIC>MOL_PROPERTY
Bond
SciTegic.value.DoubleValue
0.241

@<SCITEGIC>MOL_PROPERTY
Angle
SciTegic.value.DoubleValue
2.098

@<SCITEGIC>MOL_PROPERTY
Pdih
SciTegic.value.DoubleValue
1.387

@<SCITEGIC>MOL_PROPERTY
Idih
SciTegic.value.DoubleValue
0.000

@<SCITEGIC>MOL_PROPERTY
Tether
SciTegic.value.DoubleValue
0.000

@<TRIPOS>MOLECULE
guest-s10_confgen4.mol2 : confsearch ligand conformer 961
          20          19           1
SMALL
USER_CHARGES
 
@<TRIPOS>ATOM
       1    N1      18.802577   20.667208   22.458454 N.4        1 MOL1        -0.5937
       2    H1      18.807373   20.668513   21.435458 H          1 MOL1         0.3684
       3    H2      18.722870   21.640681   22.764482 H          1 MOL1         0.3684
       4    H3      17.953762   20.183196   22.761482 H          1 MOL1         0.3684
       5    C1      20.039237   20.014421   23.014874 C.3        1 MOL1         0.1270
       6    H4      19.951520   20.051743   24.105195 H          1 MOL1         0.0960
       7    C2      21.295542   20.800934   22.606138 C.3        1 MOL1        -0.2382
       8    H5      21.225549   21.844333   22.937323 H          1 MOL1         0.1009
       9    H6      21.430601   20.796315   21.517318 H          1 MOL1         0.1009
      10    H7      22.193451   20.367009   23.063421 H          1 MOL1         0.1009
      11    C3      20.170888   18.534667   22.591619 C.3        1 MOL1        -0.1392
      12    H8      20.236930   18.467437   21.497528 H          1 MOL1         0.0998
      13    H9      21.114659   18.135858   22.986986 H          1 MOL1         0.0998
      14    C4      19.004933   17.653104   23.100456 C.3        1 MOL1        -0.1302
      15    H10     18.053613   17.997776   22.673118 H          1 MOL1         0.0998
      16    H11     18.917044   17.749192   24.191916 H          1 MOL1         0.0998
      17    C5      19.211135   16.167853   22.733286 C.3        1 MOL1        -0.2317
      18    H12     19.272463   16.034818   21.645262 H          1 MOL1         0.1009
      19    H13     18.375275   15.558096   23.100192 H          1 MOL1         0.1009
      20    H14     20.134584   15.774772   23.178214 H          1 MOL1         0.1009
@<TRIPOS>BOND
    1     1     2    1
    2     1     3    1
    3     1     4    1
    4     1     5    1
    5     5     6    1
    6     5     7    1
    7     7     8    1
    8     7     9    1
    9     7    10    1
   10     5    11    1
   11    11    12    1
   12    11    13    1
   13    11    14    1
   14    14    15    1
   15    14    16    1
   16    14    17    1
   17    17    18    1
   18    17    19    1
   19    17    20    1
@<TRIPOS>SUBSTRUCTURE
       1 MOL1            1 RESIDUE      1      MOL     
@<SCITEGIC>MOL_PROPERTY
VConf Rank
SciTegic.value.IntegerValue
961

@<SCITEGIC>MOL_PROPERTY
Conf_Id
SciTegic.value.IntegerValue
74

@<SCITEGIC>MOL_PROPERTY
Delta U+W
SciTegic.value.DoubleValue
0.000

@<SCITEGIC>MOL_PROPERTY
U+W
SciTegic.value.DoubleValue
-36.276

@<SCITEGIC>MOL_PROPERTY
Grad RMS
SciTegic.value.DoubleValue
0.000000

@<SCITEGIC>MOL_PROPERTY
U
SciTegic.value.DoubleValue
22.080

@<SCITEGIC>MOL_PROPERTY
W
SciTegic.value.DoubleValue
-58.356

@<SCITEGIC>MOL_PROPERTY
W(PB)
SciTegic.value.DoubleValue
-60.289

@<SCITEGIC>MOL_PROPERTY
W(SA)
SciTegic.value.DoubleValue
1.932

@<SCITEGIC>MOL_PROPERTY
Valence
SciTegic.value.DoubleValue
1.885

@<SCITEGIC>MOL_PROPERTY
Coulomb
SciTegic.value.DoubleValue
19.559

@<SCITEGIC>MOL_PROPERTY
VdW
SciTegic.value.DoubleValue
0.637

@<SCITEGIC>MOL_PROPERTY
VdW6
SciTegic.value.DoubleValue
-4.482

@<SCITEGIC>MOL_PROPERTY
VdW12
SciTegic.value.DoubleValue
5.119

@<SCITEGIC>MOL_PROPERTY
Bond
SciTegic.value.DoubleValue
0.136

@<SCITEGIC>MOL_PROPERTY
Angle
SciTegic.value.DoubleValue
0.867

@<SCITEGIC>MOL_PROPERTY
Pdih
SciTegic.value.DoubleValue
0.882

@<SCITEGIC>MOL_PROPERTY
Idih
SciTegic.value.DoubleValue
0.000

@<SCITEGIC>MOL_PROPERTY
Tether
SciTegic.value.DoubleValue
0.000

@<TRIPOS>MOLECULE
guest-s10_confgen4.mol2 : confsearch ligand conformer 962
          20          19           1
SMALL
USER_CHARGES
 
@<TRIPOS>ATOM
       1    N1      20.282933   19.605021   24.950338 N.4        1 MOL1        -0.5937
       2    H1      19.834160   20.523310   25.006950 H          1 MOL1         0.3684
       3    H2      21.284644   19.761538   24.813206 H          1 MOL1         0.3684
       4    H3      20.167442   19.155630   25.862692 H          1 MOL1         0.3684
       5    C1      19.698045   18.767833   23.846033 C.3        1 MOL1         0.1270
       6    H4      18.634588   18.652089   24.077396 H          1 MOL1         0.0960
       7    C2      20.347456   17.371803   23.833243 C.3        1 MOL1        -0.2382
       8    H5      20.291822   16.910720   24.826988 H          1 MOL1         0.1009
       9    H6      21.404059   17.427862   23.543367 H          1 MOL1         0.1009
      10    H7      19.834779   16.699275   23.136040 H          1 MOL1         0.1009
      11    C3      19.820629   19.480416   22.479034 C.3        1 MOL1        -0.1392
      12    H8      19.438569   20.504306   22.585541 H          1 MOL1         0.0998
      13    H9      20.879602   19.571326   22.203062 H          1 MOL1         0.0998
      14    C4      19.042133   18.781836   21.337503 C.3        1 MOL1        -0.1302
      15    H10     17.995581   18.633866   21.639005 H          1 MOL1         0.0998
      16    H11     19.461860   17.785744   21.143775 H          1 MOL1         0.0998
      17    C5      19.086780   19.603818   20.031351 C.3        1 MOL1        -0.2317
      18    H12     18.635482   20.594736   20.171534 H          1 MOL1         0.1009
      19    H13     18.533725   19.092773   19.232570 H          1 MOL1         0.1009
      20    H14     20.120169   19.744336   19.688392 H          1 MOL1         0.1009
@<TRIPOS>BOND
    1     1     2    1
    2     1     3    1
    3     1     4    1
    4     1     5    1
    5     5     6    1
    6     5     7    1
    7     7     8    1
    8     7     9    1
    9     7    10    1
   10     5    11    1
   11    11    12    1
   12    11    13    1
   13    11    14    1
   14    14    15    1
   15    14    16    1
   16    14    17    1
   17    17    18    1
   18    17    19    1
   19    17    20    1
@<TRIPOS>SUBSTRUCTURE
       1 MOL1            1 RESIDUE      1      MOL     
@<SCITEGIC>MOL_PROPERTY
VConf Rank
SciTegic.value.IntegerValue
962

@<SCITEGIC>MOL_PROPERTY
Conf_Id
SciTegic.value.IntegerValue
80

@<SCITEGIC>MOL_PROPERTY
Delta U+W
SciTegic.value.DoubleValue
0.460

@<SCITEGIC>MOL_PROPERTY
U+W
SciTegic.value.DoubleValue
-35.817

@<SCITEGIC>MOL_PROPERTY
Grad RMS
SciTegic.value.DoubleValue
0.000000

@<SCITEGIC>MOL_PROPERTY
U
SciTegic.value.DoubleValue
22.495

@<SCITEGIC>MOL_PROPERTY
W
SciTegic.value.DoubleValue
-58.311

@<SCITEGIC>MOL_PROPERTY
W(PB)
SciTegic.value.DoubleValue
-60.259

@<SCITEGIC>MOL_PROPERTY
W(SA)
SciTegic.value.DoubleValue
1.948

@<SCITEGIC>MOL_PROPERTY
Valence
SciTegic.value.DoubleValue
2.419

@<SCITEGIC>MOL_PROPERTY
Coulomb
SciTegic.value.DoubleValue
19.304

@<SCITEGIC>MOL_PROPERTY
VdW
SciTegic.value.DoubleValue
0.772

@<SCITEGIC>MOL_PROPERTY
VdW6
SciTegic.value.DoubleValue
-4.635

@<SCITEGIC>MOL_PROPERTY
VdW12
SciTegic.value.DoubleValue
5.407

@<SCITEGIC>MOL_PROPERTY
Bond
SciTegic.value.DoubleValue
0.149

@<SCITEGIC>MOL_PROPERTY
Angle
SciTegic.value.DoubleValue
1.142

@<SCITEGIC>MOL_PROPERTY
Pdih
SciTegic.value.DoubleValue
1.129

@<SCITEGIC>MOL_PROPERTY
Idih
SciTegic.value.DoubleValue
0.000

@<SCITEGIC>MOL_PROPERTY
Tether
SciTegic.value.DoubleValue
0.000

@<TRIPOS>MOLECULE
guest-s10_confgen4.mol2 : confsearch ligand conformer 963
          20          19           1
SMALL
USER_CHARGES
 
@<TRIPOS>ATOM
       1    N1      18.197853   17.154839   23.321734 N.4        1 MOL1        -0.5937
       2    H1      17.718386   17.373576   24.199274 H          1 MOL1         0.3684
       3    H2      18.916926   16.457779   23.530857 H          1 MOL1         0.3684
       4    H3      17.512460   16.709358   22.705780 H          1 MOL1         0.3684
       5    C1      18.788855   18.385143   22.689424 C.3        1 MOL1         0.1270
       6    H4      17.951563   19.063583   22.498479 H          1 MOL1         0.0960
       7    C2      19.435024   18.031545   21.338983 C.3        1 MOL1        -0.2382
       8    H5      18.739702   17.456242   20.715528 H          1 MOL1         0.1009
       9    H6      20.344110   17.433238   21.476989 H          1 MOL1         0.1009
      10    H7      19.694414   18.937070   20.778849 H          1 MOL1         0.1009
      11    C3      19.768209   19.092003   23.658212 C.3        1 MOL1        -0.1392
      12    H8      19.230473   19.268676   24.599126 H          1 MOL1         0.0998
      13    H9      20.600678   18.422320   23.911688 H          1 MOL1         0.0998
      14    C4      20.310574   20.458086   23.160919 C.3        1 MOL1        -0.1302
      15    H10     20.395465   21.135740   24.022137 H          1 MOL1         0.0998
      16    H11     19.590374   20.929327   22.477392 H          1 MOL1         0.0998
      17    C5      21.702793   20.360921   22.493597 C.3        1 MOL1        -0.2317
      18    H12     22.446544   19.960982   23.195024 H          1 MOL1         0.1009
      19    H13     22.046464   21.353865   22.175891 H          1 MOL1         0.1009
      20    H14     21.692968   19.714765   21.608765 H          1 MOL1         0.1009
@<TRIPOS>BOND
    1     1     2    1
    2     1     3    1
    3     1     4    1
    4     1     5    1
    5     5     6    1
    6     5     7    1
    7     7     8    1
    8     7     9    1
    9     7    10    1
   10     5    11    1
   11    11    12    1
   12    11    13    1
   13    11    14    1
   14    14    15    1
   15    14    16    1
   16    14    17    1
   17    17    18    1
   18    17    19    1
   19    17    20    1
@<TRIPOS>SUBSTRUCTURE
       1 MOL1            1 RESIDUE      1      MOL     
@<SCITEGIC>MOL_PROPERTY
VConf Rank
SciTegic.value.IntegerValue
963

@<SCITEGIC>MOL_PROPERTY
Conf_Id
SciTegic.value.IntegerValue
52

@<SCITEGIC>MOL_PROPERTY
Delta U+W
SciTegic.value.DoubleValue
2.995

@<SCITEGIC>MOL_PROPERTY
U+W
SciTegic.value.DoubleValue
-33.282

@<SCITEGIC>MOL_PROPERTY
Grad RMS
SciTegic.value.DoubleValue
0.000000

@<SCITEGIC>MOL_PROPERTY
U
SciTegic.value.DoubleValue
25.224

@<SCITEGIC>MOL_PROPERTY
W
SciTegic.value.DoubleValue
-58.506

@<SCITEGIC>MOL_PROPERTY
W(PB)
SciTegic.value.DoubleValue
-60.411

@<SCITEGIC>MOL_PROPERTY
W(SA)
SciTegic.value.DoubleValue
1.905

@<SCITEGIC>MOL_PROPERTY
Valence
SciTegic.value.DoubleValue
4.945

@<SCITEGIC>MOL_PROPERTY
Coulomb
SciTegic.value.DoubleValue
19.467

@<SCITEGIC>MOL_PROPERTY
VdW
SciTegic.value.DoubleValue
0.813

@<SCITEGIC>MOL_PROPERTY
VdW6
SciTegic.value.DoubleValue
-5.458

@<SCITEGIC>MOL_PROPERTY
VdW12
SciTegic.value.DoubleValue
6.270

@<SCITEGIC>MOL_PROPERTY
Bond
SciTegic.value.DoubleValue
0.200

@<SCITEGIC>MOL_PROPERTY
Angle
SciTegic.value.DoubleValue
1.675

@<SCITEGIC>MOL_PROPERTY
Pdih
SciTegic.value.DoubleValue
3.070

@<SCITEGIC>MOL_PROPERTY
Idih
SciTegic.value.DoubleValue
0.000

@<SCITEGIC>MOL_PROPERTY
Tether
SciTegic.value.DoubleValue
0.000

@<TRIPOS>MOLECULE
guest-s10_confgen4.mol2 : confsearch ligand conformer 964
          20          19           1
SMALL
USER_CHARGES
 
@<TRIPOS>ATOM
       1    N1      18.389057   18.576079   21.978168 N.4        1 MOL1        -0.5937
       2    H1      18.180416   17.639980   22.333927 H          1 MOL1         0.3684
       3    H2      17.899120   18.680493   21.085583 H          1 MOL1         0.3684
       4    H3      17.985147   19.249197   22.632961 H          1 MOL1         0.3684
       5    C1      19.870623   18.786354   21.823261 C.3        1 MOL1         0.1270
       6    H4      20.011557   19.783979   21.395922 H          1 MOL1         0.0960
       7    C2      20.443291   17.755163   20.836116 C.3        1 MOL1        -0.2382
       8    H5      20.341441   16.734183   21.224813 H          1 MOL1         0.1009
       9    H6      21.507205   17.944173   20.646357 H          1 MOL1         0.1009
      10    H7      19.921533   17.807851   19.872619 H          1 MOL1         0.1009
      11    C3      20.629498   18.722955   23.170230 C.3        1 MOL1        -0.1392
      12    H8      20.306377   17.842378   23.740977 H          1 MOL1         0.0998
      13    H9      21.697279   18.570695   22.963483 H          1 MOL1         0.0998
      14    C4      20.510818   19.999165   24.044192 C.3        1 MOL1        -0.1302
      15    H10     20.880346   20.868436   23.482185 H          1 MOL1         0.0998
      16    H11     21.184303   19.887746   24.905604 H          1 MOL1         0.0998
      17    C5      19.088800   20.293800   24.573589 C.3        1 MOL1        -0.2317
      18    H12     19.124518   21.082475   25.336481 H          1 MOL1         0.1009
      19    H13     18.642483   19.404076   25.036740 H          1 MOL1         0.1009
      20    H14     18.426579   20.651092   23.776567 H          1 MOL1         0.1009
@<TRIPOS>BOND
    1     1     2    1
    2     1     3    1
    3     1     4    1
    4     1     5    1
    5     5     6    1
    6     5     7    1
    7     7     8    1
    8     7     9    1
    9     7    10    1
   10     5    11    1
   11    11    12    1
   12    11    13    1
   13    11    14    1
   14    14    15    1
   15    14    16    1
   16    14    17    1
   17    17    18    1
   18    17    19    1
   19    17    20    1
@<TRIPOS>SUBSTRUCTURE
       1 MOL1            1 RESIDUE      1      MOL     
@<SCITEGIC>MOL_PROPERTY
VConf Rank
SciTegic.value.IntegerValue
964

@<SCITEGIC>MOL_PROPERTY
Conf_Id
SciTegic.value.IntegerValue
54

@<SCITEGIC>MOL_PROPERTY
Delta U+W
SciTegic.value.DoubleValue
2.752

@<SCITEGIC>MOL_PROPERTY
U+W
SciTegic.value.DoubleValue
-33.525

@<SCITEGIC>MOL_PROPERTY
Grad RMS
SciTegic.value.DoubleValue
0.000000

@<SCITEGIC>MOL_PROPERTY
U
SciTegic.value.DoubleValue
24.337

@<SCITEGIC>MOL_PROPERTY
W
SciTegic.value.DoubleValue
-57.862

@<SCITEGIC>MOL_PROPERTY
W(PB)
SciTegic.value.DoubleValue
-59.764

@<SCITEGIC>MOL_PROPERTY
W(SA)
SciTegic.value.DoubleValue
1.901

@<SCITEGIC>MOL_PROPERTY
Valence
SciTegic.value.DoubleValue
3.593

@<SCITEGIC>MOL_PROPERTY
Coulomb
SciTegic.value.DoubleValue
20.067

@<SCITEGIC>MOL_PROPERTY
VdW
SciTegic.value.DoubleValue
0.677

@<SCITEGIC>MOL_PROPERTY
VdW6
SciTegic.value.DoubleValue
-5.466

@<SCITEGIC>MOL_PROPERTY
VdW12
SciTegic.value.DoubleValue
6.144

@<SCITEGIC>MOL_PROPERTY
Bond
SciTegic.value.DoubleValue
0.191

@<SCITEGIC>MOL_PROPERTY
Angle
SciTegic.value.DoubleValue
1.557

@<SCITEGIC>MOL_PROPERTY
Pdih
SciTegic.value.DoubleValue
1.845

@<SCITEGIC>MOL_PROPERTY
Idih
SciTegic.value.DoubleValue
0.000

@<SCITEGIC>MOL_PROPERTY
Tether
SciTegic.value.DoubleValue
0.000

@<TRIPOS>MOLECULE
guest-s10_confgen4.mol2 : confsearch ligand conformer 965
          20          19           1
SMALL
USER_CHARGES
 
@<TRIPOS>ATOM
       1    N1      18.868127   20.767019   22.255204 N.4        1 MOL1        -0.5937
       2    H1      19.028620   21.775457   22.184859 H          1 MOL1         0.3684
       3    H2      17.887555   20.633086   22.516452 H          1 MOL1         0.3684
       4    H3      18.993925   20.371946   21.320570 H          1 MOL1         0.3684
       5    C1      19.798103   20.129605   23.251565 C.3        1 MOL1         0.1270
       6    H4      19.602931   20.625172   24.207778 H          1 MOL1         0.0960
       7    C2      21.268840   20.394940   22.883637 C.3        1 MOL1        -0.2382
       8    H5      21.943526   19.927208   23.611303 H          1 MOL1         0.1009
       9    H6      21.475834   21.472084   22.883844 H          1 MOL1         0.1009
      10    H7      21.514784   20.007415   21.887957 H          1 MOL1         0.1009
      11    C3      19.510943   18.621935   23.450367 C.3        1 MOL1        -0.1392
      12    H8      20.159789   18.241631   24.250431 H          1 MOL1         0.0998
      13    H9      18.482565   18.510154   23.818269 H          1 MOL1         0.0998
      14    C4      19.695405   17.747766   22.183028 C.3        1 MOL1        -0.1302
      15    H10     20.733380   17.805661   21.829095 H          1 MOL1         0.0998
      16    H11     19.059540   18.120883   21.369012 H          1 MOL1         0.0998
      17    C5      19.344047   16.269908   22.458367 C.3        1 MOL1        -0.2317
      18    H12     19.481368   15.663626   21.553584 H          1 MOL1         0.1009
      19    H13     18.299071   16.164793   22.778051 H          1 MOL1         0.1009
      20    H14     19.985723   15.851013   23.244498 H          1 MOL1         0.1009
@<TRIPOS>BOND
    1     1     2    1
    2     1     3    1
    3     1     4    1
    4     1     5    1
    5     5     6    1
    6     5     7    1
    7     7     8    1
    8     7     9    1
    9     7    10    1
   10     5    11    1
   11    11    12    1
   12    11    13    1
   13    11    14    1
   14    14    15    1
   15    14    16    1
   16    14    17    1
   17    17    18    1
   18    17    19    1
   19    17    20    1
@<TRIPOS>SUBSTRUCTURE
       1 MOL1            1 RESIDUE      1      MOL     
@<SCITEGIC>MOL_PROPERTY
VConf Rank
SciTegic.value.IntegerValue
965

@<SCITEGIC>MOL_PROPERTY
Conf_Id
SciTegic.value.IntegerValue
63

@<SCITEGIC>MOL_PROPERTY
Delta U+W
SciTegic.value.DoubleValue
0.420

@<SCITEGIC>MOL_PROPERTY
U+W
SciTegic.value.DoubleValue
-35.856

@<SCITEGIC>MOL_PROPERTY
Grad RMS
SciTegic.value.DoubleValue
0.000000

@<SCITEGIC>MOL_PROPERTY
U
SciTegic.value.DoubleValue
22.625

@<SCITEGIC>MOL_PROPERTY
W
SciTegic.value.DoubleValue
-58.481

@<SCITEGIC>MOL_PROPERTY
W(PB)
SciTegic.value.DoubleValue
-60.400

@<SCITEGIC>MOL_PROPERTY
W(SA)
SciTegic.value.DoubleValue
1.919

@<SCITEGIC>MOL_PROPERTY
Valence
SciTegic.value.DoubleValue
2.404

@<SCITEGIC>MOL_PROPERTY
Coulomb
SciTegic.value.DoubleValue
19.464

@<SCITEGIC>MOL_PROPERTY
VdW
SciTegic.value.DoubleValue
0.757

@<SCITEGIC>MOL_PROPERTY
VdW6
SciTegic.value.DoubleValue
-5.074

@<SCITEGIC>MOL_PROPERTY
VdW12
SciTegic.value.DoubleValue
5.830

@<SCITEGIC>MOL_PROPERTY
Bond
SciTegic.value.DoubleValue
0.172

@<SCITEGIC>MOL_PROPERTY
Angle
SciTegic.value.DoubleValue
1.207

@<SCITEGIC>MOL_PROPERTY
Pdih
SciTegic.value.DoubleValue
1.025

@<SCITEGIC>MOL_PROPERTY
Idih
SciTegic.value.DoubleValue
0.000

@<SCITEGIC>MOL_PROPERTY
Tether
SciTegic.value.DoubleValue
0.000

@<TRIPOS>MOLECULE
guest-s10_confgen4.mol2 : confsearch ligand conformer 966
          20          19           1
SMALL
USER_CHARGES
 
@<TRIPOS>ATOM
       1    N1      19.517932   20.706317   23.119780 N.4        1 MOL1        -0.5937
       2    H1      19.416427   20.400549   24.090902 H          1 MOL1         0.3684
       3    H2      18.605935   21.048833   22.807746 H          1 MOL1         0.3684
       4    H3      20.161460   21.502178   23.115509 H          1 MOL1         0.3684
       5    C1      20.016161   19.588817   22.243915 C.3        1 MOL1         0.1270
       6    H4      20.989156   19.286394   22.642599 H          1 MOL1         0.0960
       7    C2      20.222058   20.079753   20.801661 C.3        1 MOL1        -0.2382
       8    H5      20.917609   20.927553   20.775543 H          1 MOL1         0.1009
       9    H6      19.274371   20.401322   20.351953 H          1 MOL1         0.1009
      10    H7      20.644493   19.283954   20.175662 H          1 MOL1         0.1009
      11    C3      19.080240   18.358947   22.265238 C.3        1 MOL1        -0.1392
      12    H8      18.101712   18.638636   21.852819 H          1 MOL1         0.0998
      13    H9      19.486425   17.589324   21.595445 H          1 MOL1         0.0998
      14    C4      18.879084   17.738197   23.670978 C.3        1 MOL1        -0.1302
      15    H10     18.199520   16.878928   23.582931 H          1 MOL1         0.0998
      16    H11     18.375152   18.454334   24.334127 H          1 MOL1         0.0998
      17    C5      20.200486   17.266980   24.319992 C.3        1 MOL1        -0.2317
      18    H12     20.723000   16.549077   23.674411 H          1 MOL1         0.1009
      19    H13     20.002370   16.771394   25.279269 H          1 MOL1         0.1009
      20    H14     20.877765   18.107649   24.516119 H          1 MOL1         0.1009
@<TRIPOS>BOND
    1     1     2    1
    2     1     3    1
    3     1     4    1
    4     1     5    1
    5     5     6    1
    6     5     7    1
    7     7     8    1
    8     7     9    1
    9     7    10    1
   10     5    11    1
   11    11    12    1
   12    11    13    1
   13    11    14    1
   14    14    15    1
   15    14    16    1
   16    14    17    1
   17    17    18    1
   18    17    19    1
   19    17    20    1
@<TRIPOS>SUBSTRUCTURE
       1 MOL1            1 RESIDUE      1      MOL     
@<SCITEGIC>MOL_PROPERTY
VConf Rank
SciTegic.value.IntegerValue
966

@<SCITEGIC>MOL_PROPERTY
Conf_Id
SciTegic.value.IntegerValue
50

@<SCITEGIC>MOL_PROPERTY
Delta U+W
SciTegic.value.DoubleValue
0.466

@<SCITEGIC>MOL_PROPERTY
U+W
SciTegic.value.DoubleValue
-35.811

@<SCITEGIC>MOL_PROPERTY
Grad RMS
SciTegic.value.DoubleValue
0.000000

@<SCITEGIC>MOL_PROPERTY
U
SciTegic.value.DoubleValue
22.369

@<SCITEGIC>MOL_PROPERTY
W
SciTegic.value.DoubleValue
-58.180

@<SCITEGIC>MOL_PROPERTY
W(PB)
SciTegic.value.DoubleValue
-60.103

@<SCITEGIC>MOL_PROPERTY
W(SA)
SciTegic.value.DoubleValue
1.923

@<SCITEGIC>MOL_PROPERTY
Valence
SciTegic.value.DoubleValue
2.168

@<SCITEGIC>MOL_PROPERTY
Coulomb
SciTegic.value.DoubleValue
19.636

@<SCITEGIC>MOL_PROPERTY
VdW
SciTegic.value.DoubleValue
0.566

@<SCITEGIC>MOL_PROPERTY
VdW6
SciTegic.value.DoubleValue
-5.263

@<SCITEGIC>MOL_PROPERTY
VdW12
SciTegic.value.DoubleValue
5.829

@<SCITEGIC>MOL_PROPERTY
Bond
SciTegic.value.DoubleValue
0.162

@<SCITEGIC>MOL_PROPERTY
Angle
SciTegic.value.DoubleValue
1.066

@<SCITEGIC>MOL_PROPERTY
Pdih
SciTegic.value.DoubleValue
0.939

@<SCITEGIC>MOL_PROPERTY
Idih
SciTegic.value.DoubleValue
0.000

@<SCITEGIC>MOL_PROPERTY
Tether
SciTegic.value.DoubleValue
0.000

@<TRIPOS>MOLECULE
guest-s10_confgen4.mol2 : confsearch ligand conformer 967
          20          19           1
SMALL
USER_CHARGES
 
@<TRIPOS>ATOM
       1    N1      19.729989   20.927752   21.667681 N.4        1 MOL1        -0.5937
       2    H1      18.759221   21.086126   21.383912 H          1 MOL1         0.3684
       3    H2      20.281159   20.794500   20.816020 H          1 MOL1         0.3684
       4    H3      20.059429   21.789253   22.111552 H          1 MOL1         0.3684
       5    C1      19.851858   19.748982   22.595166 C.3        1 MOL1         0.1270
       6    H4      19.231411   19.981304   23.466277 H          1 MOL1         0.0960
       7    C2      21.312497   19.591057   23.057289 C.3        1 MOL1        -0.2382
       8    H5      21.978328   19.403346   22.205761 H          1 MOL1         0.1009
       9    H6      21.424688   18.759504   23.761364 H          1 MOL1         0.1009
      10    H7      21.658064   20.500905   23.563144 H          1 MOL1         0.1009
      11    C3      19.310962   18.448478   21.951464 C.3        1 MOL1        -0.1392
      12    H8      18.682435   18.708565   21.089501 H          1 MOL1         0.0998
      13    H9      20.136711   17.849483   21.544824 H          1 MOL1         0.0998
      14    C4      18.448128   17.586744   22.907871 C.3        1 MOL1        -0.1302
      15    H10     18.047256   16.732276   22.344738 H          1 MOL1         0.0998
      16    H11     17.576875   18.168170   23.240951 H          1 MOL1         0.0998
      17    C5      19.211011   17.054845   24.141293 C.3        1 MOL1        -0.2317
      18    H12     20.112552   16.504301   23.842706 H          1 MOL1         0.1009
      19    H13     18.576489   16.369677   24.718326 H          1 MOL1         0.1009
      20    H14     19.506615   17.870777   24.812489 H          1 MOL1         0.1009
@<TRIPOS>BOND
    1     1     2    1
    2     1     3    1
    3     1     4    1
    4     1     5    1
    5     5     6    1
    6     5     7    1
    7     7     8    1
    8     7     9    1
    9     7    10    1
   10     5    11    1
   11    11    12    1
   12    11    13    1
   13    11    14    1
   14    14    15    1
   15    14    16    1
   16    14    17    1
   17    17    18    1
   18    17    19    1
   19    17    20    1
@<TRIPOS>SUBSTRUCTURE
       1 MOL1            1 RESIDUE      1      MOL     
@<SCITEGIC>MOL_PROPERTY
VConf Rank
SciTegic.value.IntegerValue
967

@<SCITEGIC>MOL_PROPERTY
Conf_Id
SciTegic.value.IntegerValue
3

@<SCITEGIC>MOL_PROPERTY
Delta U+W
SciTegic.value.DoubleValue
3.093

@<SCITEGIC>MOL_PROPERTY
U+W
SciTegic.value.DoubleValue
-33.184

@<SCITEGIC>MOL_PROPERTY
Grad RMS
SciTegic.value.DoubleValue
0.000000

@<SCITEGIC>MOL_PROPERTY
U
SciTegic.value.DoubleValue
25.256

@<SCITEGIC>MOL_PROPERTY
W
SciTegic.value.DoubleValue
-58.439

@<SCITEGIC>MOL_PROPERTY
W(PB)
SciTegic.value.DoubleValue
-60.337

@<SCITEGIC>MOL_PROPERTY
W(SA)
SciTegic.value.DoubleValue
1.898

@<SCITEGIC>MOL_PROPERTY
Valence
SciTegic.value.DoubleValue
4.963

@<SCITEGIC>MOL_PROPERTY
Coulomb
SciTegic.value.DoubleValue
19.511

@<SCITEGIC>MOL_PROPERTY
VdW
SciTegic.value.DoubleValue
0.782

@<SCITEGIC>MOL_PROPERTY
VdW6
SciTegic.value.DoubleValue
-5.429

@<SCITEGIC>MOL_PROPERTY
VdW12
SciTegic.value.DoubleValue
6.211

@<SCITEGIC>MOL_PROPERTY
Bond
SciTegic.value.DoubleValue
0.174

@<SCITEGIC>MOL_PROPERTY
Angle
SciTegic.value.DoubleValue
1.377

@<SCITEGIC>MOL_PROPERTY
Pdih
SciTegic.value.DoubleValue
3.412

@<SCITEGIC>MOL_PROPERTY
Idih
SciTegic.value.DoubleValue
0.000

@<SCITEGIC>MOL_PROPERTY
Tether
SciTegic.value.DoubleValue
0.000

@<TRIPOS>MOLECULE
guest-s10_confgen4.mol2 : confsearch ligand conformer 968
          20          19           1
SMALL
USER_CHARGES
 
@<TRIPOS>ATOM
       1    N1      20.504179   19.849651   20.843515 N.4        1 MOL1        -0.5937
       2    H1      20.015256   20.577044   20.314846 H          1 MOL1         0.3684
       3    H2      20.606313   19.041926   20.223049 H          1 MOL1         0.3684
       4    H3      21.443453   20.200806   21.046343 H          1 MOL1         0.3684
       5    C1      19.763866   19.492311   22.103129 C.3        1 MOL1         0.1270
       6    H4      18.778971   19.134220   21.788726 H          1 MOL1         0.0960
       7    C2      19.569258   20.740951   22.982405 C.3        1 MOL1        -0.2382
       8    H5      18.913195   20.528948   23.834562 H          1 MOL1         0.1009
       9    H6      19.102661   21.550052   22.407272 H          1 MOL1         0.1009
      10    H7      20.528091   21.107559   23.369349 H          1 MOL1         0.1009
      11    C3      20.475692   18.349623   22.866015 C.3        1 MOL1        -0.1392
      12    H8      20.657849   17.521596   22.168365 H          1 MOL1         0.0998
      13    H9      21.465222   18.693616   23.195004 H          1 MOL1         0.0998
      14    C4      19.700174   17.795362   24.088500 C.3        1 MOL1        -0.1302
      15    H10     19.615954   18.564667   24.867827 H          1 MOL1         0.0998
      16    H11     20.284650   16.978838   24.535173 H          1 MOL1         0.0998
      17    C5      18.294990   17.264187   23.724547 C.3        1 MOL1        -0.2317
      18    H12     18.353639   16.494550   22.943921 H          1 MOL1         0.1009
      19    H13     17.640353   18.068366   23.365646 H          1 MOL1         0.1009
      20    H14     17.814541   16.814195   24.603009 H          1 MOL1         0.1009
@<TRIPOS>BOND
    1     1     2    1
    2     1     3    1
    3     1     4    1
    4     1     5    1
    5     5     6    1
    6     5     7    1
    7     7     8    1
    8     7     9    1
    9     7    10    1
   10     5    11    1
   11    11    12    1
   12    11    13    1
   13    11    14    1
   14    14    15    1
   15    14    16    1
   16    14    17    1
   17    17    18    1
   18    17    19    1
   19    17    20    1
@<TRIPOS>SUBSTRUCTURE
       1 MOL1            1 RESIDUE      1      MOL     
@<SCITEGIC>MOL_PROPERTY
VConf Rank
SciTegic.value.IntegerValue
968

@<SCITEGIC>MOL_PROPERTY
Conf_Id
SciTegic.value.IntegerValue
64

@<SCITEGIC>MOL_PROPERTY
Delta U+W
SciTegic.value.DoubleValue
0.544

@<SCITEGIC>MOL_PROPERTY
U+W
SciTegic.value.DoubleValue
-35.732

@<SCITEGIC>MOL_PROPERTY
Grad RMS
SciTegic.value.DoubleValue
0.000000

@<SCITEGIC>MOL_PROPERTY
U
SciTegic.value.DoubleValue
22.800

@<SCITEGIC>MOL_PROPERTY
W
SciTegic.value.DoubleValue
-58.532

@<SCITEGIC>MOL_PROPERTY
W(PB)
SciTegic.value.DoubleValue
-60.437

@<SCITEGIC>MOL_PROPERTY
W(SA)
SciTegic.value.DoubleValue
1.905

@<SCITEGIC>MOL_PROPERTY
Valence
SciTegic.value.DoubleValue
2.662

@<SCITEGIC>MOL_PROPERTY
Coulomb
SciTegic.value.DoubleValue
19.485

@<SCITEGIC>MOL_PROPERTY
VdW
SciTegic.value.DoubleValue
0.653

@<SCITEGIC>MOL_PROPERTY
VdW6
SciTegic.value.DoubleValue
-5.460

@<SCITEGIC>MOL_PROPERTY
VdW12
SciTegic.value.DoubleValue
6.113

@<SCITEGIC>MOL_PROPERTY
Bond
SciTegic.value.DoubleValue
0.174

@<SCITEGIC>MOL_PROPERTY
Angle
SciTegic.value.DoubleValue
1.378

@<SCITEGIC>MOL_PROPERTY
Pdih
SciTegic.value.DoubleValue
1.109

@<SCITEGIC>MOL_PROPERTY
Idih
SciTegic.value.DoubleValue
0.000

@<SCITEGIC>MOL_PROPERTY
Tether
SciTegic.value.DoubleValue
0.000

@<TRIPOS>MOLECULE
guest-s10_confgen4.mol2 : confsearch ligand conformer 969
          20          19           1
SMALL
USER_CHARGES
 
@<TRIPOS>ATOM
       1    N1      19.885993   21.029041   22.635787 N.4        1 MOL1        -0.5937
       2    H1      19.404897   20.868262   23.523463 H          1 MOL1         0.3684
       3    H2      19.363704   21.750428   22.131378 H          1 MOL1         0.3684
       4    H3      20.808070   21.417244   22.851965 H          1 MOL1         0.3684
       5    C1      19.993436   19.762568   21.829976 C.3        1 MOL1         0.1270
       6    H4      20.507535   20.039661   20.904295 H          1 MOL1         0.0960
       7    C2      18.600553   19.239494   21.442684 C.3        1 MOL1        -0.2382
       8    H5      17.976101   19.067354   22.327069 H          1 MOL1         0.1009
       9    H6      18.677810   18.300471   20.880896 H          1 MOL1         0.1009
      10    H7      18.082270   19.966408   20.805543 H          1 MOL1         0.1009
      11    C3      20.868251   18.691589   22.529006 C.3        1 MOL1        -0.1392
      12    H8      21.058446   17.864979   21.831840 H          1 MOL1         0.0998
      13    H9      21.851700   19.142564   22.715902 H          1 MOL1         0.0998
      14    C4      20.325836   18.132381   23.873736 C.3        1 MOL1        -0.1302
      15    H10     19.738313   18.892190   24.405607 H          1 MOL1         0.0998
      16    H11     21.181937   17.906579   24.524955 H          1 MOL1         0.0998
      17    C5      19.498870   16.834824   23.714929 C.3        1 MOL1        -0.2317
      18    H12     18.598074   16.989639   23.111129 H          1 MOL1         0.1009
      19    H13     19.178500   16.462097   24.696460 H          1 MOL1         0.1009
      20    H14     20.094321   16.045172   23.238556 H          1 MOL1         0.1009
@<TRIPOS>BOND
    1     1     2    1
    2     1     3    1
    3     1     4    1
    4     1     5    1
    5     5     6    1
    6     5     7    1
    7     7     8    1
    8     7     9    1
    9     7    10    1
   10     5    11    1
   11    11    12    1
   12    11    13    1
   13    11    14    1
   14    14    15    1
   15    14    16    1
   16    14    17    1
   17    17    18    1
   18    17    19    1
   19    17    20    1
@<TRIPOS>SUBSTRUCTURE
       1 MOL1            1 RESIDUE      1      MOL     
@<SCITEGIC>MOL_PROPERTY
VConf Rank
SciTegic.value.IntegerValue
969

@<SCITEGIC>MOL_PROPERTY
Conf_Id
SciTegic.value.IntegerValue
35

@<SCITEGIC>MOL_PROPERTY
Delta U+W
SciTegic.value.DoubleValue
3.004

@<SCITEGIC>MOL_PROPERTY
U+W
SciTegic.value.DoubleValue
-33.272

@<SCITEGIC>MOL_PROPERTY
Grad RMS
SciTegic.value.DoubleValue
0.000000

@<SCITEGIC>MOL_PROPERTY
U
SciTegic.value.DoubleValue
25.367

@<SCITEGIC>MOL_PROPERTY
W
SciTegic.value.DoubleValue
-58.639

@<SCITEGIC>MOL_PROPERTY
W(PB)
SciTegic.value.DoubleValue
-60.512

@<SCITEGIC>MOL_PROPERTY
W(SA)
SciTegic.value.DoubleValue
1.873

@<SCITEGIC>MOL_PROPERTY
Valence
SciTegic.value.DoubleValue
4.943

@<SCITEGIC>MOL_PROPERTY
Coulomb
SciTegic.value.DoubleValue
19.661

@<SCITEGIC>MOL_PROPERTY
VdW
SciTegic.value.DoubleValue
0.764

@<SCITEGIC>MOL_PROPERTY
VdW6
SciTegic.value.DoubleValue
-5.871

@<SCITEGIC>MOL_PROPERTY
VdW12
SciTegic.value.DoubleValue
6.636

@<SCITEGIC>MOL_PROPERTY
Bond
SciTegic.value.DoubleValue
0.230

@<SCITEGIC>MOL_PROPERTY
Angle
SciTegic.value.DoubleValue
1.857

@<SCITEGIC>MOL_PROPERTY
Pdih
SciTegic.value.DoubleValue
2.855

@<SCITEGIC>MOL_PROPERTY
Idih
SciTegic.value.DoubleValue
0.000

@<SCITEGIC>MOL_PROPERTY
Tether
SciTegic.value.DoubleValue
0.000

@<TRIPOS>MOLECULE
guest-s10_confgen4.mol2 : confsearch ligand conformer 970
          20          19           1
SMALL
USER_CHARGES
 
@<TRIPOS>ATOM
       1    N1      19.012198   19.482422   24.210083 N.4        1 MOL1        -0.5937
       2    H1      18.274288   19.152013   24.837714 H          1 MOL1         0.3684
       3    H2      19.162274   20.474520   24.412076 H          1 MOL1         0.3684
       4    H3      19.871800   18.987049   24.454392 H          1 MOL1         0.3684
       5    C1      18.648735   19.263018   22.767094 C.3        1 MOL1         0.1270
       6    H4      17.739632   19.850621   22.605285 H          1 MOL1         0.0960
       7    C2      18.296500   17.789879   22.494510 C.3        1 MOL1        -0.2382
       8    H5      19.135816   17.123335   22.725948 H          1 MOL1         0.1009
       9    H6      18.020798   17.644161   21.442762 H          1 MOL1         0.1009
      10    H7      17.442312   17.479114   23.108314 H          1 MOL1         0.1009
      11    C3      19.715391   19.807477   21.782653 C.3        1 MOL1        -0.1392
      12    H8      19.243004   19.893675   20.795251 H          1 MOL1         0.0998
      13    H9      19.974374   20.834460   22.071530 H          1 MOL1         0.0998
      14    C4      21.019458   18.978252   21.614162 C.3        1 MOL1        -0.1302
      15    H10     21.640780   19.473842   20.855102 H          1 MOL1         0.0998
      16    H11     20.789398   17.985641   21.203763 H          1 MOL1         0.0998
      17    C5      21.858513   18.826018   22.903245 C.3        1 MOL1        -0.2317
      18    H12     22.031475   19.798116   23.383090 H          1 MOL1         0.1009
      19    H13     22.839222   18.391877   22.668934 H          1 MOL1         0.1009
      20    H14     21.374638   18.156054   23.623163 H          1 MOL1         0.1009
@<TRIPOS>BOND
    1     1     2    1
    2     1     3    1
    3     1     4    1
    4     1     5    1
    5     5     6    1
    6     5     7    1
    7     7     8    1
    8     7     9    1
    9     7    10    1
   10     5    11    1
   11    11    12    1
   12    11    13    1
   13    11    14    1
   14    14    15    1
   15    14    16    1
   16    14    17    1
   17    17    18    1
   18    17    19    1
   19    17    20    1
@<TRIPOS>SUBSTRUCTURE
       1 MOL1            1 RESIDUE      1      MOL     
@<SCITEGIC>MOL_PROPERTY
VConf Rank
SciTegic.value.IntegerValue
970

@<SCITEGIC>MOL_PROPERTY
Conf_Id
SciTegic.value.IntegerValue
55

@<SCITEGIC>MOL_PROPERTY
Delta U+W
SciTegic.value.DoubleValue
2.767

@<SCITEGIC>MOL_PROPERTY
U+W
SciTegic.value.DoubleValue
-33.509

@<SCITEGIC>MOL_PROPERTY
Grad RMS
SciTegic.value.DoubleValue
0.000000

@<SCITEGIC>MOL_PROPERTY
U
SciTegic.value.DoubleValue
24.552

@<SCITEGIC>MOL_PROPERTY
W
SciTegic.value.DoubleValue
-58.061

@<SCITEGIC>MOL_PROPERTY
W(PB)
SciTegic.value.DoubleValue
-59.930

@<SCITEGIC>MOL_PROPERTY
W(SA)
SciTegic.value.DoubleValue
1.869

@<SCITEGIC>MOL_PROPERTY
Valence
SciTegic.value.DoubleValue
3.726

@<SCITEGIC>MOL_PROPERTY
Coulomb
SciTegic.value.DoubleValue
20.219

@<SCITEGIC>MOL_PROPERTY
VdW
SciTegic.value.DoubleValue
0.606

@<SCITEGIC>MOL_PROPERTY
VdW6
SciTegic.value.DoubleValue
-6.395

@<SCITEGIC>MOL_PROPERTY
VdW12
SciTegic.value.DoubleValue
7.001

@<SCITEGIC>MOL_PROPERTY
Bond
SciTegic.value.DoubleValue
0.241

@<SCITEGIC>MOL_PROPERTY
Angle
SciTegic.value.DoubleValue
2.098

@<SCITEGIC>MOL_PROPERTY
Pdih
SciTegic.value.DoubleValue
1.387

@<SCITEGIC>MOL_PROPERTY
Idih
SciTegic.value.DoubleValue
0.000

@<SCITEGIC>MOL_PROPERTY
Tether
SciTegic.value.DoubleValue
0.000

@<TRIPOS>MOLECULE
guest-s10_confgen4.mol2 : confsearch ligand conformer 971
          20          19           1
SMALL
USER_CHARGES
 
@<TRIPOS>ATOM
       1    N1      17.933325   18.399852   22.176029 N.4        1 MOL1        -0.5937
       2    H1      18.121540   17.398218   22.087432 H          1 MOL1         0.3684
       3    H2      17.129209   18.613161   21.579746 H          1 MOL1         0.3684
       4    H3      17.649217   18.575115   23.143058 H          1 MOL1         0.3684
       5    C1      19.134800   19.222491   21.795525 C.3        1 MOL1         0.1270
       6    H4      18.850679   20.271875   21.921838 H          1 MOL1         0.0960
       7    C2      19.498027   18.996884   20.318657 C.3        1 MOL1        -0.2382
       8    H5      18.646020   19.231489   19.668804 H          1 MOL1         0.1009
       9    H6      19.790578   17.955335   20.135947 H          1 MOL1         0.1009
      10    H7      20.332133   19.643437   20.018867 H          1 MOL1         0.1009
      11    C3      20.356597   18.941276   22.697899 C.3        1 MOL1        -0.1392
      12    H8      20.648076   17.886385   22.607558 H          1 MOL1         0.0998
      13    H9      21.207934   19.533072   22.335861 H          1 MOL1         0.0998
      14    C4      20.104136   19.288732   24.184861 C.3        1 MOL1        -0.1302
      15    H10     19.292127   18.668201   24.587364 H          1 MOL1         0.0998
      16    H11     19.777762   20.334867   24.270444 H          1 MOL1         0.0998
      17    C5      21.370111   19.076700   25.042564 C.3        1 MOL1        -0.2317
      18    H12     21.704249   18.031733   25.001932 H          1 MOL1         0.1009
      19    H13     21.172881   19.326233   26.093239 H          1 MOL1         0.1009
      20    H14     22.194603   19.712871   24.695098 H          1 MOL1         0.1009
@<TRIPOS>BOND
    1     1     2    1
    2     1     3    1
    3     1     4    1
    4     1     5    1
    5     5     6    1
    6     5     7    1
    7     7     8    1
    8     7     9    1
    9     7    10    1
   10     5    11    1
   11    11    12    1
   12    11    13    1
   13    11    14    1
   14    14    15    1
   15    14    16    1
   16    14    17    1
   17    17    18    1
   18    17    19    1
   19    17    20    1
@<TRIPOS>SUBSTRUCTURE
       1 MOL1            1 RESIDUE      1      MOL     
@<SCITEGIC>MOL_PROPERTY
VConf Rank
SciTegic.value.IntegerValue
971

@<SCITEGIC>MOL_PROPERTY
Conf_Id
SciTegic.value.IntegerValue
74

@<SCITEGIC>MOL_PROPERTY
Delta U+W
SciTegic.value.DoubleValue
0.000

@<SCITEGIC>MOL_PROPERTY
U+W
SciTegic.value.DoubleValue
-36.276

@<SCITEGIC>MOL_PROPERTY
Grad RMS
SciTegic.value.DoubleValue
0.000000

@<SCITEGIC>MOL_PROPERTY
U
SciTegic.value.DoubleValue
22.080

@<SCITEGIC>MOL_PROPERTY
W
SciTegic.value.DoubleValue
-58.356

@<SCITEGIC>MOL_PROPERTY
W(PB)
SciTegic.value.DoubleValue
-60.289

@<SCITEGIC>MOL_PROPERTY
W(SA)
SciTegic.value.DoubleValue
1.932

@<SCITEGIC>MOL_PROPERTY
Valence
SciTegic.value.DoubleValue
1.885

@<SCITEGIC>MOL_PROPERTY
Coulomb
SciTegic.value.DoubleValue
19.559

@<SCITEGIC>MOL_PROPERTY
VdW
SciTegic.value.DoubleValue
0.637

@<SCITEGIC>MOL_PROPERTY
VdW6
SciTegic.value.DoubleValue
-4.482

@<SCITEGIC>MOL_PROPERTY
VdW12
SciTegic.value.DoubleValue
5.119

@<SCITEGIC>MOL_PROPERTY
Bond
SciTegic.value.DoubleValue
0.136

@<SCITEGIC>MOL_PROPERTY
Angle
SciTegic.value.DoubleValue
0.867

@<SCITEGIC>MOL_PROPERTY
Pdih
SciTegic.value.DoubleValue
0.882

@<SCITEGIC>MOL_PROPERTY
Idih
SciTegic.value.DoubleValue
0.000

@<SCITEGIC>MOL_PROPERTY
Tether
SciTegic.value.DoubleValue
0.000

@<TRIPOS>MOLECULE
guest-s10_confgen4.mol2 : confsearch ligand conformer 972
          20          19           1
SMALL
USER_CHARGES
 
@<TRIPOS>ATOM
       1    N1      17.667669   19.096986   23.903023 N.4        1 MOL1        -0.5937
       2    H1      17.198880   19.854635   23.398977 H          1 MOL1         0.3684
       3    H2      18.030893   19.488422   24.775704 H          1 MOL1         0.3684
       4    H3      16.950142   18.411093   24.152790 H          1 MOL1         0.3684
       5    C1      18.761347   18.474695   23.078954 C.3        1 MOL1         0.1270
       6    H4      18.282293   18.084259   22.175663 H          1 MOL1         0.0960
       7    C2      19.398281   17.296921   23.839192 C.3        1 MOL1        -0.2382
       8    H5      18.628017   16.591183   24.173631 H          1 MOL1         0.1009
       9    H6      19.947045   17.644949   24.723112 H          1 MOL1         0.1009
      10    H7      20.092714   16.738531   23.201080 H          1 MOL1         0.1009
      11    C3      19.809583   19.528904   22.653122 C.3        1 MOL1        -0.1392
      12    H8      19.281688   20.386928   22.216332 H          1 MOL1         0.0998
      13    H9      20.335504   19.906647   23.540008 H          1 MOL1         0.0998
      14    C4      20.837683   19.006780   21.619895 C.3        1 MOL1        -0.1302
      15    H10     20.310159   18.571161   20.759648 H          1 MOL1         0.0998
      16    H11     21.446600   18.205565   22.059410 H          1 MOL1         0.0998
      17    C5      21.774078   20.132038   21.129344 C.3        1 MOL1        -0.2317
      18    H12     21.206144   20.935802   20.642875 H          1 MOL1         0.1009
      19    H13     22.498073   19.744015   20.401088 H          1 MOL1         0.1009
      20    H14     22.337662   20.568726   21.964172 H          1 MOL1         0.1009
@<TRIPOS>BOND
    1     1     2    1
    2     1     3    1
    3     1     4    1
    4     1     5    1
    5     5     6    1
    6     5     7    1
    7     7     8    1
    8     7     9    1
    9     7    10    1
   10     5    11    1
   11    11    12    1
   12    11    13    1
   13    11    14    1
   14    14    15    1
   15    14    16    1
   16    14    17    1
   17    17    18    1
   18    17    19    1
   19    17    20    1
@<TRIPOS>SUBSTRUCTURE
       1 MOL1            1 RESIDUE      1      MOL     
@<SCITEGIC>MOL_PROPERTY
VConf Rank
SciTegic.value.IntegerValue
972

@<SCITEGIC>MOL_PROPERTY
Conf_Id
SciTegic.value.IntegerValue
80

@<SCITEGIC>MOL_PROPERTY
Delta U+W
SciTegic.value.DoubleValue
0.460

@<SCITEGIC>MOL_PROPERTY
U+W
SciTegic.value.DoubleValue
-35.817

@<SCITEGIC>MOL_PROPERTY
Grad RMS
SciTegic.value.DoubleValue
0.000000

@<SCITEGIC>MOL_PROPERTY
U
SciTegic.value.DoubleValue
22.495

@<SCITEGIC>MOL_PROPERTY
W
SciTegic.value.DoubleValue
-58.311

@<SCITEGIC>MOL_PROPERTY
W(PB)
SciTegic.value.DoubleValue
-60.259

@<SCITEGIC>MOL_PROPERTY
W(SA)
SciTegic.value.DoubleValue
1.948

@<SCITEGIC>MOL_PROPERTY
Valence
SciTegic.value.DoubleValue
2.419

@<SCITEGIC>MOL_PROPERTY
Coulomb
SciTegic.value.DoubleValue
19.304

@<SCITEGIC>MOL_PROPERTY
VdW
SciTegic.value.DoubleValue
0.772

@<SCITEGIC>MOL_PROPERTY
VdW6
SciTegic.value.DoubleValue
-4.635

@<SCITEGIC>MOL_PROPERTY
VdW12
SciTegic.value.DoubleValue
5.407

@<SCITEGIC>MOL_PROPERTY
Bond
SciTegic.value.DoubleValue
0.149

@<SCITEGIC>MOL_PROPERTY
Angle
SciTegic.value.DoubleValue
1.142

@<SCITEGIC>MOL_PROPERTY
Pdih
SciTegic.value.DoubleValue
1.129

@<SCITEGIC>MOL_PROPERTY
Idih
SciTegic.value.DoubleValue
0.000

@<SCITEGIC>MOL_PROPERTY
Tether
SciTegic.value.DoubleValue
0.000

@<TRIPOS>MOLECULE
guest-s10_confgen4.mol2 : confsearch ligand conformer 973
          20          19           1
SMALL
USER_CHARGES
 
@<TRIPOS>ATOM
       1    N1      21.311245   17.632899   24.060611 N.4        1 MOL1        -0.5937
       2    H1      22.246693   18.046874   24.023567 H          1 MOL1         0.3684
       3    H2      21.313816   16.814324   23.446919 H          1 MOL1         0.3684
       4    H3      21.167491   17.296005   25.016358 H          1 MOL1         0.3684
       5    C1      20.249912   18.620463   23.659315 C.3        1 MOL1         0.1270
       6    H4      20.319502   19.450236   24.369550 H          1 MOL1         0.0960
       7    C2      18.854520   17.988151   23.798301 C.3        1 MOL1        -0.2382
       8    H5      18.734649   17.527185   24.786373 H          1 MOL1         0.1009
       9    H6      18.690737   17.213780   23.038710 H          1 MOL1         0.1009
      10    H7      18.068716   18.745690   23.700041 H          1 MOL1         0.1009
      11    C3      20.518628   19.179123   22.240503 C.3        1 MOL1        -0.1392
      12    H8      21.543739   19.572486   22.230231 H          1 MOL1         0.0998
      13    H9      20.504021   18.365464   21.503296 H          1 MOL1         0.0998
      14    C4      19.569583   20.323363   21.795900 C.3        1 MOL1        -0.1302
      15    H10     20.147908   21.049180   21.206963 H          1 MOL1         0.0998
      16    H11     19.198598   20.874229   22.671619 H          1 MOL1         0.0998
      17    C5      18.387499   19.838072   20.924004 C.3        1 MOL1        -0.2317
      18    H12     18.749351   19.352606   20.008306 H          1 MOL1         0.1009
      19    H13     17.758353   20.686013   20.623747 H          1 MOL1         0.1009
      20    H14     17.748873   19.122916   21.454336 H          1 MOL1         0.1009
@<TRIPOS>BOND
    1     1     2    1
    2     1     3    1
    3     1     4    1
    4     1     5    1
    5     5     6    1
    6     5     7    1
    7     7     8    1
    8     7     9    1
    9     7    10    1
   10     5    11    1
   11    11    12    1
   12    11    13    1
   13    11    14    1
   14    14    15    1
   15    14    16    1
   16    14    17    1
   17    17    18    1
   18    17    19    1
   19    17    20    1
@<TRIPOS>SUBSTRUCTURE
       1 MOL1            1 RESIDUE      1      MOL     
@<SCITEGIC>MOL_PROPERTY
VConf Rank
SciTegic.value.IntegerValue
973

@<SCITEGIC>MOL_PROPERTY
Conf_Id
SciTegic.value.IntegerValue
52

@<SCITEGIC>MOL_PROPERTY
Delta U+W
SciTegic.value.DoubleValue
2.995

@<SCITEGIC>MOL_PROPERTY
U+W
SciTegic.value.DoubleValue
-33.282

@<SCITEGIC>MOL_PROPERTY
Grad RMS
SciTegic.value.DoubleValue
0.000000

@<SCITEGIC>MOL_PROPERTY
U
SciTegic.value.DoubleValue
25.224

@<SCITEGIC>MOL_PROPERTY
W
SciTegic.value.DoubleValue
-58.506

@<SCITEGIC>MOL_PROPERTY
W(PB)
SciTegic.value.DoubleValue
-60.411

@<SCITEGIC>MOL_PROPERTY
W(SA)
SciTegic.value.DoubleValue
1.905

@<SCITEGIC>MOL_PROPERTY
Valence
SciTegic.value.DoubleValue
4.945

@<SCITEGIC>MOL_PROPERTY
Coulomb
SciTegic.value.DoubleValue
19.467

@<SCITEGIC>MOL_PROPERTY
VdW
SciTegic.value.DoubleValue
0.813

@<SCITEGIC>MOL_PROPERTY
VdW6
SciTegic.value.DoubleValue
-5.458

@<SCITEGIC>MOL_PROPERTY
VdW12
SciTegic.value.DoubleValue
6.270

@<SCITEGIC>MOL_PROPERTY
Bond
SciTegic.value.DoubleValue
0.200

@<SCITEGIC>MOL_PROPERTY
Angle
SciTegic.value.DoubleValue
1.675

@<SCITEGIC>MOL_PROPERTY
Pdih
SciTegic.value.DoubleValue
3.070

@<SCITEGIC>MOL_PROPERTY
Idih
SciTegic.value.DoubleValue
0.000

@<SCITEGIC>MOL_PROPERTY
Tether
SciTegic.value.DoubleValue
0.000

@<TRIPOS>MOLECULE
guest-s10_confgen4.mol2 : confsearch ligand conformer 974
          20          19           1
SMALL
USER_CHARGES
 
@<TRIPOS>ATOM
       1    N1      18.471108   19.356520   23.679129 N.4        1 MOL1        -0.5937
       2    H1      17.724723   18.749913   23.330828 H          1 MOL1         0.3684
       3    H2      18.027491   20.129022   24.183204 H          1 MOL1         0.3684
       4    H3      19.013203   18.816219   24.356768 H          1 MOL1         0.3684
       5    C1      19.340666   19.855541   22.557481 C.3        1 MOL1         0.1270
       6    H4      20.079830   20.531194   22.998916 H          1 MOL1         0.0960
       7    C2      18.491893   20.658735   21.557369 C.3        1 MOL1        -0.2382
       8    H5      17.741603   20.022032   21.072053 H          1 MOL1         0.1009
       9    H6      19.122260   21.100781   20.775782 H          1 MOL1         0.1009
      10    H7      17.968378   21.479519   22.062920 H          1 MOL1         0.1009
      11    C3      20.095678   18.716558   21.831596 C.3        1 MOL1        -0.1392
      12    H8      19.403436   17.896167   21.600653 H          1 MOL1         0.0998
      13    H9      20.448368   19.092863   20.862014 H          1 MOL1         0.0998
      14    C4      21.335455   18.172352   22.588827 C.3        1 MOL1        -0.1302
      15    H10     22.044814   18.991146   22.774357 H          1 MOL1         0.0998
      16    H11     21.856474   17.465035   21.928321 H          1 MOL1         0.0998
      17    C5      21.019247   17.452423   23.919586 C.3        1 MOL1        -0.2317
      18    H12     21.910396   16.926911   24.286978 H          1 MOL1         0.1009
      19    H13     20.223631   16.706854   23.791374 H          1 MOL1         0.1009
      20    H14     20.721739   18.160484   24.701620 H          1 MOL1         0.1009
@<TRIPOS>BOND
    1     1     2    1
    2     1     3    1
    3     1     4    1
    4     1     5    1
    5     5     6    1
    6     5     7    1
    7     7     8    1
    8     7     9    1
    9     7    10    1
   10     5    11    1
   11    11    12    1
   12    11    13    1
   13    11    14    1
   14    14    15    1
   15    14    16    1
   16    14    17    1
   17    17    18    1
   18    17    19    1
   19    17    20    1
@<TRIPOS>SUBSTRUCTURE
       1 MOL1            1 RESIDUE      1      MOL     
@<SCITEGIC>MOL_PROPERTY
VConf Rank
SciTegic.value.IntegerValue
974

@<SCITEGIC>MOL_PROPERTY
Conf_Id
SciTegic.value.IntegerValue
54

@<SCITEGIC>MOL_PROPERTY
Delta U+W
SciTegic.value.DoubleValue
2.752

@<SCITEGIC>MOL_PROPERTY
U+W
SciTegic.value.DoubleValue
-33.525

@<SCITEGIC>MOL_PROPERTY
Grad RMS
SciTegic.value.DoubleValue
0.000000

@<SCITEGIC>MOL_PROPERTY
U
SciTegic.value.DoubleValue
24.337

@<SCITEGIC>MOL_PROPERTY
W
SciTegic.value.DoubleValue
-57.862

@<SCITEGIC>MOL_PROPERTY
W(PB)
SciTegic.value.DoubleValue
-59.764

@<SCITEGIC>MOL_PROPERTY
W(SA)
SciTegic.value.DoubleValue
1.901

@<SCITEGIC>MOL_PROPERTY
Valence
SciTegic.value.DoubleValue
3.593

@<SCITEGIC>MOL_PROPERTY
Coulomb
SciTegic.value.DoubleValue
20.067

@<SCITEGIC>MOL_PROPERTY
VdW
SciTegic.value.DoubleValue
0.677

@<SCITEGIC>MOL_PROPERTY
VdW6
SciTegic.value.DoubleValue
-5.466

@<SCITEGIC>MOL_PROPERTY
VdW12
SciTegic.value.DoubleValue
6.144

@<SCITEGIC>MOL_PROPERTY
Bond
SciTegic.value.DoubleValue
0.191

@<SCITEGIC>MOL_PROPERTY
Angle
SciTegic.value.DoubleValue
1.557

@<SCITEGIC>MOL_PROPERTY
Pdih
SciTegic.value.DoubleValue
1.845

@<SCITEGIC>MOL_PROPERTY
Idih
SciTegic.value.DoubleValue
0.000

@<SCITEGIC>MOL_PROPERTY
Tether
SciTegic.value.DoubleValue
0.000

@<TRIPOS>MOLECULE
guest-s10_confgen4.mol2 : confsearch ligand conformer 975
          20          19           1
SMALL
USER_CHARGES
 
@<TRIPOS>ATOM
       1    N1      20.320307   18.830230   20.713310 N.4        1 MOL1        -0.5937
       2    H1      20.435022   19.363759   19.847376 H          1 MOL1         0.3684
       3    H2      20.088520   17.868857   20.449210 H          1 MOL1         0.3684
       4    H3      21.228862   18.809711   21.181877 H          1 MOL1         0.3684
       5    C1      19.260218   19.432621   21.594913 C.3        1 MOL1         0.1270
       6    H4      18.337663   19.426967   21.005945 H          1 MOL1         0.0960
       7    C2      19.587219   20.898762   21.930091 C.3        1 MOL1        -0.2382
       8    H5      18.813064   21.333701   22.574283 H          1 MOL1         0.1009
       9    H6      19.633256   21.500419   21.014134 H          1 MOL1         0.1009
      10    H7      20.552712   20.993084   22.440941 H          1 MOL1         0.1009
      11    C3      18.996974   18.589948   22.865998 C.3        1 MOL1        -0.1392
      12    H8      18.155863   19.033243   23.415324 H          1 MOL1         0.0998
      13    H9      18.661582   17.591258   22.556907 H          1 MOL1         0.0998
      14    C4      20.211550   18.446037   23.819119 C.3        1 MOL1        -0.1302
      15    H10     20.529961   19.432870   24.180766 H          1 MOL1         0.0998
      16    H11     21.065755   18.012211   23.282193 H          1 MOL1         0.0998
      17    C5      19.875738   17.554250   25.033728 C.3        1 MOL1        -0.2317
      18    H12     20.743536   17.463496   25.699879 H          1 MOL1         0.1009
      19    H13     19.589407   16.543459   24.715078 H          1 MOL1         0.1009
      20    H14     19.046868   17.976419   25.616798 H          1 MOL1         0.1009
@<TRIPOS>BOND
    1     1     2    1
    2     1     3    1
    3     1     4    1
    4     1     5    1
    5     5     6    1
    6     5     7    1
    7     7     8    1
    8     7     9    1
    9     7    10    1
   10     5    11    1
   11    11    12    1
   12    11    13    1
   13    11    14    1
   14    14    15    1
   15    14    16    1
   16    14    17    1
   17    17    18    1
   18    17    19    1
   19    17    20    1
@<TRIPOS>SUBSTRUCTURE
       1 MOL1            1 RESIDUE      1      MOL     
@<SCITEGIC>MOL_PROPERTY
VConf Rank
SciTegic.value.IntegerValue
975

@<SCITEGIC>MOL_PROPERTY
Conf_Id
SciTegic.value.IntegerValue
63

@<SCITEGIC>MOL_PROPERTY
Delta U+W
SciTegic.value.DoubleValue
0.420

@<SCITEGIC>MOL_PROPERTY
U+W
SciTegic.value.DoubleValue
-35.856

@<SCITEGIC>MOL_PROPERTY
Grad RMS
SciTegic.value.DoubleValue
0.000000

@<SCITEGIC>MOL_PROPERTY
U
SciTegic.value.DoubleValue
22.625

@<SCITEGIC>MOL_PROPERTY
W
SciTegic.value.DoubleValue
-58.481

@<SCITEGIC>MOL_PROPERTY
W(PB)
SciTegic.value.DoubleValue
-60.400

@<SCITEGIC>MOL_PROPERTY
W(SA)
SciTegic.value.DoubleValue
1.919

@<SCITEGIC>MOL_PROPERTY
Valence
SciTegic.value.DoubleValue
2.404

@<SCITEGIC>MOL_PROPERTY
Coulomb
SciTegic.value.DoubleValue
19.464

@<SCITEGIC>MOL_PROPERTY
VdW
SciTegic.value.DoubleValue
0.757

@<SCITEGIC>MOL_PROPERTY
VdW6
SciTegic.value.DoubleValue
-5.074

@<SCITEGIC>MOL_PROPERTY
VdW12
SciTegic.value.DoubleValue
5.830

@<SCITEGIC>MOL_PROPERTY
Bond
SciTegic.value.DoubleValue
0.172

@<SCITEGIC>MOL_PROPERTY
Angle
SciTegic.value.DoubleValue
1.207

@<SCITEGIC>MOL_PROPERTY
Pdih
SciTegic.value.DoubleValue
1.025

@<SCITEGIC>MOL_PROPERTY
Idih
SciTegic.value.DoubleValue
0.000

@<SCITEGIC>MOL_PROPERTY
Tether
SciTegic.value.DoubleValue
0.000

@<TRIPOS>MOLECULE
guest-s10_confgen4.mol2 : confsearch ligand conformer 976
          20          19           1
SMALL
USER_CHARGES
 
@<TRIPOS>ATOM
       1    N1      20.277675   20.442469   21.956627 N.4        1 MOL1        -0.5937
       2    H1      19.306504   20.560190   21.656890 H          1 MOL1         0.3684
       3    H2      20.827625   20.196828   21.129803 H          1 MOL1         0.3684
       4    H3      20.608934   21.353574   22.284798 H          1 MOL1         0.3684
       5    C1      20.395657   19.393271   23.028747 C.3        1 MOL1         0.1270
       6    H4      19.784916   19.733354   23.870453 H          1 MOL1         0.0960
       7    C2      21.850095   19.271521   23.511758 C.3        1 MOL1        -0.2382
       8    H5      22.220150   20.237349   23.877097 H          1 MOL1         0.1009
       9    H6      22.511027   18.936257   22.702734 H          1 MOL1         0.1009
      10    H7      21.927917   18.552309   24.336561 H          1 MOL1         0.1009
      11    C3      19.864162   18.016482   22.569456 C.3        1 MOL1        -0.1392
      12    H8      20.475708   17.650068   21.734240 H          1 MOL1         0.0998
      13    H9      19.994590   17.292992   23.385224 H          1 MOL1         0.0998
      14    C4      18.374219   18.020932   22.142902 C.3        1 MOL1        -0.1302
      15    H10     18.093718   17.004991   21.831318 H          1 MOL1         0.0998
      16    H11     18.233991   18.657007   21.258419 H          1 MOL1         0.0998
      17    C5      17.422305   18.479286   23.271237 C.3        1 MOL1        -0.2317
      18    H12     17.544424   17.857082   24.167412 H          1 MOL1         0.1009
      19    H13     16.376251   18.398623   22.948229 H          1 MOL1         0.1009
      20    H14     17.601489   19.524547   23.552694 H          1 MOL1         0.1009
@<TRIPOS>BOND
    1     1     2    1
    2     1     3    1
    3     1     4    1
    4     1     5    1
    5     5     6    1
    6     5     7    1
    7     7     8    1
    8     7     9    1
    9     7    10    1
   10     5    11    1
   11    11    12    1
   12    11    13    1
   13    11    14    1
   14    14    15    1
   15    14    16    1
   16    14    17    1
   17    17    18    1
   18    17    19    1
   19    17    20    1
@<TRIPOS>SUBSTRUCTURE
       1 MOL1            1 RESIDUE      1      MOL     
@<SCITEGIC>MOL_PROPERTY
VConf Rank
SciTegic.value.IntegerValue
976

@<SCITEGIC>MOL_PROPERTY
Conf_Id
SciTegic.value.IntegerValue
50

@<SCITEGIC>MOL_PROPERTY
Delta U+W
SciTegic.value.DoubleValue
0.466

@<SCITEGIC>MOL_PROPERTY
U+W
SciTegic.value.DoubleValue
-35.811

@<SCITEGIC>MOL_PROPERTY
Grad RMS
SciTegic.value.DoubleValue
0.000000

@<SCITEGIC>MOL_PROPERTY
U
SciTegic.value.DoubleValue
22.369

@<SCITEGIC>MOL_PROPERTY
W
SciTegic.value.DoubleValue
-58.180

@<SCITEGIC>MOL_PROPERTY
W(PB)
SciTegic.value.DoubleValue
-60.103

@<SCITEGIC>MOL_PROPERTY
W(SA)
SciTegic.value.DoubleValue
1.923

@<SCITEGIC>MOL_PROPERTY
Valence
SciTegic.value.DoubleValue
2.168

@<SCITEGIC>MOL_PROPERTY
Coulomb
SciTegic.value.DoubleValue
19.636

@<SCITEGIC>MOL_PROPERTY
VdW
SciTegic.value.DoubleValue
0.566

@<SCITEGIC>MOL_PROPERTY
VdW6
SciTegic.value.DoubleValue
-5.263

@<SCITEGIC>MOL_PROPERTY
VdW12
SciTegic.value.DoubleValue
5.829

@<SCITEGIC>MOL_PROPERTY
Bond
SciTegic.value.DoubleValue
0.162

@<SCITEGIC>MOL_PROPERTY
Angle
SciTegic.value.DoubleValue
1.066

@<SCITEGIC>MOL_PROPERTY
Pdih
SciTegic.value.DoubleValue
0.939

@<SCITEGIC>MOL_PROPERTY
Idih
SciTegic.value.DoubleValue
0.000

@<SCITEGIC>MOL_PROPERTY
Tether
SciTegic.value.DoubleValue
0.000

@<TRIPOS>MOLECULE
guest-s10_confgen4.mol2 : confsearch ligand conformer 977
          20          19           1
SMALL
USER_CHARGES
 
@<TRIPOS>ATOM
       1    N1      21.057408   17.065225   22.395941 N.4        1 MOL1        -0.5937
       2    H1      21.829938   17.181630   23.057488 H          1 MOL1         0.3684
       3    H2      21.441923   17.168327   21.453396 H          1 MOL1         0.3684
       4    H3      20.725707   16.101009   22.485369 H          1 MOL1         0.3684
       5    C1      19.952447   18.053825   22.653448 C.3        1 MOL1         0.1270
       6    H4      19.611153   17.869552   23.676837 H          1 MOL1         0.0960
       7    C2      18.780159   17.796897   21.688206 C.3        1 MOL1        -0.2382
       8    H5      19.092442   17.924865   20.644286 H          1 MOL1         0.1009
       9    H6      17.946157   18.481733   21.875904 H          1 MOL1         0.1009
      10    H7      18.400556   16.774470   21.805137 H          1 MOL1         0.1009
      11    C3      20.454004   19.516534   22.568868 C.3        1 MOL1        -0.1392
      12    H8      21.549542   19.525629   22.642255 H          1 MOL1         0.0998
      13    H9      20.220303   19.945976   21.585519 H          1 MOL1         0.0998
      14    C4      19.908996   20.432807   23.693676 C.3        1 MOL1        -0.1302
      15    H10     20.377404   21.422420   23.597799 H          1 MOL1         0.0998
      16    H11     20.222583   20.040462   24.671331 H          1 MOL1         0.0998
      17    C5      18.374091   20.606320   23.679670 C.3        1 MOL1        -0.2317
      18    H12     18.023776   20.957323   22.700332 H          1 MOL1         0.1009
      19    H13     18.065055   21.345565   24.430039 H          1 MOL1         0.1009
      20    H14     17.862037   19.665476   23.916829 H          1 MOL1         0.1009
@<TRIPOS>BOND
    1     1     2    1
    2     1     3    1
    3     1     4    1
    4     1     5    1
    5     5     6    1
    6     5     7    1
    7     7     8    1
    8     7     9    1
    9     7    10    1
   10     5    11    1
   11    11    12    1
   12    11    13    1
   13    11    14    1
   14    14    15    1
   15    14    16    1
   16    14    17    1
   17    17    18    1
   18    17    19    1
   19    17    20    1
@<TRIPOS>SUBSTRUCTURE
       1 MOL1            1 RESIDUE      1      MOL     
@<SCITEGIC>MOL_PROPERTY
VConf Rank
SciTegic.value.IntegerValue
977

@<SCITEGIC>MOL_PROPERTY
Conf_Id
SciTegic.value.IntegerValue
3

@<SCITEGIC>MOL_PROPERTY
Delta U+W
SciTegic.value.DoubleValue
3.093

@<SCITEGIC>MOL_PROPERTY
U+W
SciTegic.value.DoubleValue
-33.184

@<SCITEGIC>MOL_PROPERTY
Grad RMS
SciTegic.value.DoubleValue
0.000000

@<SCITEGIC>MOL_PROPERTY
U
SciTegic.value.DoubleValue
25.256

@<SCITEGIC>MOL_PROPERTY
W
SciTegic.value.DoubleValue
-58.439

@<SCITEGIC>MOL_PROPERTY
W(PB)
SciTegic.value.DoubleValue
-60.337

@<SCITEGIC>MOL_PROPERTY
W(SA)
SciTegic.value.DoubleValue
1.898

@<SCITEGIC>MOL_PROPERTY
Valence
SciTegic.value.DoubleValue
4.963

@<SCITEGIC>MOL_PROPERTY
Coulomb
SciTegic.value.DoubleValue
19.511

@<SCITEGIC>MOL_PROPERTY
VdW
SciTegic.value.DoubleValue
0.782

@<SCITEGIC>MOL_PROPERTY
VdW6
SciTegic.value.DoubleValue
-5.429

@<SCITEGIC>MOL_PROPERTY
VdW12
SciTegic.value.DoubleValue
6.211

@<SCITEGIC>MOL_PROPERTY
Bond
SciTegic.value.DoubleValue
0.174

@<SCITEGIC>MOL_PROPERTY
Angle
SciTegic.value.DoubleValue
1.377

@<SCITEGIC>MOL_PROPERTY
Pdih
SciTegic.value.DoubleValue
3.412

@<SCITEGIC>MOL_PROPERTY
Idih
SciTegic.value.DoubleValue
0.000

@<SCITEGIC>MOL_PROPERTY
Tether
SciTegic.value.DoubleValue
0.000

@<TRIPOS>MOLECULE
guest-s10_confgen4.mol2 : confsearch ligand conformer 978
          20          19           1
SMALL
USER_CHARGES
 
@<TRIPOS>ATOM
       1    N1      17.813719   20.101598   23.379587 N.4        1 MOL1        -0.5937
       2    H1      16.956291   20.118985   22.820884 H          1 MOL1         0.3684
       3    H2      18.149142   21.066245   23.448710 H          1 MOL1         0.3684
       4    H3      17.556120   19.798582   24.322195 H          1 MOL1         0.3684
       5    C1      18.849177   19.195758   22.771588 C.3        1 MOL1         0.1270
       6    H4      19.055989   19.593160   21.773392 H          1 MOL1         0.0960
       7    C2      18.290440   17.769168   22.620738 C.3        1 MOL1        -0.2382
       8    H5      18.977946   17.130664   22.054008 H          1 MOL1         0.1009
       9    H6      17.337712   17.782427   22.077352 H          1 MOL1         0.1009
      10    H7      18.117576   17.304805   23.599499 H          1 MOL1         0.1009
      11    C3      20.164039   19.221609   23.587001 C.3        1 MOL1        -0.1392
      12    H8      20.468744   20.266818   23.729196 H          1 MOL1         0.0998
      13    H9      19.976556   18.819940   24.591614 H          1 MOL1         0.0998
      14    C4      21.347398   18.451698   22.946688 C.3        1 MOL1        -0.1302
      15    H10     21.128424   17.376022   22.911417 H          1 MOL1         0.0998
      16    H11     22.228063   18.557255   23.595630 H          1 MOL1         0.0998
      17    C5      21.705064   18.958858   21.531055 C.3        1 MOL1        -0.2317
      18    H12     21.925585   20.034234   21.540768 H          1 MOL1         0.1009
      19    H13     20.887448   18.782219   20.820867 H          1 MOL1         0.1009
      20    H14     22.592873   18.438420   21.149014 H          1 MOL1         0.1009
@<TRIPOS>BOND
    1     1     2    1
    2     1     3    1
    3     1     4    1
    4     1     5    1
    5     5     6    1
    6     5     7    1
    7     7     8    1
    8     7     9    1
    9     7    10    1
   10     5    11    1
   11    11    12    1
   12    11    13    1
   13    11    14    1
   14    14    15    1
   15    14    16    1
   16    14    17    1
   17    17    18    1
   18    17    19    1
   19    17    20    1
@<TRIPOS>SUBSTRUCTURE
       1 MOL1            1 RESIDUE      1      MOL     
@<SCITEGIC>MOL_PROPERTY
VConf Rank
SciTegic.value.IntegerValue
978

@<SCITEGIC>MOL_PROPERTY
Conf_Id
SciTegic.value.IntegerValue
64

@<SCITEGIC>MOL_PROPERTY
Delta U+W
SciTegic.value.DoubleValue
0.544

@<SCITEGIC>MOL_PROPERTY
U+W
SciTegic.value.DoubleValue
-35.732

@<SCITEGIC>MOL_PROPERTY
Grad RMS
SciTegic.value.DoubleValue
0.000000

@<SCITEGIC>MOL_PROPERTY
U
SciTegic.value.DoubleValue
22.800

@<SCITEGIC>MOL_PROPERTY
W
SciTegic.value.DoubleValue
-58.532

@<SCITEGIC>MOL_PROPERTY
W(PB)
SciTegic.value.DoubleValue
-60.437

@<SCITEGIC>MOL_PROPERTY
W(SA)
SciTegic.value.DoubleValue
1.905

@<SCITEGIC>MOL_PROPERTY
Valence
SciTegic.value.DoubleValue
2.662

@<SCITEGIC>MOL_PROPERTY
Coulomb
SciTegic.value.DoubleValue
19.485

@<SCITEGIC>MOL_PROPERTY
VdW
SciTegic.value.DoubleValue
0.653

@<SCITEGIC>MOL_PROPERTY
VdW6
SciTegic.value.DoubleValue
-5.460

@<SCITEGIC>MOL_PROPERTY
VdW12
SciTegic.value.DoubleValue
6.113

@<SCITEGIC>MOL_PROPERTY
Bond
SciTegic.value.DoubleValue
0.174

@<SCITEGIC>MOL_PROPERTY
Angle
SciTegic.value.DoubleValue
1.378

@<SCITEGIC>MOL_PROPERTY
Pdih
SciTegic.value.DoubleValue
1.109

@<SCITEGIC>MOL_PROPERTY
Idih
SciTegic.value.DoubleValue
0.000

@<SCITEGIC>MOL_PROPERTY
Tether
SciTegic.value.DoubleValue
0.000

@<TRIPOS>MOLECULE
guest-s10_confgen4.mol2 : confsearch ligand conformer 979
          20          19           1
SMALL
USER_CHARGES
 
@<TRIPOS>ATOM
       1    N1      18.021058   18.758604   21.547666 N.4        1 MOL1        -0.5937
       2    H1      18.636503   19.277428   20.917331 H          1 MOL1         0.3684
       3    H2      17.118546   19.241251   21.559448 H          1 MOL1         0.3684
       4    H3      17.865934   17.835112   21.134436 H          1 MOL1         0.3684
       5    C1      18.608022   18.655389   22.929567 C.3        1 MOL1         0.1270
       6    H4      17.876885   18.098952   23.524361 H          1 MOL1         0.0960
       7    C2      18.755787   20.046353   23.567618 C.3        1 MOL1        -0.2382
       8    H5      19.372340   20.708562   22.948707 H          1 MOL1         0.1009
       9    H6      19.211167   19.973589   24.562943 H          1 MOL1         0.1009
      10    H7      17.773447   20.519787   23.685264 H          1 MOL1         0.1009
      11    C3      19.923979   17.837639   22.951457 C.3        1 MOL1        -0.1392
      12    H8      20.215053   17.643809   23.992228 H          1 MOL1         0.0998
      13    H9      19.703362   16.850000   22.525572 H          1 MOL1         0.0998
      14    C4      21.123856   18.446092   22.173444 C.3        1 MOL1        -0.1302
      15    H10     20.776072   19.032347   21.312786 H          1 MOL1         0.0998
      16    H11     21.717529   17.621971   21.753492 H          1 MOL1         0.0998
      17    C5      22.062805   19.301772   23.056016 C.3        1 MOL1        -0.2317
      18    H12     21.552424   20.174299   23.478136 H          1 MOL1         0.1009
      19    H13     22.912838   19.669453   22.466763 H          1 MOL1         0.1009
      20    H14     22.467009   18.710535   23.887942 H          1 MOL1         0.1009
@<TRIPOS>BOND
    1     1     2    1
    2     1     3    1
    3     1     4    1
    4     1     5    1
    5     5     6    1
    6     5     7    1
    7     7     8    1
    8     7     9    1
    9     7    10    1
   10     5    11    1
   11    11    12    1
   12    11    13    1
   13    11    14    1
   14    14    15    1
   15    14    16    1
   16    14    17    1
   17    17    18    1
   18    17    19    1
   19    17    20    1
@<TRIPOS>SUBSTRUCTURE
       1 MOL1            1 RESIDUE      1      MOL     
@<SCITEGIC>MOL_PROPERTY
VConf Rank
SciTegic.value.IntegerValue
979

@<SCITEGIC>MOL_PROPERTY
Conf_Id
SciTegic.value.IntegerValue
35

@<SCITEGIC>MOL_PROPERTY
Delta U+W
SciTegic.value.DoubleValue
3.004

@<SCITEGIC>MOL_PROPERTY
U+W
SciTegic.value.DoubleValue
-33.272

@<SCITEGIC>MOL_PROPERTY
Grad RMS
SciTegic.value.DoubleValue
0.000000

@<SCITEGIC>MOL_PROPERTY
U
SciTegic.value.DoubleValue
25.367

@<SCITEGIC>MOL_PROPERTY
W
SciTegic.value.DoubleValue
-58.639

@<SCITEGIC>MOL_PROPERTY
W(PB)
SciTegic.value.DoubleValue
-60.512

@<SCITEGIC>MOL_PROPERTY
W(SA)
SciTegic.value.DoubleValue
1.873

@<SCITEGIC>MOL_PROPERTY
Valence
SciTegic.value.DoubleValue
4.943

@<SCITEGIC>MOL_PROPERTY
Coulomb
SciTegic.value.DoubleValue
19.661

@<SCITEGIC>MOL_PROPERTY
VdW
SciTegic.value.DoubleValue
0.764

@<SCITEGIC>MOL_PROPERTY
VdW6
SciTegic.value.DoubleValue
-5.871

@<SCITEGIC>MOL_PROPERTY
VdW12
SciTegic.value.DoubleValue
6.636

@<SCITEGIC>MOL_PROPERTY
Bond
SciTegic.value.DoubleValue
0.230

@<SCITEGIC>MOL_PROPERTY
Angle
SciTegic.value.DoubleValue
1.857

@<SCITEGIC>MOL_PROPERTY
Pdih
SciTegic.value.DoubleValue
2.855

@<SCITEGIC>MOL_PROPERTY
Idih
SciTegic.value.DoubleValue
0.000

@<SCITEGIC>MOL_PROPERTY
Tether
SciTegic.value.DoubleValue
0.000

@<TRIPOS>MOLECULE
guest-s10_confgen4.mol2 : confsearch ligand conformer 980
          20          19           1
SMALL
USER_CHARGES
 
@<TRIPOS>ATOM
       1    N1      18.901514   18.422906   24.134285 N.4        1 MOL1        -0.5937
       2    H1      18.919564   17.645225   24.799483 H          1 MOL1         0.3684
       3    H2      17.982258   18.866658   24.209340 H          1 MOL1         0.3684
       4    H3      19.597110   19.106906   24.438075 H          1 MOL1         0.3684
       5    C1      19.174437   17.955356   22.730942 C.3        1 MOL1         0.1270
       6    H4      18.366854   17.254496   22.497420 H          1 MOL1         0.0960
       7    C2      20.497638   17.173967   22.646785 C.3        1 MOL1        -0.2382
       8    H5      21.350866   17.787607   22.959422 H          1 MOL1         0.1009
       9    H6      20.679906   16.827075   21.622156 H          1 MOL1         0.1009
      10    H7      20.464148   16.290532   23.295930 H          1 MOL1         0.1009
      11    C3      19.094298   19.096235   21.684384 C.3        1 MOL1        -0.1392
      12    H8      18.990668   18.632468   20.694574 H          1 MOL1         0.0998
      13    H9      18.163969   19.657614   21.841095 H          1 MOL1         0.0998
      14    C4      20.287895   20.090121   21.620239 C.3        1 MOL1        -0.1302
      15    H10     20.094488   20.800136   20.803968 H          1 MOL1         0.0998
      16    H11     21.208863   19.561793   21.338604 H          1 MOL1         0.0998
      17    C5      20.526937   20.896144   22.917200 C.3        1 MOL1        -0.2317
      18    H12     19.600072   21.366595   23.270382 H          1 MOL1         0.1009
      19    H13     21.258033   21.695312   22.738321 H          1 MOL1         0.1009
      20    H14     20.931091   20.264400   23.716466 H          1 MOL1         0.1009
@<TRIPOS>BOND
    1     1     2    1
    2     1     3    1
    3     1     4    1
    4     1     5    1
    5     5     6    1
    6     5     7    1
    7     7     8    1
    8     7     9    1
    9     7    10    1
   10     5    11    1
   11    11    12    1
   12    11    13    1
   13    11    14    1
   14    14    15    1
   15    14    16    1
   16    14    17    1
   17    17    18    1
   18    17    19    1
   19    17    20    1
@<TRIPOS>SUBSTRUCTURE
       1 MOL1            1 RESIDUE      1      MOL     
@<SCITEGIC>MOL_PROPERTY
VConf Rank
SciTegic.value.IntegerValue
980

@<SCITEGIC>MOL_PROPERTY
Conf_Id
SciTegic.value.IntegerValue
55

@<SCITEGIC>MOL_PROPERTY
Delta U+W
SciTegic.value.DoubleValue
2.767

@<SCITEGIC>MOL_PROPERTY
U+W
SciTegic.value.DoubleValue
-33.509

@<SCITEGIC>MOL_PROPERTY
Grad RMS
SciTegic.value.DoubleValue
0.000000

@<SCITEGIC>MOL_PROPERTY
U
SciTegic.value.DoubleValue
24.552

@<SCITEGIC>MOL_PROPERTY
W
SciTegic.value.DoubleValue
-58.061

@<SCITEGIC>MOL_PROPERTY
W(PB)
SciTegic.value.DoubleValue
-59.930

@<SCITEGIC>MOL_PROPERTY
W(SA)
SciTegic.value.DoubleValue
1.869

@<SCITEGIC>MOL_PROPERTY
Valence
SciTegic.value.DoubleValue
3.726

@<SCITEGIC>MOL_PROPERTY
Coulomb
SciTegic.value.DoubleValue
20.219

@<SCITEGIC>MOL_PROPERTY
VdW
SciTegic.value.DoubleValue
0.606

@<SCITEGIC>MOL_PROPERTY
VdW6
SciTegic.value.DoubleValue
-6.395

@<SCITEGIC>MOL_PROPERTY
VdW12
SciTegic.value.DoubleValue
7.001

@<SCITEGIC>MOL_PROPERTY
Bond
SciTegic.value.DoubleValue
0.241

@<SCITEGIC>MOL_PROPERTY
Angle
SciTegic.value.DoubleValue
2.098

@<SCITEGIC>MOL_PROPERTY
Pdih
SciTegic.value.DoubleValue
1.387

@<SCITEGIC>MOL_PROPERTY
Idih
SciTegic.value.DoubleValue
0.000

@<SCITEGIC>MOL_PROPERTY
Tether
SciTegic.value.DoubleValue
0.000

@<TRIPOS>MOLECULE
guest-s10_confgen4.mol2 : confsearch ligand conformer 981
          20          19           1
SMALL
USER_CHARGES
 
@<TRIPOS>ATOM
       1    N1      19.279480   17.049718   22.522583 N.4        1 MOL1        -0.5937
       2    H1      18.694776   17.140203   21.688029 H          1 MOL1         0.3684
       3    H2      18.985304   16.199427   23.010560 H          1 MOL1         0.3684
       4    H3      20.242123   16.902348   22.209245 H          1 MOL1         0.3684
       5    C1      19.166360   18.260645   23.409104 C.3        1 MOL1         0.1270
       6    H4      19.820812   18.083996   24.268392 H          1 MOL1         0.0960
       7    C2      17.726841   18.419391   23.925392 C.3        1 MOL1        -0.2382
       8    H5      17.403642   17.516969   24.458723 H          1 MOL1         0.1009
       9    H6      17.026112   18.598113   23.100267 H          1 MOL1         0.1009
      10    H7      17.653655   19.262068   24.624088 H          1 MOL1         0.1009
      11    C3      19.630757   19.555784   22.706894 C.3        1 MOL1        -0.1392
      12    H8      19.003689   19.743659   21.825188 H          1 MOL1         0.0998
      13    H9      19.474923   20.403224   23.387797 H          1 MOL1         0.0998
      14    C4      21.120977   19.518115   22.290546 C.3        1 MOL1        -0.1302
      15    H10     21.292201   18.712101   21.564288 H          1 MOL1         0.0998
      16    H11     21.744911   19.294410   23.167418 H          1 MOL1         0.0998
      17    C5      21.573340   20.857307   21.669872 C.3        1 MOL1        -0.2317
      18    H12     20.987696   21.094307   20.772037 H          1 MOL1         0.1009
      19    H13     22.631042   20.812397   21.379468 H          1 MOL1         0.1009
      20    H14     21.455366   21.683745   22.382834 H          1 MOL1         0.1009
@<TRIPOS>BOND
    1     1     2    1
    2     1     3    1
    3     1     4    1
    4     1     5    1
    5     5     6    1
    6     5     7    1
    7     7     8    1
    8     7     9    1
    9     7    10    1
   10     5    11    1
   11    11    12    1
   12    11    13    1
   13    11    14    1
   14    14    15    1
   15    14    16    1
   16    14    17    1
   17    17    18    1
   18    17    19    1
   19    17    20    1
@<TRIPOS>SUBSTRUCTURE
       1 MOL1            1 RESIDUE      1      MOL     
@<SCITEGIC>MOL_PROPERTY
VConf Rank
SciTegic.value.IntegerValue
981

@<SCITEGIC>MOL_PROPERTY
Conf_Id
SciTegic.value.IntegerValue
74

@<SCITEGIC>MOL_PROPERTY
Delta U+W
SciTegic.value.DoubleValue
0.000

@<SCITEGIC>MOL_PROPERTY
U+W
SciTegic.value.DoubleValue
-36.276

@<SCITEGIC>MOL_PROPERTY
Grad RMS
SciTegic.value.DoubleValue
0.000000

@<SCITEGIC>MOL_PROPERTY
U
SciTegic.value.DoubleValue
22.080

@<SCITEGIC>MOL_PROPERTY
W
SciTegic.value.DoubleValue
-58.356

@<SCITEGIC>MOL_PROPERTY
W(PB)
SciTegic.value.DoubleValue
-60.289

@<SCITEGIC>MOL_PROPERTY
W(SA)
SciTegic.value.DoubleValue
1.932

@<SCITEGIC>MOL_PROPERTY
Valence
SciTegic.value.DoubleValue
1.885

@<SCITEGIC>MOL_PROPERTY
Coulomb
SciTegic.value.DoubleValue
19.559

@<SCITEGIC>MOL_PROPERTY
VdW
SciTegic.value.DoubleValue
0.637

@<SCITEGIC>MOL_PROPERTY
VdW6
SciTegic.value.DoubleValue
-4.482

@<SCITEGIC>MOL_PROPERTY
VdW12
SciTegic.value.DoubleValue
5.119

@<SCITEGIC>MOL_PROPERTY
Bond
SciTegic.value.DoubleValue
0.136

@<SCITEGIC>MOL_PROPERTY
Angle
SciTegic.value.DoubleValue
0.867

@<SCITEGIC>MOL_PROPERTY
Pdih
SciTegic.value.DoubleValue
0.882

@<SCITEGIC>MOL_PROPERTY
Idih
SciTegic.value.DoubleValue
0.000

@<SCITEGIC>MOL_PROPERTY
Tether
SciTegic.value.DoubleValue
0.000

@<TRIPOS>MOLECULE
guest-s10_confgen4.mol2 : confsearch ligand conformer 982
          20          19           1
SMALL
USER_CHARGES
 
@<TRIPOS>ATOM
       1    N1      20.868196   17.751702   24.466501 N.4        1 MOL1        -0.5937
       2    H1      20.300918   17.994430   25.283285 H          1 MOL1         0.3684
       3    H2      21.716204   18.322984   24.501779 H          1 MOL1         0.3684
       4    H3      21.154517   16.775233   24.576994 H          1 MOL1         0.3684
       5    C1      20.112872   17.962308   23.182913 C.3        1 MOL1         0.1270
       6    H4      19.232110   17.314600   23.233896 H          1 MOL1         0.0960
       7    C2      20.969762   17.523854   21.981124 C.3        1 MOL1        -0.2382
       8    H5      21.340991   16.501577   22.123810 H          1 MOL1         0.1009
       9    H6      21.835641   18.184364   21.848608 H          1 MOL1         0.1009
      10    H7      20.387692   17.529374   21.052476 H          1 MOL1         0.1009
      11    C3      19.629962   19.425549   23.051719 C.3        1 MOL1        -0.1392
      12    H8      19.121228   19.708249   23.982812 H          1 MOL1         0.0998
      13    H9      20.496177   20.093652   22.956023 H          1 MOL1         0.0998
      14    C4      18.657466   19.659668   21.869940 C.3        1 MOL1        -0.1302
      15    H10     17.822056   18.948008   21.930769 H          1 MOL1         0.0998
      16    H11     19.166232   19.473004   20.914841 H          1 MOL1         0.0998
      17    C5      18.102692   21.100463   21.865538 C.3        1 MOL1        -0.2317
      18    H12     17.547685   21.313836   22.788402 H          1 MOL1         0.1009
      19    H13     17.418707   21.249956   21.020018 H          1 MOL1         0.1009
      20    H14     18.913350   21.835431   21.776572 H          1 MOL1         0.1009
@<TRIPOS>BOND
    1     1     2    1
    2     1     3    1
    3     1     4    1
    4     1     5    1
    5     5     6    1
    6     5     7    1
    7     7     8    1
    8     7     9    1
    9     7    10    1
   10     5    11    1
   11    11    12    1
   12    11    13    1
   13    11    14    1
   14    14    15    1
   15    14    16    1
   16    14    17    1
   17    17    18    1
   18    17    19    1
   19    17    20    1
@<TRIPOS>SUBSTRUCTURE
       1 MOL1            1 RESIDUE      1      MOL     
@<SCITEGIC>MOL_PROPERTY
VConf Rank
SciTegic.value.IntegerValue
982

@<SCITEGIC>MOL_PROPERTY
Conf_Id
SciTegic.value.IntegerValue
80

@<SCITEGIC>MOL_PROPERTY
Delta U+W
SciTegic.value.DoubleValue
0.460

@<SCITEGIC>MOL_PROPERTY
U+W
SciTegic.value.DoubleValue
-35.817

@<SCITEGIC>MOL_PROPERTY
Grad RMS
SciTegic.value.DoubleValue
0.000000

@<SCITEGIC>MOL_PROPERTY
U
SciTegic.value.DoubleValue
22.495

@<SCITEGIC>MOL_PROPERTY
W
SciTegic.value.DoubleValue
-58.311

@<SCITEGIC>MOL_PROPERTY
W(PB)
SciTegic.value.DoubleValue
-60.259

@<SCITEGIC>MOL_PROPERTY
W(SA)
SciTegic.value.DoubleValue
1.948

@<SCITEGIC>MOL_PROPERTY
Valence
SciTegic.value.DoubleValue
2.419

@<SCITEGIC>MOL_PROPERTY
Coulomb
SciTegic.value.DoubleValue
19.304

@<SCITEGIC>MOL_PROPERTY
VdW
SciTegic.value.DoubleValue
0.772

@<SCITEGIC>MOL_PROPERTY
VdW6
SciTegic.value.DoubleValue
-4.635

@<SCITEGIC>MOL_PROPERTY
VdW12
SciTegic.value.DoubleValue
5.407

@<SCITEGIC>MOL_PROPERTY
Bond
SciTegic.value.DoubleValue
0.149

@<SCITEGIC>MOL_PROPERTY
Angle
SciTegic.value.DoubleValue
1.142

@<SCITEGIC>MOL_PROPERTY
Pdih
SciTegic.value.DoubleValue
1.129

@<SCITEGIC>MOL_PROPERTY
Idih
SciTegic.value.DoubleValue
0.000

@<SCITEGIC>MOL_PROPERTY
Tether
SciTegic.value.DoubleValue
0.000

@<TRIPOS>MOLECULE
guest-s10_confgen4.mol2 : confsearch ligand conformer 983
          20          19           1
SMALL
USER_CHARGES
 
@<TRIPOS>ATOM
       1    N1      17.471811   18.968849   21.985111 N.4        1 MOL1        -0.5937
       2    H1      17.394652   19.437941   21.078573 H          1 MOL1         0.3684
       3    H2      17.170728   19.634540   22.701277 H          1 MOL1         0.3684
       4    H3      16.798837   18.197668   21.984576 H          1 MOL1         0.3684
       5    C1      18.870888   18.478683   22.240197 C.3        1 MOL1         0.1270
       6    H4      19.100227   17.774355   21.434514 H          1 MOL1         0.0960
       7    C2      18.932561   17.715349   23.574279 C.3        1 MOL1        -0.2382
       8    H5      18.140333   16.958390   23.624588 H          1 MOL1         0.1009
       9    H6      18.810293   18.394021   24.427455 H          1 MOL1         0.1009
      10    H7      19.887416   17.188250   23.681173 H          1 MOL1         0.1009
      11    C3      19.889659   19.642218   22.165185 C.3        1 MOL1        -0.1392
      12    H8      19.744777   20.144981   21.199819 H          1 MOL1         0.0998
      13    H9      19.662206   20.395642   22.930917 H          1 MOL1         0.0998
      14    C4      21.378957   19.216481   22.256747 C.3        1 MOL1        -0.1302
      15    H10     21.968343   19.857384   21.585938 H          1 MOL1         0.0998
      16    H11     21.507077   18.191127   21.882313 H          1 MOL1         0.0998
      17    C5      21.969778   19.348127   23.680346 C.3        1 MOL1        -0.2317
      18    H12     21.914637   20.386226   24.033088 H          1 MOL1         0.1009
      19    H13     23.026554   19.051191   23.686472 H          1 MOL1         0.1009
      20    H14     21.444104   18.717636   24.406080 H          1 MOL1         0.1009
@<TRIPOS>BOND
    1     1     2    1
    2     1     3    1
    3     1     4    1
    4     1     5    1
    5     5     6    1
    6     5     7    1
    7     7     8    1
    8     7     9    1
    9     7    10    1
   10     5    11    1
   11    11    12    1
   12    11    13    1
   13    11    14    1
   14    14    15    1
   15    14    16    1
   16    14    17    1
   17    17    18    1
   18    17    19    1
   19    17    20    1
@<TRIPOS>SUBSTRUCTURE
       1 MOL1            1 RESIDUE      1      MOL     
@<SCITEGIC>MOL_PROPERTY
VConf Rank
SciTegic.value.IntegerValue
983

@<SCITEGIC>MOL_PROPERTY
Conf_Id
SciTegic.value.IntegerValue
52

@<SCITEGIC>MOL_PROPERTY
Delta U+W
SciTegic.value.DoubleValue
2.995

@<SCITEGIC>MOL_PROPERTY
U+W
SciTegic.value.DoubleValue
-33.282

@<SCITEGIC>MOL_PROPERTY
Grad RMS
SciTegic.value.DoubleValue
0.000000

@<SCITEGIC>MOL_PROPERTY
U
SciTegic.value.DoubleValue
25.224

@<SCITEGIC>MOL_PROPERTY
W
SciTegic.value.DoubleValue
-58.506

@<SCITEGIC>MOL_PROPERTY
W(PB)
SciTegic.value.DoubleValue
-60.411

@<SCITEGIC>MOL_PROPERTY
W(SA)
SciTegic.value.DoubleValue
1.905

@<SCITEGIC>MOL_PROPERTY
Valence
SciTegic.value.DoubleValue
4.945

@<SCITEGIC>MOL_PROPERTY
Coulomb
SciTegic.value.DoubleValue
19.467

@<SCITEGIC>MOL_PROPERTY
VdW
SciTegic.value.DoubleValue
0.813

@<SCITEGIC>MOL_PROPERTY
VdW6
SciTegic.value.DoubleValue
-5.458

@<SCITEGIC>MOL_PROPERTY
VdW12
SciTegic.value.DoubleValue
6.270

@<SCITEGIC>MOL_PROPERTY
Bond
SciTegic.value.DoubleValue
0.200

@<SCITEGIC>MOL_PROPERTY
Angle
SciTegic.value.DoubleValue
1.675

@<SCITEGIC>MOL_PROPERTY
Pdih
SciTegic.value.DoubleValue
3.070

@<SCITEGIC>MOL_PROPERTY
Idih
SciTegic.value.DoubleValue
0.000

@<SCITEGIC>MOL_PROPERTY
Tether
SciTegic.value.DoubleValue
0.000

@<TRIPOS>MOLECULE
guest-s10_confgen4.mol2 : confsearch ligand conformer 984
          20          19           1
SMALL
USER_CHARGES
 
@<TRIPOS>ATOM
       1    N1      19.302068   20.296137   21.855235 N.4        1 MOL1        -0.5937
       2    H1      19.637928   21.107066   22.380564 H          1 MOL1         0.3684
       3    H2      18.557352   20.621582   21.233036 H          1 MOL1         0.3684
       4    H3      20.073786   19.970191   21.269405 H          1 MOL1         0.3684
       5    C1      18.817782   19.208825   22.775272 C.3        1 MOL1         0.1270
       6    H4      18.432160   18.401458   22.145042 H          1 MOL1         0.0960
       7    C2      17.661838   19.735832   23.642346 C.3        1 MOL1        -0.2382
       8    H5      17.999363   20.540222   24.307848 H          1 MOL1         0.1009
       9    H6      17.240254   18.934204   24.261463 H          1 MOL1         0.1009
      10    H7      16.852564   20.128484   23.014466 H          1 MOL1         0.1009
      11    C3      19.942883   18.633313   23.668114 C.3        1 MOL1        -0.1392
      12    H8      20.517589   19.452150   24.120654 H          1 MOL1         0.0998
      13    H9      19.482706   18.091814   24.505431 H          1 MOL1         0.0998
      14    C4      20.897894   17.641996   22.952675 C.3        1 MOL1        -0.1302
      15    H10     20.320094   16.801352   22.543409 H          1 MOL1         0.0998
      16    H11     21.568934   17.208363   23.707456 H          1 MOL1         0.0998
      17    C5      21.762932   18.266329   21.834138 C.3        1 MOL1        -0.2317
      18    H12     22.543720   17.560983   21.520860 H          1 MOL1         0.1009
      19    H13     22.261540   19.181823   22.178489 H          1 MOL1         0.1009
      20    H14     21.167002   18.498146   20.943875 H          1 MOL1         0.1009
@<TRIPOS>BOND
    1     1     2    1
    2     1     3    1
    3     1     4    1
    4     1     5    1
    5     5     6    1
    6     5     7    1
    7     7     8    1
    8     7     9    1
    9     7    10    1
   10     5    11    1
   11    11    12    1
   12    11    13    1
   13    11    14    1
   14    14    15    1
   15    14    16    1
   16    14    17    1
   17    17    18    1
   18    17    19    1
   19    17    20    1
@<TRIPOS>SUBSTRUCTURE
       1 MOL1            1 RESIDUE      1      MOL     
@<SCITEGIC>MOL_PROPERTY
VConf Rank
SciTegic.value.IntegerValue
984

@<SCITEGIC>MOL_PROPERTY
Conf_Id
SciTegic.value.IntegerValue
54

@<SCITEGIC>MOL_PROPERTY
Delta U+W
SciTegic.value.DoubleValue
2.752

@<SCITEGIC>MOL_PROPERTY
U+W
SciTegic.value.DoubleValue
-33.525

@<SCITEGIC>MOL_PROPERTY
Grad RMS
SciTegic.value.DoubleValue
0.000000

@<SCITEGIC>MOL_PROPERTY
U
SciTegic.value.DoubleValue
24.337

@<SCITEGIC>MOL_PROPERTY
W
SciTegic.value.DoubleValue
-57.862

@<SCITEGIC>MOL_PROPERTY
W(PB)
SciTegic.value.DoubleValue
-59.764

@<SCITEGIC>MOL_PROPERTY
W(SA)
SciTegic.value.DoubleValue
1.901

@<SCITEGIC>MOL_PROPERTY
Valence
SciTegic.value.DoubleValue
3.593

@<SCITEGIC>MOL_PROPERTY
Coulomb
SciTegic.value.DoubleValue
20.067

@<SCITEGIC>MOL_PROPERTY
VdW
SciTegic.value.DoubleValue
0.677

@<SCITEGIC>MOL_PROPERTY
VdW6
SciTegic.value.DoubleValue
-5.466

@<SCITEGIC>MOL_PROPERTY
VdW12
SciTegic.value.DoubleValue
6.144

@<SCITEGIC>MOL_PROPERTY
Bond
SciTegic.value.DoubleValue
0.191

@<SCITEGIC>MOL_PROPERTY
Angle
SciTegic.value.DoubleValue
1.557

@<SCITEGIC>MOL_PROPERTY
Pdih
SciTegic.value.DoubleValue
1.845

@<SCITEGIC>MOL_PROPERTY
Idih
SciTegic.value.DoubleValue
0.000

@<SCITEGIC>MOL_PROPERTY
Tether
SciTegic.value.DoubleValue
0.000

@<TRIPOS>MOLECULE
guest-s10_confgen4.mol2 : confsearch ligand conformer 985
          20          19           1
SMALL
USER_CHARGES
 
@<TRIPOS>ATOM
       1    N1      20.452227   17.532207   21.370410 N.4        1 MOL1        -0.5937
       2    H1      20.455258   16.532465   21.150954 H          1 MOL1         0.3684
       3    H2      21.336351   17.920348   21.030728 H          1 MOL1         0.3684
       4    H3      19.699426   17.961577   20.827842 H          1 MOL1         0.3684
       5    C1      20.273160   17.771742   22.845010 C.3        1 MOL1         0.1270
       6    H4      21.108887   17.264876   23.337626 H          1 MOL1         0.0960
       7    C2      18.973012   17.125937   23.356276 C.3        1 MOL1        -0.2382
       8    H5      18.845264   17.304293   24.431144 H          1 MOL1         0.1009
       9    H6      18.997053   16.040454   23.200597 H          1 MOL1         0.1009
      10    H7      18.092021   17.518981   22.835303 H          1 MOL1         0.1009
      11    C3      20.363581   19.271153   23.217359 C.3        1 MOL1        -0.1392
      12    H8      20.315827   19.366861   24.310198 H          1 MOL1         0.0998
      13    H9      21.355053   19.641871   22.925882 H          1 MOL1         0.0998
      14    C4      19.275631   20.171434   22.576888 C.3        1 MOL1        -0.1302
      15    H10     18.276723   19.847856   22.898589 H          1 MOL1         0.0998
      16    H11     19.303538   20.080127   21.482792 H          1 MOL1         0.0998
      17    C5      19.468012   21.653813   22.962726 C.3        1 MOL1        -0.2317
      18    H12     18.690026   22.277956   22.504196 H          1 MOL1         0.1009
      19    H13     20.442628   22.027672   22.622763 H          1 MOL1         0.1009
      20    H14     19.410398   21.789680   24.050588 H          1 MOL1         0.1009
@<TRIPOS>BOND
    1     1     2    1
    2     1     3    1
    3     1     4    1
    4     1     5    1
    5     5     6    1
    6     5     7    1
    7     7     8    1
    8     7     9    1
    9     7    10    1
   10     5    11    1
   11    11    12    1
   12    11    13    1
   13    11    14    1
   14    14    15    1
   15    14    16    1
   16    14    17    1
   17    17    18    1
   18    17    19    1
   19    17    20    1
@<TRIPOS>SUBSTRUCTURE
       1 MOL1            1 RESIDUE      1      MOL     
@<SCITEGIC>MOL_PROPERTY
VConf Rank
SciTegic.value.IntegerValue
985

@<SCITEGIC>MOL_PROPERTY
Conf_Id
SciTegic.value.IntegerValue
63

@<SCITEGIC>MOL_PROPERTY
Delta U+W
SciTegic.value.DoubleValue
0.420

@<SCITEGIC>MOL_PROPERTY
U+W
SciTegic.value.DoubleValue
-35.856

@<SCITEGIC>MOL_PROPERTY
Grad RMS
SciTegic.value.DoubleValue
0.000000

@<SCITEGIC>MOL_PROPERTY
U
SciTegic.value.DoubleValue
22.625

@<SCITEGIC>MOL_PROPERTY
W
SciTegic.value.DoubleValue
-58.481

@<SCITEGIC>MOL_PROPERTY
W(PB)
SciTegic.value.DoubleValue
-60.400

@<SCITEGIC>MOL_PROPERTY
W(SA)
SciTegic.value.DoubleValue
1.919

@<SCITEGIC>MOL_PROPERTY
Valence
SciTegic.value.DoubleValue
2.404

@<SCITEGIC>MOL_PROPERTY
Coulomb
SciTegic.value.DoubleValue
19.464

@<SCITEGIC>MOL_PROPERTY
VdW
SciTegic.value.DoubleValue
0.757

@<SCITEGIC>MOL_PROPERTY
VdW6
SciTegic.value.DoubleValue
-5.074

@<SCITEGIC>MOL_PROPERTY
VdW12
SciTegic.value.DoubleValue
5.830

@<SCITEGIC>MOL_PROPERTY
Bond
SciTegic.value.DoubleValue
0.172

@<SCITEGIC>MOL_PROPERTY
Angle
SciTegic.value.DoubleValue
1.207

@<SCITEGIC>MOL_PROPERTY
Pdih
SciTegic.value.DoubleValue
1.025

@<SCITEGIC>MOL_PROPERTY
Idih
SciTegic.value.DoubleValue
0.000

@<SCITEGIC>MOL_PROPERTY
Tether
SciTegic.value.DoubleValue
0.000

@<TRIPOS>MOLECULE
guest-s10_confgen4.mol2 : confsearch ligand conformer 986
          20          19           1
SMALL
USER_CHARGES
 
@<TRIPOS>ATOM
       1    N1      21.212809   19.207037   21.893165 N.4        1 MOL1        -0.5937
       2    H1      20.651964   19.050894   21.051770 H          1 MOL1         0.3684
       3    H2      21.817609   18.391226   22.016016 H          1 MOL1         0.3684
       4    H3      21.818182   20.012177   21.712014 H          1 MOL1         0.3684
       5    C1      20.340035   19.432584   23.097977 C.3        1 MOL1         0.1270
       6    H4      19.733071   20.317809   22.885608 H          1 MOL1         0.0960
       7    C2      21.195611   19.726464   24.341012 C.3        1 MOL1        -0.2382
       8    H5      21.845015   20.593671   24.169357 H          1 MOL1         0.1009
       9    H6      21.830719   18.869601   24.598259 H          1 MOL1         0.1009
      10    H7      20.560621   19.952972   25.206520 H          1 MOL1         0.1009
      11    C3      19.387752   18.245602   23.368553 C.3        1 MOL1        -0.1392
      12    H8      19.978989   17.349743   23.600303 H          1 MOL1         0.0998
      13    H9      18.793916   18.461624   24.266674 H          1 MOL1         0.0998
      14    C4      18.421886   17.926889   22.199184 C.3        1 MOL1        -0.1302
      15    H10     17.793548   17.071384   22.484152 H          1 MOL1         0.0998
      16    H11     18.988580   17.603564   21.315507 H          1 MOL1         0.0998
      17    C5      17.508377   19.116796   21.826370 C.3        1 MOL1        -0.2317
      18    H12     16.930756   19.458037   22.695329 H          1 MOL1         0.1009
      19    H13     16.795185   18.823903   21.044936 H          1 MOL1         0.1009
      20    H14     18.086733   19.967156   21.443894 H          1 MOL1         0.1009
@<TRIPOS>BOND
    1     1     2    1
    2     1     3    1
    3     1     4    1
    4     1     5    1
    5     5     6    1
    6     5     7    1
    7     7     8    1
    8     7     9    1
    9     7    10    1
   10     5    11    1
   11    11    12    1
   12    11    13    1
   13    11    14    1
   14    14    15    1
   15    14    16    1
   16    14    17    1
   17    17    18    1
   18    17    19    1
   19    17    20    1
@<TRIPOS>SUBSTRUCTURE
       1 MOL1            1 RESIDUE      1      MOL     
@<SCITEGIC>MOL_PROPERTY
VConf Rank
SciTegic.value.IntegerValue
986

@<SCITEGIC>MOL_PROPERTY
Conf_Id
SciTegic.value.IntegerValue
50

@<SCITEGIC>MOL_PROPERTY
Delta U+W
SciTegic.value.DoubleValue
0.466

@<SCITEGIC>MOL_PROPERTY
U+W
SciTegic.value.DoubleValue
-35.811

@<SCITEGIC>MOL_PROPERTY
Grad RMS
SciTegic.value.DoubleValue
0.000000

@<SCITEGIC>MOL_PROPERTY
U
SciTegic.value.DoubleValue
22.369

@<SCITEGIC>MOL_PROPERTY
W
SciTegic.value.DoubleValue
-58.180

@<SCITEGIC>MOL_PROPERTY
W(PB)
SciTegic.value.DoubleValue
-60.103

@<SCITEGIC>MOL_PROPERTY
W(SA)
SciTegic.value.DoubleValue
1.923

@<SCITEGIC>MOL_PROPERTY
Valence
SciTegic.value.DoubleValue
2.168

@<SCITEGIC>MOL_PROPERTY
Coulomb
SciTegic.value.DoubleValue
19.636

@<SCITEGIC>MOL_PROPERTY
VdW
SciTegic.value.DoubleValue
0.566

@<SCITEGIC>MOL_PROPERTY
VdW6
SciTegic.value.DoubleValue
-5.263

@<SCITEGIC>MOL_PROPERTY
VdW12
SciTegic.value.DoubleValue
5.829

@<SCITEGIC>MOL_PROPERTY
Bond
SciTegic.value.DoubleValue
0.162

@<SCITEGIC>MOL_PROPERTY
Angle
SciTegic.value.DoubleValue
1.066

@<SCITEGIC>MOL_PROPERTY
Pdih
SciTegic.value.DoubleValue
0.939

@<SCITEGIC>MOL_PROPERTY
Idih
SciTegic.value.DoubleValue
0.000

@<SCITEGIC>MOL_PROPERTY
Tether
SciTegic.value.DoubleValue
0.000

@<TRIPOS>MOLECULE
guest-s10_confgen4.mol2 : confsearch ligand conformer 987
          20          19           1
SMALL
USER_CHARGES
 
@<TRIPOS>ATOM
       1    N1      19.191501   19.716835   24.859477 N.4        1 MOL1        -0.5937
       2    H1      20.099829   19.944459   25.273150 H          1 MOL1         0.3684
       3    H2      18.796880   18.938684   25.393918 H          1 MOL1         0.3684
       4    H3      18.581830   20.526043   25.005144 H          1 MOL1         0.3684
       5    C1      19.316316   19.377236   23.398767 C.3        1 MOL1         0.1270
       6    H4      19.746170   20.260518   22.916273 H          1 MOL1         0.0960
       7    C2      17.922661   19.115413   22.797819 C.3        1 MOL1        -0.2382
       8    H5      17.434653   18.263683   23.287789 H          1 MOL1         0.1009
       9    H6      17.980427   18.898512   21.725715 H          1 MOL1         0.1009
      10    H7      17.277047   19.993309   22.922758 H          1 MOL1         0.1009
      11    C3      20.275300   18.184465   23.162379 C.3        1 MOL1        -0.1392
      12    H8      20.890651   18.034813   24.059385 H          1 MOL1         0.0998
      13    H9      19.706143   17.253815   23.036038 H          1 MOL1         0.0998
      14    C4      21.242381   18.384016   21.967927 C.3        1 MOL1        -0.1302
      15    H10     21.930772   17.528218   21.927180 H          1 MOL1         0.0998
      16    H11     21.867790   19.270203   22.145739 H          1 MOL1         0.0998
      17    C5      20.537822   18.520305   20.599988 C.3        1 MOL1        -0.2317
      18    H12     19.870985   17.669045   20.411010 H          1 MOL1         0.1009
      19    H13     21.277400   18.552180   19.789403 H          1 MOL1         0.1009
      20    H14     19.949121   19.444293   20.542471 H          1 MOL1         0.1009
@<TRIPOS>BOND
    1     1     2    1
    2     1     3    1
    3     1     4    1
    4     1     5    1
    5     5     6    1
    6     5     7    1
    7     7     8    1
    8     7     9    1
    9     7    10    1
   10     5    11    1
   11    11    12    1
   12    11    13    1
   13    11    14    1
   14    14    15    1
   15    14    16    1
   16    14    17    1
   17    17    18    1
   18    17    19    1
   19    17    20    1
@<TRIPOS>SUBSTRUCTURE
       1 MOL1            1 RESIDUE      1      MOL     
@<SCITEGIC>MOL_PROPERTY
VConf Rank
SciTegic.value.IntegerValue
987

@<SCITEGIC>MOL_PROPERTY
Conf_Id
SciTegic.value.IntegerValue
3

@<SCITEGIC>MOL_PROPERTY
Delta U+W
SciTegic.value.DoubleValue
3.093

@<SCITEGIC>MOL_PROPERTY
U+W
SciTegic.value.DoubleValue
-33.184

@<SCITEGIC>MOL_PROPERTY
Grad RMS
SciTegic.value.DoubleValue
0.000000

@<SCITEGIC>MOL_PROPERTY
U
SciTegic.value.DoubleValue
25.256

@<SCITEGIC>MOL_PROPERTY
W
SciTegic.value.DoubleValue
-58.439

@<SCITEGIC>MOL_PROPERTY
W(PB)
SciTegic.value.DoubleValue
-60.337

@<SCITEGIC>MOL_PROPERTY
W(SA)
SciTegic.value.DoubleValue
1.898

@<SCITEGIC>MOL_PROPERTY
Valence
SciTegic.value.DoubleValue
4.963

@<SCITEGIC>MOL_PROPERTY
Coulomb
SciTegic.value.DoubleValue
19.511

@<SCITEGIC>MOL_PROPERTY
VdW
SciTegic.value.DoubleValue
0.782

@<SCITEGIC>MOL_PROPERTY
VdW6
SciTegic.value.DoubleValue
-5.429

@<SCITEGIC>MOL_PROPERTY
VdW12
SciTegic.value.DoubleValue
6.211

@<SCITEGIC>MOL_PROPERTY
Bond
SciTegic.value.DoubleValue
0.174

@<SCITEGIC>MOL_PROPERTY
Angle
SciTegic.value.DoubleValue
1.377

@<SCITEGIC>MOL_PROPERTY
Pdih
SciTegic.value.DoubleValue
3.412

@<SCITEGIC>MOL_PROPERTY
Idih
SciTegic.value.DoubleValue
0.000

@<SCITEGIC>MOL_PROPERTY
Tether
SciTegic.value.DoubleValue
0.000

@<TRIPOS>MOLECULE
guest-s10_confgen4.mol2 : confsearch ligand conformer 988
          20          19           1
SMALL
USER_CHARGES
 
@<TRIPOS>ATOM
       1    N1      19.635788   17.598818   20.918050 N.4        1 MOL1        -0.5937
       2    H1      19.184400   16.680280   20.904850 H          1 MOL1         0.3684
       3    H2      20.627306   17.451438   20.710684 H          1 MOL1         0.3684
       4    H3      19.239415   18.143289   20.147904 H          1 MOL1         0.3684
       5    C1      19.441525   18.289182   22.240185 C.3        1 MOL1         0.1270
       6    H4      19.889493   17.636562   22.995504 H          1 MOL1         0.0960
       7    C2      17.941143   18.435697   22.552418 C.3        1 MOL1        -0.2382
       8    H5      17.781418   18.808694   23.570699 H          1 MOL1         0.1009
       9    H6      17.434346   17.465689   22.479101 H          1 MOL1         0.1009
      10    H7      17.455558   19.127139   21.852702 H          1 MOL1         0.1009
      11    C3      20.177847   19.649713   22.275033 C.3        1 MOL1        -0.1392
      12    H8      21.220038   19.493125   21.967065 H          1 MOL1         0.0998
      13    H9      19.736818   20.320858   21.526171 H          1 MOL1         0.0998
      14    C4      20.178212   20.359462   23.653205 C.3        1 MOL1        -0.1302
      15    H10     19.156958   20.651820   23.932202 H          1 MOL1         0.0998
      16    H11     20.745171   21.296900   23.565984 H          1 MOL1         0.0998
      17    C5      20.801260   19.500343   24.776983 C.3        1 MOL1        -0.2317
      18    H12     21.823158   19.193272   24.518933 H          1 MOL1         0.1009
      19    H13     20.209168   18.596696   24.969111 H          1 MOL1         0.1009
      20    H14     20.849284   20.069490   25.714418 H          1 MOL1         0.1009
@<TRIPOS>BOND
    1     1     2    1
    2     1     3    1
    3     1     4    1
    4     1     5    1
    5     5     6    1
    6     5     7    1
    7     7     8    1
    8     7     9    1
    9     7    10    1
   10     5    11    1
   11    11    12    1
   12    11    13    1
   13    11    14    1
   14    14    15    1
   15    14    16    1
   16    14    17    1
   17    17    18    1
   18    17    19    1
   19    17    20    1
@<TRIPOS>SUBSTRUCTURE
       1 MOL1            1 RESIDUE      1      MOL     
@<SCITEGIC>MOL_PROPERTY
VConf Rank
SciTegic.value.IntegerValue
988

@<SCITEGIC>MOL_PROPERTY
Conf_Id
SciTegic.value.IntegerValue
64

@<SCITEGIC>MOL_PROPERTY
Delta U+W
SciTegic.value.DoubleValue
0.544

@<SCITEGIC>MOL_PROPERTY
U+W
SciTegic.value.DoubleValue
-35.732

@<SCITEGIC>MOL_PROPERTY
Grad RMS
SciTegic.value.DoubleValue
0.000000

@<SCITEGIC>MOL_PROPERTY
U
SciTegic.value.DoubleValue
22.800

@<SCITEGIC>MOL_PROPERTY
W
SciTegic.value.DoubleValue
-58.532

@<SCITEGIC>MOL_PROPERTY
W(PB)
SciTegic.value.DoubleValue
-60.437

@<SCITEGIC>MOL_PROPERTY
W(SA)
SciTegic.value.DoubleValue
1.905

@<SCITEGIC>MOL_PROPERTY
Valence
SciTegic.value.DoubleValue
2.662

@<SCITEGIC>MOL_PROPERTY
Coulomb
SciTegic.value.DoubleValue
19.485

@<SCITEGIC>MOL_PROPERTY
VdW
SciTegic.value.DoubleValue
0.653

@<SCITEGIC>MOL_PROPERTY
VdW6
SciTegic.value.DoubleValue
-5.460

@<SCITEGIC>MOL_PROPERTY
VdW12
SciTegic.value.DoubleValue
6.113

@<SCITEGIC>MOL_PROPERTY
Bond
SciTegic.value.DoubleValue
0.174

@<SCITEGIC>MOL_PROPERTY
Angle
SciTegic.value.DoubleValue
1.378

@<SCITEGIC>MOL_PROPERTY
Pdih
SciTegic.value.DoubleValue
1.109

@<SCITEGIC>MOL_PROPERTY
Idih
SciTegic.value.DoubleValue
0.000

@<SCITEGIC>MOL_PROPERTY
Tether
SciTegic.value.DoubleValue
0.000

@<TRIPOS>MOLECULE
guest-s10_confgen4.mol2 : confsearch ligand conformer 989
          20          19           1
SMALL
USER_CHARGES
 
@<TRIPOS>ATOM
       1    N1      17.772351   19.490621   22.404583 N.4        1 MOL1        -0.5937
       2    H1      18.144433   19.534890   21.453337 H          1 MOL1         0.3684
       3    H2      17.247764   20.354159   22.568056 H          1 MOL1         0.3684
       4    H3      17.102099   18.717709   22.436670 H          1 MOL1         0.3684
       5    C1      18.870598   19.313624   23.418169 C.3        1 MOL1         0.1270
       6    H4      18.375880   19.289569   24.394201 H          1 MOL1         0.0960
       7    C2      19.820074   20.522840   23.414376 C.3        1 MOL1        -0.2382
       8    H5      20.252378   20.690789   22.421091 H          1 MOL1         0.1009
       9    H6      20.637393   20.380468   24.132052 H          1 MOL1         0.1009
      10    H7      19.280770   21.433828   23.701123 H          1 MOL1         0.1009
      11    C3      19.611812   17.962808   23.254342 C.3        1 MOL1        -0.1392
      12    H8      20.276398   17.805447   24.114027 H          1 MOL1         0.0998
      13    H9      18.859705   17.165812   23.322265 H          1 MOL1         0.0998
      14    C4      20.406087   17.771003   21.932387 C.3        1 MOL1        -0.1302
      15    H10     19.931864   18.318513   21.107327 H          1 MOL1         0.0998
      16    H11     20.360013   16.709268   21.652067 H          1 MOL1         0.0998
      17    C5      21.897729   18.164842   22.044814 C.3        1 MOL1        -0.2317
      18    H12     22.028664   19.226803   22.279486 H          1 MOL1         0.1009
      19    H13     22.418072   17.969194   21.098278 H          1 MOL1         0.1009
      20    H14     22.400532   17.580756   22.826528 H          1 MOL1         0.1009
@<TRIPOS>BOND
    1     1     2    1
    2     1     3    1
    3     1     4    1
    4     1     5    1
    5     5     6    1
    6     5     7    1
    7     7     8    1
    8     7     9    1
    9     7    10    1
   10     5    11    1
   11    11    12    1
   12    11    13    1
   13    11    14    1
   14    14    15    1
   15    14    16    1
   16    14    17    1
   17    17    18    1
   18    17    19    1
   19    17    20    1
@<TRIPOS>SUBSTRUCTURE
       1 MOL1            1 RESIDUE      1      MOL     
@<SCITEGIC>MOL_PROPERTY
VConf Rank
SciTegic.value.IntegerValue
989

@<SCITEGIC>MOL_PROPERTY
Conf_Id
SciTegic.value.IntegerValue
35

@<SCITEGIC>MOL_PROPERTY
Delta U+W
SciTegic.value.DoubleValue
3.004

@<SCITEGIC>MOL_PROPERTY
U+W
SciTegic.value.DoubleValue
-33.272

@<SCITEGIC>MOL_PROPERTY
Grad RMS
SciTegic.value.DoubleValue
0.000000

@<SCITEGIC>MOL_PROPERTY
U
SciTegic.value.DoubleValue
25.367

@<SCITEGIC>MOL_PROPERTY
W
SciTegic.value.DoubleValue
-58.639

@<SCITEGIC>MOL_PROPERTY
W(PB)
SciTegic.value.DoubleValue
-60.512

@<SCITEGIC>MOL_PROPERTY
W(SA)
SciTegic.value.DoubleValue
1.873

@<SCITEGIC>MOL_PROPERTY
Valence
SciTegic.value.DoubleValue
4.943

@<SCITEGIC>MOL_PROPERTY
Coulomb
SciTegic.value.DoubleValue
19.661

@<SCITEGIC>MOL_PROPERTY
VdW
SciTegic.value.DoubleValue
0.764

@<SCITEGIC>MOL_PROPERTY
VdW6
SciTegic.value.DoubleValue
-5.871

@<SCITEGIC>MOL_PROPERTY
VdW12
SciTegic.value.DoubleValue
6.636

@<SCITEGIC>MOL_PROPERTY
Bond
SciTegic.value.DoubleValue
0.230

@<SCITEGIC>MOL_PROPERTY
Angle
SciTegic.value.DoubleValue
1.857

@<SCITEGIC>MOL_PROPERTY
Pdih
SciTegic.value.DoubleValue
2.855

@<SCITEGIC>MOL_PROPERTY
Idih
SciTegic.value.DoubleValue
0.000

@<SCITEGIC>MOL_PROPERTY
Tether
SciTegic.value.DoubleValue
0.000

@<TRIPOS>MOLECULE
guest-s10_confgen4.mol2 : confsearch ligand conformer 990
          20          19           1
SMALL
USER_CHARGES
 
@<TRIPOS>ATOM
       1    N1      18.859745   19.704372   21.377047 N.4        1 MOL1        -0.5937
       2    H1      18.638242   19.513119   20.396251 H          1 MOL1         0.3684
       3    H2      18.649075   20.690903   21.550122 H          1 MOL1         0.3684
       4    H3      18.222883   19.150041   21.952479 H          1 MOL1         0.3684
       5    C1      20.295515   19.384474   21.691203 C.3        1 MOL1         0.1270
       6    H4      20.886219   20.043145   21.046883 H          1 MOL1         0.0960
       7    C2      20.644729   17.935420   21.308055 C.3        1 MOL1        -0.2382
       8    H5      20.022185   17.212436   21.848451 H          1 MOL1         0.1009
       9    H6      21.696804   17.717413   21.529484 H          1 MOL1         0.1009
      10    H7      20.490594   17.774117   20.234187 H          1 MOL1         0.1009
      11    C3      20.686411   19.719647   23.153452 C.3        1 MOL1        -0.1392
      12    H8      21.782564   19.757509   23.204007 H          1 MOL1         0.0998
      13    H9      20.349400   20.738040   23.386937 H          1 MOL1         0.0998
      14    C4      20.193300   18.749566   24.263579 C.3        1 MOL1        -0.1302
      15    H10     20.591712   19.103511   25.224731 H          1 MOL1         0.0998
      16    H11     20.625388   17.750497   24.115958 H          1 MOL1         0.0998
      17    C5      18.656684   18.638193   24.387401 C.3        1 MOL1        -0.2317
      18    H12     18.189213   19.629488   24.450221 H          1 MOL1         0.1009
      19    H13     18.388089   18.085830   25.297303 H          1 MOL1         0.1009
      20    H14     18.221857   18.093821   23.541320 H          1 MOL1         0.1009
@<TRIPOS>BOND
    1     1     2    1
    2     1     3    1
    3     1     4    1
    4     1     5    1
    5     5     6    1
    6     5     7    1
    7     7     8    1
    8     7     9    1
    9     7    10    1
   10     5    11    1
   11    11    12    1
   12    11    13    1
   13    11    14    1
   14    14    15    1
   15    14    16    1
   16    14    17    1
   17    17    18    1
   18    17    19    1
   19    17    20    1
@<TRIPOS>SUBSTRUCTURE
       1 MOL1            1 RESIDUE      1      MOL     
@<SCITEGIC>MOL_PROPERTY
VConf Rank
SciTegic.value.IntegerValue
990

@<SCITEGIC>MOL_PROPERTY
Conf_Id
SciTegic.value.IntegerValue
55

@<SCITEGIC>MOL_PROPERTY
Delta U+W
SciTegic.value.DoubleValue
2.767

@<SCITEGIC>MOL_PROPERTY
U+W
SciTegic.value.DoubleValue
-33.509

@<SCITEGIC>MOL_PROPERTY
Grad RMS
SciTegic.value.DoubleValue
0.000000

@<SCITEGIC>MOL_PROPERTY
U
SciTegic.value.DoubleValue
24.552

@<SCITEGIC>MOL_PROPERTY
W
SciTegic.value.DoubleValue
-58.061

@<SCITEGIC>MOL_PROPERTY
W(PB)
SciTegic.value.DoubleValue
-59.930

@<SCITEGIC>MOL_PROPERTY
W(SA)
SciTegic.value.DoubleValue
1.869

@<SCITEGIC>MOL_PROPERTY
Valence
SciTegic.value.DoubleValue
3.726

@<SCITEGIC>MOL_PROPERTY
Coulomb
SciTegic.value.DoubleValue
20.219

@<SCITEGIC>MOL_PROPERTY
VdW
SciTegic.value.DoubleValue
0.606

@<SCITEGIC>MOL_PROPERTY
VdW6
SciTegic.value.DoubleValue
-6.395

@<SCITEGIC>MOL_PROPERTY
VdW12
SciTegic.value.DoubleValue
7.001

@<SCITEGIC>MOL_PROPERTY
Bond
SciTegic.value.DoubleValue
0.241

@<SCITEGIC>MOL_PROPERTY
Angle
SciTegic.value.DoubleValue
2.098

@<SCITEGIC>MOL_PROPERTY
Pdih
SciTegic.value.DoubleValue
1.387

@<SCITEGIC>MOL_PROPERTY
Idih
SciTegic.value.DoubleValue
0.000

@<SCITEGIC>MOL_PROPERTY
Tether
SciTegic.value.DoubleValue
0.000

@<TRIPOS>MOLECULE
guest-s10_confgen4.mol2 : confsearch ligand conformer 991
          20          19           1
SMALL
USER_CHARGES
 
@<TRIPOS>ATOM
       1    N1      20.118100   20.777762   23.371982 N.4        1 MOL1        -0.5937
       2    H1      19.147554   21.088638   23.461097 H          1 MOL1         0.3684
       3    H2      20.696737   21.613812   23.254268 H          1 MOL1         0.3684
       4    H3      20.385572   20.345948   24.260000 H          1 MOL1         0.3684
       5    C1      20.288033   19.823706   22.220478 C.3        1 MOL1         0.1270
       6    H4      21.344960   19.540214   22.199842 H          1 MOL1         0.0960
       7    C2      19.949854   20.516900   20.890408 C.3        1 MOL1        -0.2382
       8    H5      20.570921   21.409922   20.748805 H          1 MOL1         0.1009
       9    H6      18.897088   20.824277   20.858840 H          1 MOL1         0.1009
      10    H7      20.135179   19.845785   20.042530 H          1 MOL1         0.1009
      11    C3      19.446772   18.538688   22.385270 C.3        1 MOL1        -0.1392
      12    H8      18.380762   18.798097   22.432664 H          1 MOL1         0.0998
      13    H9      19.577004   17.913172   21.492053 H          1 MOL1         0.0998
      14    C4      19.840260   17.713103   23.633907 C.3        1 MOL1        -0.1302
      15    H10     19.665332   18.298305   24.546795 H          1 MOL1         0.0998
      16    H11     20.915031   17.484702   23.603208 H          1 MOL1         0.0998
      17    C5      19.040266   16.395657   23.721375 C.3        1 MOL1        -0.2317
      18    H12     17.961919   16.591822   23.784174 H          1 MOL1         0.1009
      19    H13     19.330702   15.824117   24.612483 H          1 MOL1         0.1009
      20    H14     19.221960   15.763298   22.842545 H          1 MOL1         0.1009
@<TRIPOS>BOND
    1     1     2    1
    2     1     3    1
    3     1     4    1
    4     1     5    1
    5     5     6    1
    6     5     7    1
    7     7     8    1
    8     7     9    1
    9     7    10    1
   10     5    11    1
   11    11    12    1
   12    11    13    1
   13    11    14    1
   14    14    15    1
   15    14    16    1
   16    14    17    1
   17    17    18    1
   18    17    19    1
   19    17    20    1
@<TRIPOS>SUBSTRUCTURE
       1 MOL1            1 RESIDUE      1      MOL     
@<SCITEGIC>MOL_PROPERTY
VConf Rank
SciTegic.value.IntegerValue
991

@<SCITEGIC>MOL_PROPERTY
Conf_Id
SciTegic.value.IntegerValue
74

@<SCITEGIC>MOL_PROPERTY
Delta U+W
SciTegic.value.DoubleValue
0.000

@<SCITEGIC>MOL_PROPERTY
U+W
SciTegic.value.DoubleValue
-36.276

@<SCITEGIC>MOL_PROPERTY
Grad RMS
SciTegic.value.DoubleValue
0.000000

@<SCITEGIC>MOL_PROPERTY
U
SciTegic.value.DoubleValue
22.080

@<SCITEGIC>MOL_PROPERTY
W
SciTegic.value.DoubleValue
-58.356

@<SCITEGIC>MOL_PROPERTY
W(PB)
SciTegic.value.DoubleValue
-60.289

@<SCITEGIC>MOL_PROPERTY
W(SA)
SciTegic.value.DoubleValue
1.932

@<SCITEGIC>MOL_PROPERTY
Valence
SciTegic.value.DoubleValue
1.885

@<SCITEGIC>MOL_PROPERTY
Coulomb
SciTegic.value.DoubleValue
19.559

@<SCITEGIC>MOL_PROPERTY
VdW
SciTegic.value.DoubleValue
0.637

@<SCITEGIC>MOL_PROPERTY
VdW6
SciTegic.value.DoubleValue
-4.482

@<SCITEGIC>MOL_PROPERTY
VdW12
SciTegic.value.DoubleValue
5.119

@<SCITEGIC>MOL_PROPERTY
Bond
SciTegic.value.DoubleValue
0.136

@<SCITEGIC>MOL_PROPERTY
Angle
SciTegic.value.DoubleValue
0.867

@<SCITEGIC>MOL_PROPERTY
Pdih
SciTegic.value.DoubleValue
0.882

@<SCITEGIC>MOL_PROPERTY
Idih
SciTegic.value.DoubleValue
0.000

@<SCITEGIC>MOL_PROPERTY
Tether
SciTegic.value.DoubleValue
0.000

@<TRIPOS>MOLECULE
guest-s10_confgen4.mol2 : confsearch ligand conformer 992
          20          19           1
SMALL
USER_CHARGES
 
@<TRIPOS>ATOM
       1    N1      21.683170   17.899643   23.654795 N.4        1 MOL1        -0.5937
       2    H1      21.848309   18.476707   24.484001 H          1 MOL1         0.3684
       3    H2      22.356844   18.188872   22.941186 H          1 MOL1         0.3684
       4    H3      21.906067   16.933723   23.909734 H          1 MOL1         0.3684
       5    C1      20.267601   18.026645   23.162351 C.3        1 MOL1         0.1270
       6    H4      19.624727   17.695602   23.983929 H          1 MOL1         0.0960
       7    C2      20.035684   17.095535   21.958172 C.3        1 MOL1        -0.2382
       8    H5      20.339352   16.069405   22.199140 H          1 MOL1         0.1009
       9    H6      20.612573   17.424382   21.084880 H          1 MOL1         0.1009
      10    H7      18.976686   17.061517   21.677835 H          1 MOL1         0.1009
      11    C3      19.918197   19.497694   22.837665 C.3        1 MOL1        -0.1392
      12    H8      20.206712   20.120546   23.694681 H          1 MOL1         0.0998
      13    H9      20.521087   19.841829   21.986817 H          1 MOL1         0.0998
      14    C4      18.416724   19.733415   22.542407 C.3        1 MOL1        -0.1302
      15    H10     17.809506   19.331883   23.365892 H          1 MOL1         0.0998
      16    H11     18.117680   19.194300   21.633657 H          1 MOL1         0.0998
      17    C5      18.100970   21.233448   22.358336 C.3        1 MOL1        -0.2317
      18    H12     18.346038   21.803660   23.263895 H          1 MOL1         0.1009
      19    H13     17.034154   21.381904   22.146317 H          1 MOL1         0.1009
      20    H14     18.672379   21.657530   21.522330 H          1 MOL1         0.1009
@<TRIPOS>BOND
    1     1     2    1
    2     1     3    1
    3     1     4    1
    4     1     5    1
    5     5     6    1
    6     5     7    1
    7     7     8    1
    8     7     9    1
    9     7    10    1
   10     5    11    1
   11    11    12    1
   12    11    13    1
   13    11    14    1
   14    14    15    1
   15    14    16    1
   16    14    17    1
   17    17    18    1
   18    17    19    1
   19    17    20    1
@<TRIPOS>SUBSTRUCTURE
       1 MOL1            1 RESIDUE      1      MOL     
@<SCITEGIC>MOL_PROPERTY
VConf Rank
SciTegic.value.IntegerValue
992

@<SCITEGIC>MOL_PROPERTY
Conf_Id
SciTegic.value.IntegerValue
80

@<SCITEGIC>MOL_PROPERTY
Delta U+W
SciTegic.value.DoubleValue
0.460

@<SCITEGIC>MOL_PROPERTY
U+W
SciTegic.value.DoubleValue
-35.817

@<SCITEGIC>MOL_PROPERTY
Grad RMS
SciTegic.value.DoubleValue
0.000000

@<SCITEGIC>MOL_PROPERTY
U
SciTegic.value.DoubleValue
22.495

@<SCITEGIC>MOL_PROPERTY
W
SciTegic.value.DoubleValue
-58.311

@<SCITEGIC>MOL_PROPERTY
W(PB)
SciTegic.value.DoubleValue
-60.259

@<SCITEGIC>MOL_PROPERTY
W(SA)
SciTegic.value.DoubleValue
1.948

@<SCITEGIC>MOL_PROPERTY
Valence
SciTegic.value.DoubleValue
2.419

@<SCITEGIC>MOL_PROPERTY
Coulomb
SciTegic.value.DoubleValue
19.304

@<SCITEGIC>MOL_PROPERTY
VdW
SciTegic.value.DoubleValue
0.772

@<SCITEGIC>MOL_PROPERTY
VdW6
SciTegic.value.DoubleValue
-4.635

@<SCITEGIC>MOL_PROPERTY
VdW12
SciTegic.value.DoubleValue
5.407

@<SCITEGIC>MOL_PROPERTY
Bond
SciTegic.value.DoubleValue
0.149

@<SCITEGIC>MOL_PROPERTY
Angle
SciTegic.value.DoubleValue
1.142

@<SCITEGIC>MOL_PROPERTY
Pdih
SciTegic.value.DoubleValue
1.129

@<SCITEGIC>MOL_PROPERTY
Idih
SciTegic.value.DoubleValue
0.000

@<SCITEGIC>MOL_PROPERTY
Tether
SciTegic.value.DoubleValue
0.000

@<TRIPOS>MOLECULE
guest-s10_confgen4.mol2 : confsearch ligand conformer 993
          20          19           1
SMALL
USER_CHARGES
 
@<TRIPOS>ATOM
       1    N1      19.738435   17.545399   20.734585 N.4        1 MOL1        -0.5937
       2    H1      19.052982   17.894714   20.059348 H          1 MOL1         0.3684
       3    H2      19.332248   16.721728   21.185436 H          1 MOL1         0.3684
       4    H3      20.553482   17.229687   20.202008 H          1 MOL1         0.3684
       5    C1      20.112793   18.597950   21.741930 C.3        1 MOL1         0.1270
       6    H4      20.539932   19.428989   21.172083 H          1 MOL1         0.0960
       7    C2      21.197314   18.063058   22.692699 C.3        1 MOL1        -0.2382
       8    H5      22.026503   17.622312   22.125837 H          1 MOL1         0.1009
       9    H6      20.795099   17.293111   23.362668 H          1 MOL1         0.1009
      10    H7      21.618502   18.870869   23.301837 H          1 MOL1         0.1009
      11    C3      18.862073   19.121286   22.489696 C.3        1 MOL1        -0.1392
      12    H8      18.136369   19.444271   21.731588 H          1 MOL1         0.0998
      13    H9      18.376957   18.302302   23.037105 H          1 MOL1         0.0998
      14    C4      19.119923   20.322065   23.438003 C.3        1 MOL1        -0.1302
      15    H10     18.256648   21.000484   23.386816 H          1 MOL1         0.0998
      16    H11     19.982725   20.906500   23.088755 H          1 MOL1         0.0998
      17    C5      19.312092   19.908140   24.916101 C.3        1 MOL1        -0.2317
      18    H12     18.422707   19.389122   25.296538 H          1 MOL1         0.1009
      19    H13     19.474139   20.793290   25.544776 H          1 MOL1         0.1009
      20    H14     20.172914   19.243781   25.050838 H          1 MOL1         0.1009
@<TRIPOS>BOND
    1     1     2    1
    2     1     3    1
    3     1     4    1
    4     1     5    1
    5     5     6    1
    6     5     7    1
    7     7     8    1
    8     7     9    1
    9     7    10    1
   10     5    11    1
   11    11    12    1
   12    11    13    1
   13    11    14    1
   14    14    15    1
   15    14    16    1
   16    14    17    1
   17    17    18    1
   18    17    19    1
   19    17    20    1
@<TRIPOS>SUBSTRUCTURE
       1 MOL1            1 RESIDUE      1      MOL     
@<SCITEGIC>MOL_PROPERTY
VConf Rank
SciTegic.value.IntegerValue
993

@<SCITEGIC>MOL_PROPERTY
Conf_Id
SciTegic.value.IntegerValue
52

@<SCITEGIC>MOL_PROPERTY
Delta U+W
SciTegic.value.DoubleValue
2.995

@<SCITEGIC>MOL_PROPERTY
U+W
SciTegic.value.DoubleValue
-33.282

@<SCITEGIC>MOL_PROPERTY
Grad RMS
SciTegic.value.DoubleValue
0.000000

@<SCITEGIC>MOL_PROPERTY
U
SciTegic.value.DoubleValue
25.224

@<SCITEGIC>MOL_PROPERTY
W
SciTegic.value.DoubleValue
-58.506

@<SCITEGIC>MOL_PROPERTY
W(PB)
SciTegic.value.DoubleValue
-60.411

@<SCITEGIC>MOL_PROPERTY
W(SA)
SciTegic.value.DoubleValue
1.905

@<SCITEGIC>MOL_PROPERTY
Valence
SciTegic.value.DoubleValue
4.945

@<SCITEGIC>MOL_PROPERTY
Coulomb
SciTegic.value.DoubleValue
19.467

@<SCITEGIC>MOL_PROPERTY
VdW
SciTegic.value.DoubleValue
0.813

@<SCITEGIC>MOL_PROPERTY
VdW6
SciTegic.value.DoubleValue
-5.458

@<SCITEGIC>MOL_PROPERTY
VdW12
SciTegic.value.DoubleValue
6.270

@<SCITEGIC>MOL_PROPERTY
Bond
SciTegic.value.DoubleValue
0.200

@<SCITEGIC>MOL_PROPERTY
Angle
SciTegic.value.DoubleValue
1.675

@<SCITEGIC>MOL_PROPERTY
Pdih
SciTegic.value.DoubleValue
3.070

@<SCITEGIC>MOL_PROPERTY
Idih
SciTegic.value.DoubleValue
0.000

@<SCITEGIC>MOL_PROPERTY
Tether
SciTegic.value.DoubleValue
0.000

@<TRIPOS>MOLECULE
guest-s10_confgen4.mol2 : confsearch ligand conformer 994
          20          19           1
SMALL
USER_CHARGES
 
@<TRIPOS>ATOM
       1    N1      20.295071   17.817497   23.695799 N.4        1 MOL1        -0.5937
       2    H1      21.116347   17.449894   23.209227 H          1 MOL1         0.3684
       3    H2      19.968713   17.090209   24.337820 H          1 MOL1         0.3684
       4    H3      20.604011   18.611907   24.260117 H          1 MOL1         0.3684
       5    C1      19.218524   18.222250   22.726020 C.3        1 MOL1         0.1270
       6    H4      18.360872   18.556792   23.317839 H          1 MOL1         0.0960
       7    C2      18.782448   17.004959   21.893074 C.3        1 MOL1        -0.2382
       8    H5      19.604594   16.637635   21.266170 H          1 MOL1         0.1009
       9    H6      17.940680   17.260745   21.237600 H          1 MOL1         0.1009
      10    H7      18.456400   16.184781   22.544485 H          1 MOL1         0.1009
      11    C3      19.651794   19.382936   21.799024 C.3        1 MOL1        -0.1392
      12    H8      20.647694   19.178981   21.384102 H          1 MOL1         0.0998
      13    H9      18.970016   19.416869   20.938726 H          1 MOL1         0.0998
      14    C4      19.625092   20.786732   22.458758 C.3        1 MOL1        -0.1302
      15    H10     18.613097   21.002430   22.829400 H          1 MOL1         0.0998
      16    H11     19.827289   21.534903   21.679411 H          1 MOL1         0.0998
      17    C5      20.646442   20.986736   23.601583 C.3        1 MOL1        -0.2317
      18    H12     20.705987   22.048368   23.874859 H          1 MOL1         0.1009
      19    H13     21.651785   20.664829   23.299957 H          1 MOL1         0.1009
      20    H14     20.353536   20.440815   24.505804 H          1 MOL1         0.1009
@<TRIPOS>BOND
    1     1     2    1
    2     1     3    1
    3     1     4    1
    4     1     5    1
    5     5     6    1
    6     5     7    1
    7     7     8    1
    8     7     9    1
    9     7    10    1
   10     5    11    1
   11    11    12    1
   12    11    13    1
   13    11    14    1
   14    14    15    1
   15    14    16    1
   16    14    17    1
   17    17    18    1
   18    17    19    1
   19    17    20    1
@<TRIPOS>SUBSTRUCTURE
       1 MOL1            1 RESIDUE      1      MOL     
@<SCITEGIC>MOL_PROPERTY
VConf Rank
SciTegic.value.IntegerValue
994

@<SCITEGIC>MOL_PROPERTY
Conf_Id
SciTegic.value.IntegerValue
54

@<SCITEGIC>MOL_PROPERTY
Delta U+W
SciTegic.value.DoubleValue
2.752

@<SCITEGIC>MOL_PROPERTY
U+W
SciTegic.value.DoubleValue
-33.525

@<SCITEGIC>MOL_PROPERTY
Grad RMS
SciTegic.value.DoubleValue
0.000000

@<SCITEGIC>MOL_PROPERTY
U
SciTegic.value.DoubleValue
24.337

@<SCITEGIC>MOL_PROPERTY
W
SciTegic.value.DoubleValue
-57.862

@<SCITEGIC>MOL_PROPERTY
W(PB)
SciTegic.value.DoubleValue
-59.764

@<SCITEGIC>MOL_PROPERTY
W(SA)
SciTegic.value.DoubleValue
1.901

@<SCITEGIC>MOL_PROPERTY
Valence
SciTegic.value.DoubleValue
3.593

@<SCITEGIC>MOL_PROPERTY
Coulomb
SciTegic.value.DoubleValue
20.067

@<SCITEGIC>MOL_PROPERTY
VdW
SciTegic.value.DoubleValue
0.677

@<SCITEGIC>MOL_PROPERTY
VdW6
SciTegic.value.DoubleValue
-5.466

@<SCITEGIC>MOL_PROPERTY
VdW12
SciTegic.value.DoubleValue
6.144

@<SCITEGIC>MOL_PROPERTY
Bond
SciTegic.value.DoubleValue
0.191

@<SCITEGIC>MOL_PROPERTY
Angle
SciTegic.value.DoubleValue
1.557

@<SCITEGIC>MOL_PROPERTY
Pdih
SciTegic.value.DoubleValue
1.845

@<SCITEGIC>MOL_PROPERTY
Idih
SciTegic.value.DoubleValue
0.000

@<SCITEGIC>MOL_PROPERTY
Tether
SciTegic.value.DoubleValue
0.000

@<TRIPOS>MOLECULE
guest-s10_confgen4.mol2 : confsearch ligand conformer 995
          20          19           1
SMALL
USER_CHARGES
 
@<TRIPOS>ATOM
       1    N1      18.120272   18.748195   23.940731 N.4        1 MOL1        -0.5937
       2    H1      17.193152   18.323721   24.029749 H          1 MOL1         0.3684
       3    H2      18.111040   19.614810   24.485345 H          1 MOL1         0.3684
       4    H3      18.789899   18.114469   24.382817 H          1 MOL1         0.3684
       5    C1      18.472963   19.003650   22.500509 C.3        1 MOL1         0.1270
       6    H4      17.697270   19.671514   22.112848 H          1 MOL1         0.0960
       7    C2      18.418241   17.703420   21.678773 C.3        1 MOL1        -0.2382
       8    H5      18.677664   17.893545   20.629953 H          1 MOL1         0.1009
       9    H6      17.406846   17.279432   21.698813 H          1 MOL1         0.1009
      10    H7      19.106337   16.945494   22.071345 H          1 MOL1         0.1009
      11    C3      19.827586   19.735166   22.342614 C.3        1 MOL1        -0.1392
      12    H8      19.980238   19.969843   21.280842 H          1 MOL1         0.0998
      13    H9      19.761806   20.702304   22.858098 H          1 MOL1         0.0998
      14    C4      21.057886   18.957008   22.876632 C.3        1 MOL1        -0.1302
      15    H10     21.171112   18.007719   22.336223 H          1 MOL1         0.0998
      16    H11     20.917092   18.705882   23.936479 H          1 MOL1         0.0998
      17    C5      22.356999   19.776686   22.722480 C.3        1 MOL1        -0.2317
      18    H12     23.218746   19.212670   23.102409 H          1 MOL1         0.1009
      19    H13     22.298749   20.719157   23.282458 H          1 MOL1         0.1009
      20    H14     22.550178   20.016615   21.668754 H          1 MOL1         0.1009
@<TRIPOS>BOND
    1     1     2    1
    2     1     3    1
    3     1     4    1
    4     1     5    1
    5     5     6    1
    6     5     7    1
    7     7     8    1
    8     7     9    1
    9     7    10    1
   10     5    11    1
   11    11    12    1
   12    11    13    1
   13    11    14    1
   14    14    15    1
   15    14    16    1
   16    14    17    1
   17    17    18    1
   18    17    19    1
   19    17    20    1
@<TRIPOS>SUBSTRUCTURE
       1 MOL1            1 RESIDUE      1      MOL     
@<SCITEGIC>MOL_PROPERTY
VConf Rank
SciTegic.value.IntegerValue
995

@<SCITEGIC>MOL_PROPERTY
Conf_Id
SciTegic.value.IntegerValue
63

@<SCITEGIC>MOL_PROPERTY
Delta U+W
SciTegic.value.DoubleValue
0.420

@<SCITEGIC>MOL_PROPERTY
U+W
SciTegic.value.DoubleValue
-35.856

@<SCITEGIC>MOL_PROPERTY
Grad RMS
SciTegic.value.DoubleValue
0.000000

@<SCITEGIC>MOL_PROPERTY
U
SciTegic.value.DoubleValue
22.625

@<SCITEGIC>MOL_PROPERTY
W
SciTegic.value.DoubleValue
-58.481

@<SCITEGIC>MOL_PROPERTY
W(PB)
SciTegic.value.DoubleValue
-60.400

@<SCITEGIC>MOL_PROPERTY
W(SA)
SciTegic.value.DoubleValue
1.919

@<SCITEGIC>MOL_PROPERTY
Valence
SciTegic.value.DoubleValue
2.404

@<SCITEGIC>MOL_PROPERTY
Coulomb
SciTegic.value.DoubleValue
19.464

@<SCITEGIC>MOL_PROPERTY
VdW
SciTegic.value.DoubleValue
0.757

@<SCITEGIC>MOL_PROPERTY
VdW6
SciTegic.value.DoubleValue
-5.074

@<SCITEGIC>MOL_PROPERTY
VdW12
SciTegic.value.DoubleValue
5.830

@<SCITEGIC>MOL_PROPERTY
Bond
SciTegic.value.DoubleValue
0.172

@<SCITEGIC>MOL_PROPERTY
Angle
SciTegic.value.DoubleValue
1.207

@<SCITEGIC>MOL_PROPERTY
Pdih
SciTegic.value.DoubleValue
1.025

@<SCITEGIC>MOL_PROPERTY
Idih
SciTegic.value.DoubleValue
0.000

@<SCITEGIC>MOL_PROPERTY
Tether
SciTegic.value.DoubleValue
0.000

@<TRIPOS>MOLECULE
guest-s10_confgen4.mol2 : confsearch ligand conformer 996
          20          19           1
SMALL
USER_CHARGES
 
@<TRIPOS>ATOM
       1    N1      18.332194   17.998176   23.352050 N.4        1 MOL1        -0.5937
       2    H1      17.884860   18.246779   22.466069 H          1 MOL1         0.3684
       3    H2      17.833953   18.490570   24.097521 H          1 MOL1         0.3684
       4    H3      18.186706   16.995533   23.497245 H          1 MOL1         0.3684
       5    C1      19.795656   18.347992   23.342747 C.3        1 MOL1         0.1270
       6    H4      20.249586   17.780889   22.524535 H          1 MOL1         0.0960
       7    C2      20.466412   17.912831   24.655847 C.3        1 MOL1        -0.2382
       8    H5      20.329552   16.837571   24.824139 H          1 MOL1         0.1009
       9    H6      20.044545   18.449520   25.514770 H          1 MOL1         0.1009
      10    H7      21.545263   18.109887   24.626334 H          1 MOL1         0.1009
      11    C3      20.042265   19.851930   23.085185 C.3        1 MOL1        -0.1392
      12    H8      19.607484   20.438120   23.905660 H          1 MOL1         0.0998
      13    H9      21.122876   20.045932   23.109102 H          1 MOL1         0.0998
      14    C4      19.474778   20.367033   21.738141 C.3        1 MOL1        -0.1302
      15    H10     19.695189   21.440143   21.650070 H          1 MOL1         0.0998
      16    H11     18.379623   20.282579   21.729932 H          1 MOL1         0.0998
      17    C5      20.063774   19.632700   20.512087 C.3        1 MOL1        -0.2317
      18    H12     21.159211   19.703521   20.498592 H          1 MOL1         0.1009
      19    H13     19.688533   20.076940   19.581006 H          1 MOL1         0.1009
      20    H14     19.788898   18.570487   20.505569 H          1 MOL1         0.1009
@<TRIPOS>BOND
    1     1     2    1
    2     1     3    1
    3     1     4    1
    4     1     5    1
    5     5     6    1
    6     5     7    1
    7     7     8    1
    8     7     9    1
    9     7    10    1
   10     5    11    1
   11    11    12    1
   12    11    13    1
   13    11    14    1
   14    14    15    1
   15    14    16    1
   16    14    17    1
   17    17    18    1
   18    17    19    1
   19    17    20    1
@<TRIPOS>SUBSTRUCTURE
       1 MOL1            1 RESIDUE      1      MOL     
@<SCITEGIC>MOL_PROPERTY
VConf Rank
SciTegic.value.IntegerValue
996

@<SCITEGIC>MOL_PROPERTY
Conf_Id
SciTegic.value.IntegerValue
50

@<SCITEGIC>MOL_PROPERTY
Delta U+W
SciTegic.value.DoubleValue
0.466

@<SCITEGIC>MOL_PROPERTY
U+W
SciTegic.value.DoubleValue
-35.811

@<SCITEGIC>MOL_PROPERTY
Grad RMS
SciTegic.value.DoubleValue
0.000000

@<SCITEGIC>MOL_PROPERTY
U
SciTegic.value.DoubleValue
22.369

@<SCITEGIC>MOL_PROPERTY
W
SciTegic.value.DoubleValue
-58.180

@<SCITEGIC>MOL_PROPERTY
W(PB)
SciTegic.value.DoubleValue
-60.103

@<SCITEGIC>MOL_PROPERTY
W(SA)
SciTegic.value.DoubleValue
1.923

@<SCITEGIC>MOL_PROPERTY
Valence
SciTegic.value.DoubleValue
2.168

@<SCITEGIC>MOL_PROPERTY
Coulomb
SciTegic.value.DoubleValue
19.636

@<SCITEGIC>MOL_PROPERTY
VdW
SciTegic.value.DoubleValue
0.566

@<SCITEGIC>MOL_PROPERTY
VdW6
SciTegic.value.DoubleValue
-5.263

@<SCITEGIC>MOL_PROPERTY
VdW12
SciTegic.value.DoubleValue
5.829

@<SCITEGIC>MOL_PROPERTY
Bond
SciTegic.value.DoubleValue
0.162

@<SCITEGIC>MOL_PROPERTY
Angle
SciTegic.value.DoubleValue
1.066

@<SCITEGIC>MOL_PROPERTY
Pdih
SciTegic.value.DoubleValue
0.939

@<SCITEGIC>MOL_PROPERTY
Idih
SciTegic.value.DoubleValue
0.000

@<SCITEGIC>MOL_PROPERTY
Tether
SciTegic.value.DoubleValue
0.000

@<TRIPOS>MOLECULE
guest-s10_confgen4.mol2 : confsearch ligand conformer 997
          20          19           1
SMALL
USER_CHARGES
 
@<TRIPOS>ATOM
       1    N1      21.930325   18.781721   22.192270 N.4        1 MOL1        -0.5937
       2    H1      22.221355   17.840309   22.469834 H          1 MOL1         0.3684
       3    H2      22.421334   19.445683   22.796370 H          1 MOL1         0.3684
       4    H3      22.266842   18.932816   21.237460 H          1 MOL1         0.3684
       5    C1      20.437765   18.950700   22.283324 C.3        1 MOL1         0.1270
       6    H4      20.004939   18.202632   21.611893 H          1 MOL1         0.0960
       7    C2      20.034947   20.351819   21.786768 C.3        1 MOL1        -0.2382
       8    H5      20.488033   21.135966   22.406035 H          1 MOL1         0.1009
       9    H6      18.948693   20.490724   21.810177 H          1 MOL1         0.1009
      10    H7      20.365119   20.504551   20.751979 H          1 MOL1         0.1009
      11    C3      19.911056   18.676560   23.713588 C.3        1 MOL1        -0.1392
      12    H8      20.675819   18.128050   24.279226 H          1 MOL1         0.0998
      13    H9      19.763151   19.620272   24.255385 H          1 MOL1         0.0998
      14    C4      18.613231   17.830458   23.752898 C.3        1 MOL1        -0.1302
      15    H10     18.361575   17.622723   24.802397 H          1 MOL1         0.0998
      16    H11     18.797382   16.853406   23.284349 H          1 MOL1         0.0998
      17    C5      17.399202   18.503158   23.074781 C.3        1 MOL1        -0.2317
      18    H12     17.214832   19.501524   23.492277 H          1 MOL1         0.1009
      19    H13     16.492848   17.903425   23.229327 H          1 MOL1         0.1009
      20    H14     17.547231   18.599548   21.991995 H          1 MOL1         0.1009
@<TRIPOS>BOND
    1     1     2    1
    2     1     3    1
    3     1     4    1
    4     1     5    1
    5     5     6    1
    6     5     7    1
    7     7     8    1
    8     7     9    1
    9     7    10    1
   10     5    11    1
   11    11    12    1
   12    11    13    1
   13    11    14    1
   14    14    15    1
   15    14    16    1
   16    14    17    1
   17    17    18    1
   18    17    19    1
   19    17    20    1
@<TRIPOS>SUBSTRUCTURE
       1 MOL1            1 RESIDUE      1      MOL     
@<SCITEGIC>MOL_PROPERTY
VConf Rank
SciTegic.value.IntegerValue
997

@<SCITEGIC>MOL_PROPERTY
Conf_Id
SciTegic.value.IntegerValue
3

@<SCITEGIC>MOL_PROPERTY
Delta U+W
SciTegic.value.DoubleValue
3.093

@<SCITEGIC>MOL_PROPERTY
U+W
SciTegic.value.DoubleValue
-33.184

@<SCITEGIC>MOL_PROPERTY
Grad RMS
SciTegic.value.DoubleValue
0.000000

@<SCITEGIC>MOL_PROPERTY
U
SciTegic.value.DoubleValue
25.256

@<SCITEGIC>MOL_PROPERTY
W
SciTegic.value.DoubleValue
-58.439

@<SCITEGIC>MOL_PROPERTY
W(PB)
SciTegic.value.DoubleValue
-60.337

@<SCITEGIC>MOL_PROPERTY
W(SA)
SciTegic.value.DoubleValue
1.898

@<SCITEGIC>MOL_PROPERTY
Valence
SciTegic.value.DoubleValue
4.963

@<SCITEGIC>MOL_PROPERTY
Coulomb
SciTegic.value.DoubleValue
19.511

@<SCITEGIC>MOL_PROPERTY
VdW
SciTegic.value.DoubleValue
0.782

@<SCITEGIC>MOL_PROPERTY
VdW6
SciTegic.value.DoubleValue
-5.429

@<SCITEGIC>MOL_PROPERTY
VdW12
SciTegic.value.DoubleValue
6.211

@<SCITEGIC>MOL_PROPERTY
Bond
SciTegic.value.DoubleValue
0.174

@<SCITEGIC>MOL_PROPERTY
Angle
SciTegic.value.DoubleValue
1.377

@<SCITEGIC>MOL_PROPERTY
Pdih
SciTegic.value.DoubleValue
3.412

@<SCITEGIC>MOL_PROPERTY
Idih
SciTegic.value.DoubleValue
0.000

@<SCITEGIC>MOL_PROPERTY
Tether
SciTegic.value.DoubleValue
0.000

@<TRIPOS>MOLECULE
guest-s10_confgen4.mol2 : confsearch ligand conformer 998
          20          19           1
SMALL
USER_CHARGES
 
@<TRIPOS>ATOM
       1    N1      17.419825   19.015840   22.441210 N.4        1 MOL1        -0.5937
       2    H1      16.929843   18.411193   21.776413 H          1 MOL1         0.3684
       3    H2      17.255621   19.982811   22.148233 H          1 MOL1         0.3684
       4    H3      16.971627   18.891559   23.352449 H          1 MOL1         0.3684
       5    C1      18.888142   18.694805   22.499203 C.3        1 MOL1         0.1270
       6    H4      19.276285   18.851254   21.488280 H          1 MOL1         0.0960
       7    C2      19.098726   17.217447   22.877580 C.3        1 MOL1        -0.2382
       8    H5      20.152914   16.930530   22.788689 H          1 MOL1         0.1009
       9    H6      18.526725   16.561843   22.209649 H          1 MOL1         0.1009
      10    H7      18.774412   17.021032   23.907012 H          1 MOL1         0.1009
      11    C3      19.633246   19.652462   23.459484 C.3        1 MOL1        -0.1392
      12    H8      19.381170   20.686541   23.189921 H          1 MOL1         0.0998
      13    H9      19.260207   19.504888   24.481639 H          1 MOL1         0.0998
      14    C4      21.176972   19.510997   23.458620 C.3        1 MOL1        -0.1302
      15    H10     21.470404   18.528459   23.852055 H          1 MOL1         0.0998
      16    H11     21.598388   20.250416   24.153968 H          1 MOL1         0.0998
      17    C5      21.804043   19.723097   22.061858 C.3        1 MOL1        -0.2317
      18    H12     21.521954   20.699287   21.646361 H          1 MOL1         0.1009
      19    H13     21.488254   18.944901   21.355634 H          1 MOL1         0.1009
      20    H14     22.899548   19.689103   22.122945 H          1 MOL1         0.1009
@<TRIPOS>BOND
    1     1     2    1
    2     1     3    1
    3     1     4    1
    4     1     5    1
    5     5     6    1
    6     5     7    1
    7     7     8    1
    8     7     9    1
    9     7    10    1
   10     5    11    1
   11    11    12    1
   12    11    13    1
   13    11    14    1
   14    14    15    1
   15    14    16    1
   16    14    17    1
   17    17    18    1
   18    17    19    1
   19    17    20    1
@<TRIPOS>SUBSTRUCTURE
       1 MOL1            1 RESIDUE      1      MOL     
@<SCITEGIC>MOL_PROPERTY
VConf Rank
SciTegic.value.IntegerValue
998

@<SCITEGIC>MOL_PROPERTY
Conf_Id
SciTegic.value.IntegerValue
64

@<SCITEGIC>MOL_PROPERTY
Delta U+W
SciTegic.value.DoubleValue
0.544

@<SCITEGIC>MOL_PROPERTY
U+W
SciTegic.value.DoubleValue
-35.732

@<SCITEGIC>MOL_PROPERTY
Grad RMS
SciTegic.value.DoubleValue
0.000000

@<SCITEGIC>MOL_PROPERTY
U
SciTegic.value.DoubleValue
22.800

@<SCITEGIC>MOL_PROPERTY
W
SciTegic.value.DoubleValue
-58.532

@<SCITEGIC>MOL_PROPERTY
W(PB)
SciTegic.value.DoubleValue
-60.437

@<SCITEGIC>MOL_PROPERTY
W(SA)
SciTegic.value.DoubleValue
1.905

@<SCITEGIC>MOL_PROPERTY
Valence
SciTegic.value.DoubleValue
2.662

@<SCITEGIC>MOL_PROPERTY
Coulomb
SciTegic.value.DoubleValue
19.485

@<SCITEGIC>MOL_PROPERTY
VdW
SciTegic.value.DoubleValue
0.653

@<SCITEGIC>MOL_PROPERTY
VdW6
SciTegic.value.DoubleValue
-5.460

@<SCITEGIC>MOL_PROPERTY
VdW12
SciTegic.value.DoubleValue
6.113

@<SCITEGIC>MOL_PROPERTY
Bond
SciTegic.value.DoubleValue
0.174

@<SCITEGIC>MOL_PROPERTY
Angle
SciTegic.value.DoubleValue
1.378

@<SCITEGIC>MOL_PROPERTY
Pdih
SciTegic.value.DoubleValue
1.109

@<SCITEGIC>MOL_PROPERTY
Idih
SciTegic.value.DoubleValue
0.000

@<SCITEGIC>MOL_PROPERTY
Tether
SciTegic.value.DoubleValue
0.000

@<TRIPOS>MOLECULE
guest-s10_confgen4.mol2 : confsearch ligand conformer 999
          20          19           1
SMALL
USER_CHARGES
 
@<TRIPOS>ATOM
       1    N1      21.024217   17.487538   23.633081 N.4        1 MOL1        -0.5937
       2    H1      21.186501   18.314844   24.211442 H          1 MOL1         0.3684
       3    H2      21.939039   17.086358   23.409991 H          1 MOL1         0.3684
       4    H3      20.525068   16.803658   24.208250 H          1 MOL1         0.3684
       5    C1      20.254304   17.829412   22.386010 C.3        1 MOL1         0.1270
       6    H4      20.143451   16.889751   21.835819 H          1 MOL1         0.0960
       7    C2      21.055197   18.792007   21.493986 C.3        1 MOL1        -0.2382
       8    H5      21.321758   19.709533   22.031388 H          1 MOL1         0.1009
       9    H6      20.481785   19.064635   20.599441 H          1 MOL1         0.1009
      10    H7      21.986816   18.319002   21.160336 H          1 MOL1         0.1009
      11    C3      18.825402   18.341566   22.697258 C.3        1 MOL1        -0.1392
      12    H8      18.251222   18.408754   21.763823 H          1 MOL1         0.0998
      13    H9      18.321390   17.566976   23.290102 H          1 MOL1         0.0998
      14    C4      18.730941   19.685602   23.471771 C.3        1 MOL1        -0.1302
      15    H10     19.591571   19.813342   24.141382 H          1 MOL1         0.0998
      16    H11     17.847466   19.647401   24.124455 H          1 MOL1         0.0998
      17    C5      18.584494   20.920311   22.551558 C.3        1 MOL1        -0.2317
      18    H12     19.452575   21.053614   21.896849 H          1 MOL1         0.1009
      19    H13     18.479110   21.834193   23.150458 H          1 MOL1         0.1009
      20    H14     17.692308   20.834449   21.917781 H          1 MOL1         0.1009
@<TRIPOS>BOND
    1     1     2    1
    2     1     3    1
    3     1     4    1
    4     1     5    1
    5     5     6    1
    6     5     7    1
    7     7     8    1
    8     7     9    1
    9     7    10    1
   10     5    11    1
   11    11    12    1
   12    11    13    1
   13    11    14    1
   14    14    15    1
   15    14    16    1
   16    14    17    1
   17    17    18    1
   18    17    19    1
   19    17    20    1
@<TRIPOS>SUBSTRUCTURE
       1 MOL1            1 RESIDUE      1      MOL     
@<SCITEGIC>MOL_PROPERTY
VConf Rank
SciTegic.value.IntegerValue
999

@<SCITEGIC>MOL_PROPERTY
Conf_Id
SciTegic.value.IntegerValue
35

@<SCITEGIC>MOL_PROPERTY
Delta U+W
SciTegic.value.DoubleValue
3.004

@<SCITEGIC>MOL_PROPERTY
U+W
SciTegic.value.DoubleValue
-33.272

@<SCITEGIC>MOL_PROPERTY
Grad RMS
SciTegic.value.DoubleValue
0.000000

@<SCITEGIC>MOL_PROPERTY
U
SciTegic.value.DoubleValue
25.367

@<SCITEGIC>MOL_PROPERTY
W
SciTegic.value.DoubleValue
-58.639

@<SCITEGIC>MOL_PROPERTY
W(PB)
SciTegic.value.DoubleValue
-60.512

@<SCITEGIC>MOL_PROPERTY
W(SA)
SciTegic.value.DoubleValue
1.873

@<SCITEGIC>MOL_PROPERTY
Valence
SciTegic.value.DoubleValue
4.943

@<SCITEGIC>MOL_PROPERTY
Coulomb
SciTegic.value.DoubleValue
19.661

@<SCITEGIC>MOL_PROPERTY
VdW
SciTegic.value.DoubleValue
0.764

@<SCITEGIC>MOL_PROPERTY
VdW6
SciTegic.value.DoubleValue
-5.871

@<SCITEGIC>MOL_PROPERTY
VdW12
SciTegic.value.DoubleValue
6.636

@<SCITEGIC>MOL_PROPERTY
Bond
SciTegic.value.DoubleValue
0.230

@<SCITEGIC>MOL_PROPERTY
Angle
SciTegic.value.DoubleValue
1.857

@<SCITEGIC>MOL_PROPERTY
Pdih
SciTegic.value.DoubleValue
2.855

@<SCITEGIC>MOL_PROPERTY
Idih
SciTegic.value.DoubleValue
0.000

@<SCITEGIC>MOL_PROPERTY
Tether
SciTegic.value.DoubleValue
0.000

@<TRIPOS>MOLECULE
guest-s10_confgen4.mol2 : confsearch ligand conformer 1000
          20          19           1
SMALL
USER_CHARGES
 
@<TRIPOS>ATOM
       1    N1      18.141686   18.819641   22.073609 N.4        1 MOL1        -0.5937
       2    H1      17.559287   18.118500   21.607978 H          1 MOL1         0.3684
       3    H2      17.694416   19.729405   21.932684 H          1 MOL1         0.3684
       4    H3      18.123425   18.621755   23.075859 H          1 MOL1         0.3684
       5    C1      19.548804   18.809512   21.542214 C.3        1 MOL1         0.1270
       6    H4      19.458384   19.055332   20.479517 H          1 MOL1         0.0960
       7    C2      20.174404   17.406549   21.636177 C.3        1 MOL1        -0.2382
       8    H5      20.212789   17.048843   22.671970 H          1 MOL1         0.1009
       9    H6      21.195141   17.408222   21.234291 H          1 MOL1         0.1009
      10    H7      19.588857   16.684921   21.053635 H          1 MOL1         0.1009
      11    C3      20.446563   19.900762   22.179798 C.3        1 MOL1        -0.1392
      12    H8      21.324238   20.028852   21.532633 H          1 MOL1         0.0998
      13    H9      19.917009   20.861786   22.144838 H          1 MOL1         0.0998
      14    C4      20.956377   19.648961   23.626617 C.3        1 MOL1        -0.1302
      15    H10     21.608950   20.487624   23.907004 H          1 MOL1         0.0998
      16    H11     21.595830   18.756262   23.655265 H          1 MOL1         0.0998
      17    C5      19.842473   19.524803   24.690912 C.3        1 MOL1        -0.2317
      18    H12     19.136585   20.363230   24.628433 H          1 MOL1         0.1009
      19    H13     20.277768   19.531244   25.698705 H          1 MOL1         0.1009
      20    H14     19.287622   18.585338   24.586931 H          1 MOL1         0.1009
@<TRIPOS>BOND
    1     1     2    1
    2     1     3    1
    3     1     4    1
    4     1     5    1
    5     5     6    1
    6     5     7    1
    7     7     8    1
    8     7     9    1
    9     7    10    1
   10     5    11    1
   11    11    12    1
   12    11    13    1
   13    11    14    1
   14    14    15    1
   15    14    16    1
   16    14    17    1
   17    17    18    1
   18    17    19    1
   19    17    20    1
@<TRIPOS>SUBSTRUCTURE
       1 MOL1            1 RESIDUE      1      MOL     
@<SCITEGIC>MOL_PROPERTY
VConf Rank
SciTegic.value.IntegerValue
1000

@<SCITEGIC>MOL_PROPERTY
Conf_Id
SciTegic.value.IntegerValue
55

@<SCITEGIC>MOL_PROPERTY
Delta U+W
SciTegic.value.DoubleValue
2.767

@<SCITEGIC>MOL_PROPERTY
U+W
SciTegic.value.DoubleValue
-33.509

@<SCITEGIC>MOL_PROPERTY
Grad RMS
SciTegic.value.DoubleValue
0.000000

@<SCITEGIC>MOL_PROPERTY
U
SciTegic.value.DoubleValue
24.552

@<SCITEGIC>MOL_PROPERTY
W
SciTegic.value.DoubleValue
-58.061

@<SCITEGIC>MOL_PROPERTY
W(PB)
SciTegic.value.DoubleValue
-59.930

@<SCITEGIC>MOL_PROPERTY
W(SA)
SciTegic.value.DoubleValue
1.869

@<SCITEGIC>MOL_PROPERTY
Valence
SciTegic.value.DoubleValue
3.726

@<SCITEGIC>MOL_PROPERTY
Coulomb
SciTegic.value.DoubleValue
20.219

@<SCITEGIC>MOL_PROPERTY
VdW
SciTegic.value.DoubleValue
0.606

@<SCITEGIC>MOL_PROPERTY
VdW6
SciTegic.value.DoubleValue
-6.395

@<SCITEGIC>MOL_PROPERTY
VdW12
SciTegic.value.DoubleValue
7.001

@<SCITEGIC>MOL_PROPERTY
Bond
SciTegic.value.DoubleValue
0.241

@<SCITEGIC>MOL_PROPERTY
Angle
SciTegic.value.DoubleValue
2.098

@<SCITEGIC>MOL_PROPERTY
Pdih
SciTegic.value.DoubleValue
1.387

@<SCITEGIC>MOL_PROPERTY
Idih
SciTegic.value.DoubleValue
0.000

@<SCITEGIC>MOL_PROPERTY
Tether
SciTegic.value.DoubleValue
0.000

