VeraChem MOL file


 20 19  0  0  0  0  0  0  0  0999 V2000     
   20.3912   20.1731   24.1280 N   0  3  0  0  0  0  0  0  0  0  0  0
   21.3895   20.1069   23.9149 H   0  0  0  0  0  0  0  0  0  0  0  0
   20.3063   20.4447   25.1112 H   0  0  0  0  0  0  0  0  0  0  0  0
   20.0070   20.9380   23.5676 H   0  0  0  0  0  0  0  0  0  0  0  0
   19.6811   18.8752   23.8518 C   0  0  2  0  0  0  0  0  0  0  0  0
   18.6271   19.0338   24.1005 H   0  0  0  0  0  0  0  0  0  0  0  0
   20.2261   17.7582   24.7569 C   0  0  0  0  0  0  0  0  0  0  0  0
   20.1318   18.0343   25.8143 H   0  0  0  0  0  0  0  0  0  0  0  0
   21.2848   17.5591   24.5488 H   0  0  0  0  0  0  0  0  0  0  0  0
   19.6673   16.8263   24.6060 H   0  0  0  0  0  0  0  0  0  0  0  0
   19.7689   18.4547   22.3680 C   0  0  0  0  0  0  0  0  0  0  0  0
   20.8205   18.3118   22.0857 H   0  0  0  0  0  0  0  0  0  0  0  0
   19.2772   17.4803   22.2464 H   0  0  0  0  0  0  0  0  0  0  0  0
   19.1037   19.4720   21.4098 C   0  0  0  0  0  0  0  0  0  0  0  0
   19.6149   20.4422   21.4713 H   0  0  0  0  0  0  0  0  0  0  0  0
   18.0614   19.6414   21.7151 H   0  0  0  0  0  0  0  0  0  0  0  0
   19.1341   18.9807   19.9466 C   0  0  0  0  0  0  0  0  0  0  0  0
   20.1655   18.8309   19.6016 H   0  0  0  0  0  0  0  0  0  0  0  0
   18.6599   19.7141   19.2814 H   0  0  0  0  0  0  0  0  0  0  0  0
   18.5957   18.0302   19.8370 H   0  0  0  0  0  0  0  0  0  0  0  0
  1  2  1  0  0  0  0
  1  3  1  0  0  0  0
  1  4  1  0  0  0  0
  1  5  1  0  0  0  0
  5  6  1  0  0  0  0
  5  7  1  0  0  0  0
  7  8  1  0  0  0  0
  7  9  1  0  0  0  0
  7 10  1  0  0  0  0
  5 11  1  0  0  0  0
 11 12  1  0  0  0  0
 11 13  1  0  0  0  0
 11 14  1  0  0  0  0
 14 15  1  0  0  0  0
 14 16  1  0  0  0  0
 14 17  1  0  0  0  0
 17 18  1  0  0  0  0
 17 19  1  0  0  0  0
 17 20  1  0  0  0  0
M  END
> <VConfSearch Rank>
1

> <Conf_Id>
74

> <Delta U+W>
0.000

> <U+W>
-36.276

> <U>
22.080

> <W>
-58.356

> <W(PB)>
-60.289

> <W(SA)>
1.932

> <Valence>
1.885

> <Coulomb>
19.559

> <VdW>
0.637

> <VdW6>
-4.482

> <VdW12>
5.119

> <Bond>
0.136

> <Angle>
0.867

> <Pdih>
0.882

> <Idih>
0.000

> <Tether>
0.000

$$$$
VeraChem MOL file


 20 19  0  0  0  0  0  0  0  0999 V2000     
   20.6729   20.0594   24.6125 N   0  3  0  0  0  0  0  0  0  0  0  0
   20.5584   21.0417   24.3483 H   0  0  0  0  0  0  0  0  0  0  0  0
   21.6536   19.8127   24.4572 H   0  0  0  0  0  0  0  0  0  0  0  0
   20.4990   19.9951   25.6191 H   0  0  0  0  0  0  0  0  0  0  0  0
   19.7478   19.1634   23.8354 C   0  0  2  0  0  0  0  0  0  0  0  0
   18.7310   19.4975   24.0644 H   0  0  0  0  0  0  0  0  0  0  0  0
   19.8977   17.7048   24.3053 C   0  0  0  0  0  0  0  0  0  0  0  0
   19.7835   17.6361   25.3941 H   0  0  0  0  0  0  0  0  0  0  0  0
   20.8831   17.3016   24.0409 H   0  0  0  0  0  0  0  0  0  0  0  0
   19.1314   17.0608   23.8589 H   0  0  0  0  0  0  0  0  0  0  0  0
   19.9740   19.3115   22.3128 C   0  0  0  0  0  0  0  0  0  0  0  0
   19.9614   20.3805   22.0621 H   0  0  0  0  0  0  0  0  0  0  0  0
   20.9743   18.9427   22.0499 H   0  0  0  0  0  0  0  0  0  0  0  0
   18.9091   18.5920   21.4494 C   0  0  0  0  0  0  0  0  0  0  0  0
   17.9040   18.9144   21.7556 H   0  0  0  0  0  0  0  0  0  0  0  0
   18.9583   17.5067   21.6095 H   0  0  0  0  0  0  0  0  0  0  0  0
   19.1035   18.8828   19.9456 C   0  0  0  0  0  0  0  0  0  0  0  0
   19.0181   19.9571   19.7359 H   0  0  0  0  0  0  0  0  0  0  0  0
   18.3433   18.3625   19.3486 H   0  0  0  0  0  0  0  0  0  0  0  0
   20.0901   18.5450   19.6024 H   0  0  0  0  0  0  0  0  0  0  0  0
  1  2  1  0  0  0  0
  1  3  1  0  0  0  0
  1  4  1  0  0  0  0
  1  5  1  0  0  0  0
  5  6  1  0  0  0  0
  5  7  1  0  0  0  0
  7  8  1  0  0  0  0
  7  9  1  0  0  0  0
  7 10  1  0  0  0  0
  5 11  1  0  0  0  0
 11 12  1  0  0  0  0
 11 13  1  0  0  0  0
 11 14  1  0  0  0  0
 14 15  1  0  0  0  0
 14 16  1  0  0  0  0
 14 17  1  0  0  0  0
 17 18  1  0  0  0  0
 17 19  1  0  0  0  0
 17 20  1  0  0  0  0
M  END
> <VConfSearch Rank>
2

> <Conf_Id>
80

> <Delta U+W>
0.460

> <U+W>
-35.817

> <U>
22.495

> <W>
-58.311

> <W(PB)>
-60.259

> <W(SA)>
1.948

> <Valence>
2.419

> <Coulomb>
19.304

> <VdW>
0.772

> <VdW6>
-4.635

> <VdW12>
5.407

> <Bond>
0.149

> <Angle>
1.142

> <Pdih>
1.129

> <Idih>
0.000

> <Tether>
0.000

$$$$
VeraChem MOL file


 20 19  0  0  0  0  0  0  0  0999 V2000     
   20.6495   19.8404   24.7413 N   0  3  0  0  0  0  0  0  0  0  0  0
   20.4668   20.8466   24.7865 H   0  0  0  0  0  0  0  0  0  0  0  0
   21.6281   19.7186   24.4687 H   0  0  0  0  0  0  0  0  0  0  0  0
   20.5503   19.4723   25.6911 H   0  0  0  0  0  0  0  0  0  0  0  0
   19.7192   19.1489   23.7826 C   0  0  2  0  0  0  0  0  0  0  0  0
   18.7062   19.3281   24.1560 H   0  0  0  0  0  0  0  0  0  0  0  0
   19.9722   17.6317   23.7962 C   0  0  0  0  0  0  0  0  0  0  0  0
   19.9764   17.2488   24.8240 H   0  0  0  0  0  0  0  0  0  0  0  0
   20.9371   17.3847   23.3364 H   0  0  0  0  0  0  0  0  0  0  0  0
   19.1815   17.0970   23.2577 H   0  0  0  0  0  0  0  0  0  0  0  0
   19.8242   19.7637   22.3654 C   0  0  0  0  0  0  0  0  0  0  0  0
   19.6664   20.8459   22.4634 H   0  0  0  0  0  0  0  0  0  0  0  0
   20.8437   19.6451   21.9750 H   0  0  0  0  0  0  0  0  0  0  0  0
   18.7910   19.2269   21.3398 C   0  0  0  0  0  0  0  0  0  0  0  0
   18.4774   20.0571   20.6912 H   0  0  0  0  0  0  0  0  0  0  0  0
   17.8813   18.8881   21.8553 H   0  0  0  0  0  0  0  0  0  0  0  0
   19.3488   18.1023   20.4359 C   0  0  0  0  0  0  0  0  0  0  0  0
   20.2136   18.4557   19.8592 H   0  0  0  0  0  0  0  0  0  0  0  0
   18.5855   17.7709   19.7200 H   0  0  0  0  0  0  0  0  0  0  0  0
   19.6645   17.2262   21.0132 H   0  0  0  0  0  0  0  0  0  0  0  0
  1  2  1  0  0  0  0
  1  3  1  0  0  0  0
  1  4  1  0  0  0  0
  1  5  1  0  0  0  0
  5  6  1  0  0  0  0
  5  7  1  0  0  0  0
  7  8  1  0  0  0  0
  7  9  1  0  0  0  0
  7 10  1  0  0  0  0
  5 11  1  0  0  0  0
 11 12  1  0  0  0  0
 11 13  1  0  0  0  0
 11 14  1  0  0  0  0
 14 15  1  0  0  0  0
 14 16  1  0  0  0  0
 14 17  1  0  0  0  0
 17 18  1  0  0  0  0
 17 19  1  0  0  0  0
 17 20  1  0  0  0  0
M  END
> <VConfSearch Rank>
3

> <Conf_Id>
52

> <Delta U+W>
2.995

> <U+W>
-33.282

> <U>
25.224

> <W>
-58.506

> <W(PB)>
-60.411

> <W(SA)>
1.905

> <Valence>
4.945

> <Coulomb>
19.467

> <VdW>
0.813

> <VdW6>
-5.458

> <VdW12>
6.270

> <Bond>
0.200

> <Angle>
1.675

> <Pdih>
3.070

> <Idih>
0.000

> <Tether>
0.000

$$$$
VeraChem MOL file


 20 19  0  0  0  0  0  0  0  0999 V2000     
   20.4415   20.1739   23.6450 N   0  3  0  0  0  0  0  0  0  0  0  0
   21.4468   20.0035   23.5638 H   0  0  0  0  0  0  0  0  0  0  0  0
   20.2925   20.7283   24.4925 H   0  0  0  0  0  0  0  0  0  0  0  0
   20.1632   20.7488   22.8468 H   0  0  0  0  0  0  0  0  0  0  0  0
   19.6681   18.8842   23.6853 C   0  0  2  0  0  0  0  0  0  0  0  0
   18.6138   19.1447   23.8210 H   0  0  0  0  0  0  0  0  0  0  0  0
   20.1156   18.0453   24.8943 C   0  0  0  0  0  0  0  0  0  0  0  0
   21.1660   17.7426   24.8006 H   0  0  0  0  0  0  0  0  0  0  0  0
   19.5055   17.1383   24.9884 H   0  0  0  0  0  0  0  0  0  0  0  0
   20.0056   18.6153   25.8251 H   0  0  0  0  0  0  0  0  0  0  0  0
   19.8017   18.0637   22.3802 C   0  0  0  0  0  0  0  0  0  0  0  0
   20.8566   18.0051   22.0811 H   0  0  0  0  0  0  0  0  0  0  0  0
   19.4900   17.0303   22.5830 H   0  0  0  0  0  0  0  0  0  0  0  0
   18.9389   18.5774   21.1978 C   0  0  0  0  0  0  0  0  0  0  0  0
   17.8793   18.5882   21.4899 H   0  0  0  0  0  0  0  0  0  0  0  0
   19.0183   17.8521   20.3758 H   0  0  0  0  0  0  0  0  0  0  0  0
   19.3393   19.9695   20.6584 C   0  0  0  0  0  0  0  0  0  0  0  0
   18.8249   20.1704   19.7096 H   0  0  0  0  0  0  0  0  0  0  0  0
   20.4192   20.0295   20.4696 H   0  0  0  0  0  0  0  0  0  0  0  0
   19.0536   20.7692   21.3514 H   0  0  0  0  0  0  0  0  0  0  0  0
  1  2  1  0  0  0  0
  1  3  1  0  0  0  0
  1  4  1  0  0  0  0
  1  5  1  0  0  0  0
  5  6  1  0  0  0  0
  5  7  1  0  0  0  0
  7  8  1  0  0  0  0
  7  9  1  0  0  0  0
  7 10  1  0  0  0  0
  5 11  1  0  0  0  0
 11 12  1  0  0  0  0
 11 13  1  0  0  0  0
 11 14  1  0  0  0  0
 14 15  1  0  0  0  0
 14 16  1  0  0  0  0
 14 17  1  0  0  0  0
 17 18  1  0  0  0  0
 17 19  1  0  0  0  0
 17 20  1  0  0  0  0
M  END
> <VConfSearch Rank>
4

> <Conf_Id>
54

> <Delta U+W>
2.752

> <U+W>
-33.525

> <U>
24.337

> <W>
-57.862

> <W(PB)>
-59.764

> <W(SA)>
1.901

> <Valence>
3.593

> <Coulomb>
20.067

> <VdW>
0.677

> <VdW6>
-5.466

> <VdW12>
6.144

> <Bond>
0.191

> <Angle>
1.557

> <Pdih>
1.845

> <Idih>
0.000

> <Tether>
0.000

$$$$
VeraChem MOL file


 20 19  0  0  0  0  0  0  0  0999 V2000     
   20.2984   20.2326   24.2273 N   0  3  0  0  0  0  0  0  0  0  0  0
   20.6865   20.2777   25.1734 H   0  0  0  0  0  0  0  0  0  0  0  0
   19.6669   21.0309   24.1198 H   0  0  0  0  0  0  0  0  0  0  0  0
   21.0732   20.3632   23.5730 H   0  0  0  0  0  0  0  0  0  0  0  0
   19.5879   18.9286   23.9852 C   0  0  2  0  0  0  0  0  0  0  0  0
   18.7947   18.8720   24.7373 H   0  0  0  0  0  0  0  0  0  0  0  0
   20.5307   17.7341   24.2150 C   0  0  0  0  0  0  0  0  0  0  0  0
   20.0095   16.7855   24.0358 H   0  0  0  0  0  0  0  0  0  0  0  0
   20.8913   17.7239   25.2509 H   0  0  0  0  0  0  0  0  0  0  0  0
   21.4064   17.7751   23.5565 H   0  0  0  0  0  0  0  0  0  0  0  0
   18.9068   18.8736   22.5966 C   0  0  0  0  0  0  0  0  0  0  0  0
   18.3346   17.9394   22.5211 H   0  0  0  0  0  0  0  0  0  0  0  0
   18.1684   19.6841   22.5399 H   0  0  0  0  0  0  0  0  0  0  0  0
   19.8732   18.9807   21.3888 C   0  0  0  0  0  0  0  0  0  0  0  0
   20.5885   18.1475   21.3992 H   0  0  0  0  0  0  0  0  0  0  0  0
   20.4607   19.9063   21.4540 H   0  0  0  0  0  0  0  0  0  0  0  0
   19.1080   18.9644   20.0481 C   0  0  0  0  0  0  0  0  0  0  0  0
   19.8048   19.0387   19.2030 H   0  0  0  0  0  0  0  0  0  0  0  0
   18.4082   19.8077   19.9819 H   0  0  0  0  0  0  0  0  0  0  0  0
   18.5354   18.0351   19.9311 H   0  0  0  0  0  0  0  0  0  0  0  0
  1  2  1  0  0  0  0
  1  3  1  0  0  0  0
  1  4  1  0  0  0  0
  1  5  1  0  0  0  0
  5  6  1  0  0  0  0
  5  7  1  0  0  0  0
  7  8  1  0  0  0  0
  7  9  1  0  0  0  0
  7 10  1  0  0  0  0
  5 11  1  0  0  0  0
 11 12  1  0  0  0  0
 11 13  1  0  0  0  0
 11 14  1  0  0  0  0
 14 15  1  0  0  0  0
 14 16  1  0  0  0  0
 14 17  1  0  0  0  0
 17 18  1  0  0  0  0
 17 19  1  0  0  0  0
 17 20  1  0  0  0  0
M  END
> <VConfSearch Rank>
5

> <Conf_Id>
63

> <Delta U+W>
0.420

> <U+W>
-35.856

> <U>
22.625

> <W>
-58.481

> <W(PB)>
-60.400

> <W(SA)>
1.919

> <Valence>
2.404

> <Coulomb>
19.464

> <VdW>
0.757

> <VdW6>
-5.074

> <VdW12>
5.830

> <Bond>
0.172

> <Angle>
1.207

> <Pdih>
1.025

> <Idih>
0.000

> <Tether>
0.000

$$$$
VeraChem MOL file


 20 19  0  0  0  0  0  0  0  0999 V2000     
   20.0485   20.2198   23.9725 N   0  3  0  0  0  0  0  0  0  0  0  0
   19.7981   20.8828   23.2346 H   0  0  0  0  0  0  0  0  0  0  0  0
   21.0584   20.2893   24.1194 H   0  0  0  0  0  0  0  0  0  0  0  0
   19.5919   20.5335   24.8332 H   0  0  0  0  0  0  0  0  0  0  0  0
   19.6393   18.8179   23.6100 C   0  0  2  0  0  0  0  0  0  0  0  0
   18.5536   18.8319   23.4749 H   0  0  0  0  0  0  0  0  0  0  0  0
   19.9662   17.8438   24.7536 C   0  0  0  0  0  0  0  0  0  0  0  0
   19.4769   18.1585   25.6836 H   0  0  0  0  0  0  0  0  0  0  0  0
   21.0469   17.7934   24.9363 H   0  0  0  0  0  0  0  0  0  0  0  0
   19.6121   16.8327   24.5175 H   0  0  0  0  0  0  0  0  0  0  0  0
   20.2856   18.3359   22.2913 C   0  0  0  0  0  0  0  0  0  0  0  0
   21.3764   18.2993   22.4123 H   0  0  0  0  0  0  0  0  0  0  0  0
   19.9646   17.3047   22.0923 H   0  0  0  0  0  0  0  0  0  0  0  0
   19.9415   19.2100   21.0587 C   0  0  0  0  0  0  0  0  0  0  0  0
   20.4478   18.7917   20.1775 H   0  0  0  0  0  0  0  0  0  0  0  0
   20.3463   20.2231   21.1863 H   0  0  0  0  0  0  0  0  0  0  0  0
   18.4239   19.2866   20.7748 C   0  0  0  0  0  0  0  0  0  0  0  0
   17.9962   18.2841   20.6433 H   0  0  0  0  0  0  0  0  0  0  0  0
   18.2330   19.8548   19.8552 H   0  0  0  0  0  0  0  0  0  0  0  0
   17.8841   19.7854   21.5895 H   0  0  0  0  0  0  0  0  0  0  0  0
  1  2  1  0  0  0  0
  1  3  1  0  0  0  0
  1  4  1  0  0  0  0
  1  5  1  0  0  0  0
  5  6  1  0  0  0  0
  5  7  1  0  0  0  0
  7  8  1  0  0  0  0
  7  9  1  0  0  0  0
  7 10  1  0  0  0  0
  5 11  1  0  0  0  0
 11 12  1  0  0  0  0
 11 13  1  0  0  0  0
 11 14  1  0  0  0  0
 14 15  1  0  0  0  0
 14 16  1  0  0  0  0
 14 17  1  0  0  0  0
 17 18  1  0  0  0  0
 17 19  1  0  0  0  0
 17 20  1  0  0  0  0
M  END
> <VConfSearch Rank>
6

> <Conf_Id>
50

> <Delta U+W>
0.466

> <U+W>
-35.811

> <U>
22.369

> <W>
-58.180

> <W(PB)>
-60.103

> <W(SA)>
1.923

> <Valence>
2.168

> <Coulomb>
19.636

> <VdW>
0.566

> <VdW6>
-5.263

> <VdW12>
5.829

> <Bond>
0.162

> <Angle>
1.066

> <Pdih>
0.939

> <Idih>
0.000

> <Tether>
0.000

$$$$
VeraChem MOL file


 20 19  0  0  0  0  0  0  0  0999 V2000     
   20.3128   19.9500   24.7198 N   0  3  0  0  0  0  0  0  0  0  0  0
   20.2467   20.9492   24.5072 H   0  0  0  0  0  0  0  0  0  0  0  0
   21.3010   19.7330   24.8719 H   0  0  0  0  0  0  0  0  0  0  0  0
   19.8275   19.7972   25.6080 H   0  0  0  0  0  0  0  0  0  0  0  0
   19.7251   19.1084   23.6194 C   0  0  2  0  0  0  0  0  0  0  0  0
   18.6775   19.4123   23.5298 H   0  0  0  0  0  0  0  0  0  0  0  0
   19.7757   17.6197   24.0105 C   0  0  0  0  0  0  0  0  0  0  0  0
   20.8100   17.2845   24.1572 H   0  0  0  0  0  0  0  0  0  0  0  0
   19.3228   16.9853   23.2409 H   0  0  0  0  0  0  0  0  0  0  0  0
   19.2280   17.4470   24.9450 H   0  0  0  0  0  0  0  0  0  0  0  0
   20.4197   19.3674   22.2597 C   0  0  0  0  0  0  0  0  0  0  0  0
   20.9760   20.3125   22.3145 H   0  0  0  0  0  0  0  0  0  0  0  0
   21.1722   18.5929   22.0597 H   0  0  0  0  0  0  0  0  0  0  0  0
   19.4388   19.4784   21.0650 C   0  0  0  0  0  0  0  0  0  0  0  0
   20.0116   19.7386   20.1638 H   0  0  0  0  0  0  0  0  0  0  0  0
   18.7442   20.3129   21.2363 H   0  0  0  0  0  0  0  0  0  0  0  0
   18.6330   18.1902   20.7867 C   0  0  0  0  0  0  0  0  0  0  0  0
   19.2986   17.3275   20.6531 H   0  0  0  0  0  0  0  0  0  0  0  0
   18.0395   18.2998   19.8698 H   0  0  0  0  0  0  0  0  0  0  0  0
   17.9351   17.9693   21.6039 H   0  0  0  0  0  0  0  0  0  0  0  0
  1  2  1  0  0  0  0
  1  3  1  0  0  0  0
  1  4  1  0  0  0  0
  1  5  1  0  0  0  0
  5  6  1  0  0  0  0
  5  7  1  0  0  0  0
  7  8  1  0  0  0  0
  7  9  1  0  0  0  0
  7 10  1  0  0  0  0
  5 11  1  0  0  0  0
 11 12  1  0  0  0  0
 11 13  1  0  0  0  0
 11 14  1  0  0  0  0
 14 15  1  0  0  0  0
 14 16  1  0  0  0  0
 14 17  1  0  0  0  0
 17 18  1  0  0  0  0
 17 19  1  0  0  0  0
 17 20  1  0  0  0  0
M  END
> <VConfSearch Rank>
7

> <Conf_Id>
3

> <Delta U+W>
3.093

> <U+W>
-33.184

> <U>
25.256

> <W>
-58.439

> <W(PB)>
-60.337

> <W(SA)>
1.898

> <Valence>
4.963

> <Coulomb>
19.511

> <VdW>
0.782

> <VdW6>
-5.429

> <VdW12>
6.211

> <Bond>
0.174

> <Angle>
1.377

> <Pdih>
3.412

> <Idih>
0.000

> <Tether>
0.000

$$$$
VeraChem MOL file


 20 19  0  0  0  0  0  0  0  0999 V2000     
   20.3129   20.0924   24.6251 N   0  3  0  0  0  0  0  0  0  0  0  0
   19.7915   20.0631   25.5054 H   0  0  0  0  0  0  0  0  0  0  0  0
   20.3189   21.0661   24.3095 H   0  0  0  0  0  0  0  0  0  0  0  0
   21.2798   19.8327   24.8359 H   0  0  0  0  0  0  0  0  0  0  0  0
   19.7071   19.1784   23.5955 C   0  0  2  0  0  0  0  0  0  0  0  0
   18.6822   19.5284   23.4400 H   0  0  0  0  0  0  0  0  0  0  0  0
   19.6525   17.7346   24.1269 C   0  0  0  0  0  0  0  0  0  0  0  0
   19.0895   17.0824   23.4492 H   0  0  0  0  0  0  0  0  0  0  0  0
   19.1507   17.7000   25.1017 H   0  0  0  0  0  0  0  0  0  0  0  0
   20.6599   17.3175   24.2477 H   0  0  0  0  0  0  0  0  0  0  0  0
   20.4628   19.2736   22.2485 C   0  0  0  0  0  0  0  0  0  0  0  0
   20.5390   20.3309   21.9623 H   0  0  0  0  0  0  0  0  0  0  0  0
   21.4935   18.9201   22.3843 H   0  0  0  0  0  0  0  0  0  0  0  0
   19.8116   18.4968   21.0756 C   0  0  0  0  0  0  0  0  0  0  0  0
   19.8399   17.4164   21.2709 H   0  0  0  0  0  0  0  0  0  0  0  0
   20.4158   18.6539   20.1711 H   0  0  0  0  0  0  0  0  0  0  0  0
   18.3581   18.9382   20.7895 C   0  0  0  0  0  0  0  0  0  0  0  0
   18.3042   20.0170   20.5936 H   0  0  0  0  0  0  0  0  0  0  0  0
   17.6936   18.7083   21.6319 H   0  0  0  0  0  0  0  0  0  0  0  0
   17.9648   18.4176   19.9067 H   0  0  0  0  0  0  0  0  0  0  0  0
  1  2  1  0  0  0  0
  1  3  1  0  0  0  0
  1  4  1  0  0  0  0
  1  5  1  0  0  0  0
  5  6  1  0  0  0  0
  5  7  1  0  0  0  0
  7  8  1  0  0  0  0
  7  9  1  0  0  0  0
  7 10  1  0  0  0  0
  5 11  1  0  0  0  0
 11 12  1  0  0  0  0
 11 13  1  0  0  0  0
 11 14  1  0  0  0  0
 14 15  1  0  0  0  0
 14 16  1  0  0  0  0
 14 17  1  0  0  0  0
 17 18  1  0  0  0  0
 17 19  1  0  0  0  0
 17 20  1  0  0  0  0
M  END
> <VConfSearch Rank>
8

> <Conf_Id>
64

> <Delta U+W>
0.544

> <U+W>
-35.732

> <U>
22.800

> <W>
-58.532

> <W(PB)>
-60.437

> <W(SA)>
1.905

> <Valence>
2.662

> <Coulomb>
19.485

> <VdW>
0.653

> <VdW6>
-5.460

> <VdW12>
6.113

> <Bond>
0.174

> <Angle>
1.378

> <Pdih>
1.109

> <Idih>
0.000

> <Tether>
0.000

$$$$
VeraChem MOL file


 20 19  0  0  0  0  0  0  0  0999 V2000     
   20.4120   20.1134   24.3249 N   0  3  0  0  0  0  0  0  0  0  0  0
   21.0511   20.4133   23.5855 H   0  0  0  0  0  0  0  0  0  0  0  0
   20.9744   19.9352   25.1613 H   0  0  0  0  0  0  0  0  0  0  0  0
   19.7951   20.9023   24.5365 H   0  0  0  0  0  0  0  0  0  0  0  0
   19.6308   18.8935   23.9168 C   0  0  2  0  0  0  0  0  0  0  0  0
   18.9915   18.6482   24.7706 H   0  0  0  0  0  0  0  0  0  0  0  0
   20.5664   17.6958   23.6847 C   0  0  0  0  0  0  0  0  0  0  0  0
   21.3277   17.9216   22.9290 H   0  0  0  0  0  0  0  0  0  0  0  0
   20.0001   16.8148   23.3583 H   0  0  0  0  0  0  0  0  0  0  0  0
   21.0870   17.4313   24.6131 H   0  0  0  0  0  0  0  0  0  0  0  0
   18.6926   19.1693   22.7148 C   0  0  0  0  0  0  0  0  0  0  0  0
   18.0244   18.3102   22.5698 H   0  0  0  0  0  0  0  0  0  0  0  0
   18.0343   20.0015   22.9969 H   0  0  0  0  0  0  0  0  0  0  0  0
   19.3854   19.5306   21.3714 C   0  0  0  0  0  0  0  0  0  0  0  0
   20.3326   20.0569   21.5481 H   0  0  0  0  0  0  0  0  0  0  0  0
   18.7443   20.2420   20.8320 H   0  0  0  0  0  0  0  0  0  0  0  0
   19.6179   18.3114   20.4483 C   0  0  0  0  0  0  0  0  0  0  0  0
   20.2881   17.5721   20.9003 H   0  0  0  0  0  0  0  0  0  0  0  0
   20.0689   18.6296   19.4995 H   0  0  0  0  0  0  0  0  0  0  0  0
   18.6700   17.8101   20.2133 H   0  0  0  0  0  0  0  0  0  0  0  0
  1  2  1  0  0  0  0
  1  3  1  0  0  0  0
  1  4  1  0  0  0  0
  1  5  1  0  0  0  0
  5  6  1  0  0  0  0
  5  7  1  0  0  0  0
  7  8  1  0  0  0  0
  7  9  1  0  0  0  0
  7 10  1  0  0  0  0
  5 11  1  0  0  0  0
 11 12  1  0  0  0  0
 11 13  1  0  0  0  0
 11 14  1  0  0  0  0
 14 15  1  0  0  0  0
 14 16  1  0  0  0  0
 14 17  1  0  0  0  0
 17 18  1  0  0  0  0
 17 19  1  0  0  0  0
 17 20  1  0  0  0  0
M  END
> <VConfSearch Rank>
9

> <Conf_Id>
35

> <Delta U+W>
3.004

> <U+W>
-33.272

> <U>
25.367

> <W>
-58.639

> <W(PB)>
-60.512

> <W(SA)>
1.873

> <Valence>
4.943

> <Coulomb>
19.661

> <VdW>
0.764

> <VdW6>
-5.871

> <VdW12>
6.636

> <Bond>
0.230

> <Angle>
1.857

> <Pdih>
2.855

> <Idih>
0.000

> <Tether>
0.000

$$$$
VeraChem MOL file


 20 19  0  0  0  0  0  0  0  0999 V2000     
   20.5527   20.2235   23.7204 N   0  3  0  0  0  0  0  0  0  0  0  0
   21.2492   20.2866   24.4677 H   0  0  0  0  0  0  0  0  0  0  0  0
   20.0057   21.0884   23.7400 H   0  0  0  0  0  0  0  0  0  0  0  0
   21.0541   20.1988   22.8305 H   0  0  0  0  0  0  0  0  0  0  0  0
   19.6750   19.0130   23.8846 C   0  0  2  0  0  0  0  0  0  0  0  0
   19.1699   19.1502   24.8458 H   0  0  0  0  0  0  0  0  0  0  0  0
   20.5097   17.7239   23.9857 C   0  0  0  0  0  0  0  0  0  0  0  0
   21.1212   17.5661   23.0894 H   0  0  0  0  0  0  0  0  0  0  0  0
   19.8604   16.8496   24.1181 H   0  0  0  0  0  0  0  0  0  0  0  0
   21.1851   17.7702   24.8486 H   0  0  0  0  0  0  0  0  0  0  0  0
   18.5662   18.9159   22.8055 C   0  0  0  0  0  0  0  0  0  0  0  0
   17.8063   18.2133   23.1722 H   0  0  0  0  0  0  0  0  0  0  0  0
   18.0552   19.8848   22.7328 H   0  0  0  0  0  0  0  0  0  0  0  0
   18.9932   18.4539   21.3839 C   0  0  0  0  0  0  0  0  0  0  0  0
   18.0899   18.3958   20.7606 H   0  0  0  0  0  0  0  0  0  0  0  0
   19.3924   17.4312   21.4196 H   0  0  0  0  0  0  0  0  0  0  0  0
   20.0082   19.3838   20.6809 C   0  0  0  0  0  0  0  0  0  0  0  0
   19.6744   20.4293   20.7061 H   0  0  0  0  0  0  0  0  0  0  0  0
   20.1203   19.0960   19.6274 H   0  0  0  0  0  0  0  0  0  0  0  0
   21.0015   19.3173   21.1393 H   0  0  0  0  0  0  0  0  0  0  0  0
  1  2  1  0  0  0  0
  1  3  1  0  0  0  0
  1  4  1  0  0  0  0
  1  5  1  0  0  0  0
  5  6  1  0  0  0  0
  5  7  1  0  0  0  0
  7  8  1  0  0  0  0
  7  9  1  0  0  0  0
  7 10  1  0  0  0  0
  5 11  1  0  0  0  0
 11 12  1  0  0  0  0
 11 13  1  0  0  0  0
 11 14  1  0  0  0  0
 14 15  1  0  0  0  0
 14 16  1  0  0  0  0
 14 17  1  0  0  0  0
 17 18  1  0  0  0  0
 17 19  1  0  0  0  0
 17 20  1  0  0  0  0
M  END
> <VConfSearch Rank>
10

> <Conf_Id>
55

> <Delta U+W>
2.767

> <U+W>
-33.509

> <U>
24.552

> <W>
-58.061

> <W(PB)>
-59.930

> <W(SA)>
1.869

> <Valence>
3.726

> <Coulomb>
20.219

> <VdW>
0.606

> <VdW6>
-6.395

> <VdW12>
7.001

> <Bond>
0.241

> <Angle>
2.098

> <Pdih>
1.387

> <Idih>
0.000

> <Tether>
0.000

$$$$
VeraChem MOL file


 20 19  0  0  0  0  0  0  0  0999 V2000     
   17.8122   18.7513   22.3910 N   0  3  0  0  0  0  0  0  0  0  0  0
   17.6877   19.5803   21.8047 H   0  0  0  0  0  0  0  0  0  0  0  0
   16.9042   18.5357   22.8114 H   0  0  0  0  0  0  0  0  0  0  0  0
   18.0540   17.9718   21.7742 H   0  0  0  0  0  0  0  0  0  0  0  0
   18.8670   18.9723   23.4415 C   0  0  2  0  0  0  0  0  0  0  0  0
   18.9384   18.0436   24.0162 H   0  0  0  0  0  0  0  0  0  0  0  0
   18.4476   20.0996   24.3993 C   0  0  0  0  0  0  0  0  0  0  0  0
   17.4793   19.8750   24.8634 H   0  0  0  0  0  0  0  0  0  0  0  0
   18.3595   21.0574   23.8714 H   0  0  0  0  0  0  0  0  0  0  0  0
   19.1820   20.2202   25.2053 H   0  0  0  0  0  0  0  0  0  0  0  0
   20.2554   19.2723   22.8346 C   0  0  0  0  0  0  0  0  0  0  0  0
   20.2054   20.1890   22.2321 H   0  0  0  0  0  0  0  0  0  0  0  0
   20.9628   19.4725   23.6505 H   0  0  0  0  0  0  0  0  0  0  0  0
   20.8040   18.1093   21.9732 C   0  0  0  0  0  0  0  0  0  0  0  0
   20.1417   17.9261   21.1163 H   0  0  0  0  0  0  0  0  0  0  0  0
   20.8199   17.1843   22.5667 H   0  0  0  0  0  0  0  0  0  0  0  0
   22.2267   18.4071   21.4532 C   0  0  0  0  0  0  0  0  0  0  0  0
   22.2384   19.3109   20.8300 H   0  0  0  0  0  0  0  0  0  0  0  0
   22.5992   17.5735   20.8438 H   0  0  0  0  0  0  0  0  0  0  0  0
   22.9287   18.5559   22.2841 H   0  0  0  0  0  0  0  0  0  0  0  0
  1  2  1  0  0  0  0
  1  3  1  0  0  0  0
  1  4  1  0  0  0  0
  1  5  1  0  0  0  0
  5  6  1  0  0  0  0
  5  7  1  0  0  0  0
  7  8  1  0  0  0  0
  7  9  1  0  0  0  0
  7 10  1  0  0  0  0
  5 11  1  0  0  0  0
 11 12  1  0  0  0  0
 11 13  1  0  0  0  0
 11 14  1  0  0  0  0
 14 15  1  0  0  0  0
 14 16  1  0  0  0  0
 14 17  1  0  0  0  0
 17 18  1  0  0  0  0
 17 19  1  0  0  0  0
 17 20  1  0  0  0  0
M  END
> <VConfSearch Rank>
11

> <Conf_Id>
74

> <Delta U+W>
0.000

> <U+W>
-36.276

> <U>
22.080

> <W>
-58.356

> <W(PB)>
-60.289

> <W(SA)>
1.932

> <Valence>
1.885

> <Coulomb>
19.559

> <VdW>
0.637

> <VdW6>
-4.482

> <VdW12>
5.119

> <Bond>
0.136

> <Angle>
0.867

> <Pdih>
0.882

> <Idih>
0.000

> <Tether>
0.000

$$$$
VeraChem MOL file


 20 19  0  0  0  0  0  0  0  0999 V2000     
   17.7553   18.5583   24.0011 N   0  3  0  0  0  0  0  0  0  0  0  0
   17.0314   18.5882   23.2780 H   0  0  0  0  0  0  0  0  0  0  0  0
   17.7319   19.4538   24.4953 H   0  0  0  0  0  0  0  0  0  0  0  0
   17.4832   17.8339   24.6712 H   0  0  0  0  0  0  0  0  0  0  0  0
   19.1140   18.2851   23.4163 C   0  0  2  0  0  0  0  0  0  0  0  0
   19.0441   17.3147   22.9150 H   0  0  0  0  0  0  0  0  0  0  0  0
   20.1656   18.1792   24.5359 C   0  0  0  0  0  0  0  0  0  0  0  0
   19.8482   17.4559   25.2970 H   0  0  0  0  0  0  0  0  0  0  0  0
   20.3189   19.1468   25.0297 H   0  0  0  0  0  0  0  0  0  0  0  0
   21.1306   17.8353   24.1462 H   0  0  0  0  0  0  0  0  0  0  0  0
   19.4923   19.3490   22.3597 C   0  0  0  0  0  0  0  0  0  0  0  0
   18.6565   19.4513   21.6550 H   0  0  0  0  0  0  0  0  0  0  0  0
   19.6104   20.3268   22.8454 H   0  0  0  0  0  0  0  0  0  0  0  0
   20.7719   19.0069   21.5580 C   0  0  0  0  0  0  0  0  0  0  0  0
   20.6795   18.0014   21.1237 H   0  0  0  0  0  0  0  0  0  0  0  0
   21.6451   18.9875   22.2236 H   0  0  0  0  0  0  0  0  0  0  0  0
   21.0280   20.0296   20.4301 C   0  0  0  0  0  0  0  0  0  0  0  0
   20.1942   20.0486   19.7161 H   0  0  0  0  0  0  0  0  0  0  0  0
   21.9399   19.7742   19.8749 H   0  0  0  0  0  0  0  0  0  0  0  0
   21.1535   21.0419   20.8360 H   0  0  0  0  0  0  0  0  0  0  0  0
  1  2  1  0  0  0  0
  1  3  1  0  0  0  0
  1  4  1  0  0  0  0
  1  5  1  0  0  0  0
  5  6  1  0  0  0  0
  5  7  1  0  0  0  0
  7  8  1  0  0  0  0
  7  9  1  0  0  0  0
  7 10  1  0  0  0  0
  5 11  1  0  0  0  0
 11 12  1  0  0  0  0
 11 13  1  0  0  0  0
 11 14  1  0  0  0  0
 14 15  1  0  0  0  0
 14 16  1  0  0  0  0
 14 17  1  0  0  0  0
 17 18  1  0  0  0  0
 17 19  1  0  0  0  0
 17 20  1  0  0  0  0
M  END
> <VConfSearch Rank>
12

> <Conf_Id>
80

> <Delta U+W>
0.460

> <U+W>
-35.817

> <U>
22.495

> <W>
-58.311

> <W(PB)>
-60.259

> <W(SA)>
1.948

> <Valence>
2.419

> <Coulomb>
19.304

> <VdW>
0.772

> <VdW6>
-4.635

> <VdW12>
5.407

> <Bond>
0.149

> <Angle>
1.142

> <Pdih>
1.129

> <Idih>
0.000

> <Tether>
0.000

$$$$
VeraChem MOL file


 20 19  0  0  0  0  0  0  0  0999 V2000     
   21.6076   19.5923   21.3742 N   0  3  0  0  0  0  0  0  0  0  0  0
   21.3234   19.7302   20.4005 H   0  0  0  0  0  0  0  0  0  0  0  0
   22.1007   18.6974   21.4257 H   0  0  0  0  0  0  0  0  0  0  0  0
   22.2851   20.3262   21.5981 H   0  0  0  0  0  0  0  0  0  0  0  0
   20.4287   19.6277   22.3079 C   0  0  2  0  0  0  0  0  0  0  0  0
   19.9729   20.6155   22.1882 H   0  0  0  0  0  0  0  0  0  0  0  0
   20.9001   19.4924   23.7658 C   0  0  0  0  0  0  0  0  0  0  0  0
   21.7059   20.2050   23.9803 H   0  0  0  0  0  0  0  0  0  0  0  0
   21.2750   18.4820   23.9710 H   0  0  0  0  0  0  0  0  0  0  0  0
   20.0842   19.7108   24.4641 H   0  0  0  0  0  0  0  0  0  0  0  0
   19.3762   18.5625   21.9146 C   0  0  0  0  0  0  0  0  0  0  0  0
   19.1317   18.7166   20.8552 H   0  0  0  0  0  0  0  0  0  0  0  0
   19.8127   17.5568   21.9766 H   0  0  0  0  0  0  0  0  0  0  0  0
   18.0504   18.6227   22.7185 C   0  0  0  0  0  0  0  0  0  0  0  0
   17.2186   18.3838   22.0408 H   0  0  0  0  0  0  0  0  0  0  0  0
   17.8647   19.6463   23.0732 H   0  0  0  0  0  0  0  0  0  0  0  0
   18.0019   17.6257   23.9003 C   0  0  0  0  0  0  0  0  0  0  0  0
   18.1111   16.5924   23.5460 H   0  0  0  0  0  0  0  0  0  0  0  0
   17.0398   17.6972   24.4238 H   0  0  0  0  0  0  0  0  0  0  0  0
   18.7934   17.8154   24.6339 H   0  0  0  0  0  0  0  0  0  0  0  0
  1  2  1  0  0  0  0
  1  3  1  0  0  0  0
  1  4  1  0  0  0  0
  1  5  1  0  0  0  0
  5  6  1  0  0  0  0
  5  7  1  0  0  0  0
  7  8  1  0  0  0  0
  7  9  1  0  0  0  0
  7 10  1  0  0  0  0
  5 11  1  0  0  0  0
 11 12  1  0  0  0  0
 11 13  1  0  0  0  0
 11 14  1  0  0  0  0
 14 15  1  0  0  0  0
 14 16  1  0  0  0  0
 14 17  1  0  0  0  0
 17 18  1  0  0  0  0
 17 19  1  0  0  0  0
 17 20  1  0  0  0  0
M  END
> <VConfSearch Rank>
13

> <Conf_Id>
52

> <Delta U+W>
2.995

> <U+W>
-33.282

> <U>
25.224

> <W>
-58.506

> <W(PB)>
-60.411

> <W(SA)>
1.905

> <Valence>
4.945

> <Coulomb>
19.467

> <VdW>
0.813

> <VdW6>
-5.458

> <VdW12>
6.270

> <Bond>
0.200

> <Angle>
1.675

> <Pdih>
3.070

> <Idih>
0.000

> <Tether>
0.000

$$$$
VeraChem MOL file


 20 19  0  0  0  0  0  0  0  0999 V2000     
   19.7584   20.5803   23.1686 N   0  3  0  0  0  0  0  0  0  0  0  0
   19.3897   20.5921   24.1227 H   0  0  0  0  0  0  0  0  0  0  0  0
   19.6336   21.5192   22.7807 H   0  0  0  0  0  0  0  0  0  0  0  0
   20.7632   20.4027   23.2311 H   0  0  0  0  0  0  0  0  0  0  0  0
   19.0711   19.5391   22.3279 C   0  0  2  0  0  0  0  0  0  0  0  0
   19.4813   19.6194   21.3165 H   0  0  0  0  0  0  0  0  0  0  0  0
   17.5633   19.8357   22.2601 C   0  0  0  0  0  0  0  0  0  0  0  0
   17.0974   19.7529   23.2500 H   0  0  0  0  0  0  0  0  0  0  0  0
   17.0569   19.1354   21.5842 H   0  0  0  0  0  0  0  0  0  0  0  0
   17.3831   20.8492   21.8811 H   0  0  0  0  0  0  0  0  0  0  0  0
   19.3151   18.0990   22.8385 C   0  0  0  0  0  0  0  0  0  0  0  0
   19.1515   18.0536   23.9233 H   0  0  0  0  0  0  0  0  0  0  0  0
   18.5599   17.4373   22.3936 H   0  0  0  0  0  0  0  0  0  0  0  0
   20.7053   17.5097   22.4826 C   0  0  0  0  0  0  0  0  0  0  0  0
   20.8417   17.5154   21.3920 H   0  0  0  0  0  0  0  0  0  0  0  0
   20.7159   16.4525   22.7830 H   0  0  0  0  0  0  0  0  0  0  0  0
   21.9027   18.2185   23.1558 C   0  0  0  0  0  0  0  0  0  0  0  0
   22.8180   17.6277   23.0196 H   0  0  0  0  0  0  0  0  0  0  0  0
   21.7417   18.3368   24.2353 H   0  0  0  0  0  0  0  0  0  0  0  0
   22.0905   19.2035   22.7132 H   0  0  0  0  0  0  0  0  0  0  0  0
  1  2  1  0  0  0  0
  1  3  1  0  0  0  0
  1  4  1  0  0  0  0
  1  5  1  0  0  0  0
  5  6  1  0  0  0  0
  5  7  1  0  0  0  0
  7  8  1  0  0  0  0
  7  9  1  0  0  0  0
  7 10  1  0  0  0  0
  5 11  1  0  0  0  0
 11 12  1  0  0  0  0
 11 13  1  0  0  0  0
 11 14  1  0  0  0  0
 14 15  1  0  0  0  0
 14 16  1  0  0  0  0
 14 17  1  0  0  0  0
 17 18  1  0  0  0  0
 17 19  1  0  0  0  0
 17 20  1  0  0  0  0
M  END
> <VConfSearch Rank>
14

> <Conf_Id>
54

> <Delta U+W>
2.752

> <U+W>
-33.525

> <U>
24.337

> <W>
-57.862

> <W(PB)>
-59.764

> <W(SA)>
1.901

> <Valence>
3.593

> <Coulomb>
20.067

> <VdW>
0.677

> <VdW6>
-5.466

> <VdW12>
6.144

> <Bond>
0.191

> <Angle>
1.557

> <Pdih>
1.845

> <Idih>
0.000

> <Tether>
0.000

$$$$
VeraChem MOL file


 20 19  0  0  0  0  0  0  0  0999 V2000     
   20.0909   20.8904   23.3377 N   0  3  0  0  0  0  0  0  0  0  0  0
   20.0681   21.5116   24.1509 H   0  0  0  0  0  0  0  0  0  0  0  0
   19.8931   21.4629   22.5126 H   0  0  0  0  0  0  0  0  0  0  0  0
   21.0475   20.5409   23.2472 H   0  0  0  0  0  0  0  0  0  0  0  0
   19.1043   19.7631   23.4782 C   0  0  2  0  0  0  0  0  0  0  0  0
   18.1214   20.2327   23.5853 H   0  0  0  0  0  0  0  0  0  0  0  0
   19.3717   18.9504   24.7576 C   0  0  0  0  0  0  0  0  0  0  0  0
   18.6516   18.1286   24.8554 H   0  0  0  0  0  0  0  0  0  0  0  0
   19.2706   19.5875   25.6447 H   0  0  0  0  0  0  0  0  0  0  0  0
   20.3822   18.5250   24.7649 H   0  0  0  0  0  0  0  0  0  0  0  0
   19.0476   18.8646   22.2194 C   0  0  0  0  0  0  0  0  0  0  0  0
   18.2494   18.1221   22.3515 H   0  0  0  0  0  0  0  0  0  0  0  0
   18.7443   19.4835   21.3647 H   0  0  0  0  0  0  0  0  0  0  0  0
   20.3723   18.1360   21.8749 C   0  0  0  0  0  0  0  0  0  0  0  0
   20.6656   17.4712   22.6983 H   0  0  0  0  0  0  0  0  0  0  0  0
   21.1842   18.8647   21.7486 H   0  0  0  0  0  0  0  0  0  0  0  0
   20.2402   17.3015   20.5829 C   0  0  0  0  0  0  0  0  0  0  0  0
   21.1842   16.7903   20.3532 H   0  0  0  0  0  0  0  0  0  0  0  0
   19.9853   17.9378   19.7254 H   0  0  0  0  0  0  0  0  0  0  0  0
   19.4596   16.5363   20.6847 H   0  0  0  0  0  0  0  0  0  0  0  0
  1  2  1  0  0  0  0
  1  3  1  0  0  0  0
  1  4  1  0  0  0  0
  1  5  1  0  0  0  0
  5  6  1  0  0  0  0
  5  7  1  0  0  0  0
  7  8  1  0  0  0  0
  7  9  1  0  0  0  0
  7 10  1  0  0  0  0
  5 11  1  0  0  0  0
 11 12  1  0  0  0  0
 11 13  1  0  0  0  0
 11 14  1  0  0  0  0
 14 15  1  0  0  0  0
 14 16  1  0  0  0  0
 14 17  1  0  0  0  0
 17 18  1  0  0  0  0
 17 19  1  0  0  0  0
 17 20  1  0  0  0  0
M  END
> <VConfSearch Rank>
15

> <Conf_Id>
63

> <Delta U+W>
0.420

> <U+W>
-35.856

> <U>
22.625

> <W>
-58.481

> <W(PB)>
-60.400

> <W(SA)>
1.919

> <Valence>
2.404

> <Coulomb>
19.464

> <VdW>
0.757

> <VdW6>
-5.074

> <VdW12>
5.830

> <Bond>
0.172

> <Angle>
1.207

> <Pdih>
1.025

> <Idih>
0.000

> <Tether>
0.000

$$$$
VeraChem MOL file


 20 19  0  0  0  0  0  0  0  0999 V2000     
   21.1241   18.2022   22.0792 N   0  3  0  0  0  0  0  0  0  0  0  0
   21.3164   19.1223   21.6752 H   0  0  0  0  0  0  0  0  0  0  0  0
   20.8627   17.5776   21.3123 H   0  0  0  0  0  0  0  0  0  0  0  0
   22.0013   17.8520   22.4735 H   0  0  0  0  0  0  0  0  0  0  0  0
   20.0417   18.2780   23.1216 C   0  0  2  0  0  0  0  0  0  0  0  0
   20.4010   18.9583   23.8996 H   0  0  0  0  0  0  0  0  0  0  0  0
   19.8072   16.9002   23.7623 C   0  0  0  0  0  0  0  0  0  0  0  0
   20.7353   16.5123   24.1997 H   0  0  0  0  0  0  0  0  0  0  0  0
   19.4483   16.1737   23.0227 H   0  0  0  0  0  0  0  0  0  0  0  0
   19.0631   16.9656   24.5658 H   0  0  0  0  0  0  0  0  0  0  0  0
   18.7173   18.8420   22.5586 C   0  0  0  0  0  0  0  0  0  0  0  0
   18.3315   18.1634   21.7863 H   0  0  0  0  0  0  0  0  0  0  0  0
   17.9655   18.8544   23.3590 H   0  0  0  0  0  0  0  0  0  0  0  0
   18.8358   20.2691   21.9660 C   0  0  0  0  0  0  0  0  0  0  0  0
   17.8501   20.5777   21.5904 H   0  0  0  0  0  0  0  0  0  0  0  0
   19.5029   20.2641   21.0934 H   0  0  0  0  0  0  0  0  0  0  0  0
   19.3291   21.3129   22.9938 C   0  0  0  0  0  0  0  0  0  0  0  0
   18.6768   21.3363   23.8765 H   0  0  0  0  0  0  0  0  0  0  0  0
   19.3294   22.3177   22.5516 H   0  0  0  0  0  0  0  0  0  0  0  0
   20.3518   21.0993   23.3290 H   0  0  0  0  0  0  0  0  0  0  0  0
  1  2  1  0  0  0  0
  1  3  1  0  0  0  0
  1  4  1  0  0  0  0
  1  5  1  0  0  0  0
  5  6  1  0  0  0  0
  5  7  1  0  0  0  0
  7  8  1  0  0  0  0
  7  9  1  0  0  0  0
  7 10  1  0  0  0  0
  5 11  1  0  0  0  0
 11 12  1  0  0  0  0
 11 13  1  0  0  0  0
 11 14  1  0  0  0  0
 14 15  1  0  0  0  0
 14 16  1  0  0  0  0
 14 17  1  0  0  0  0
 17 18  1  0  0  0  0
 17 19  1  0  0  0  0
 17 20  1  0  0  0  0
M  END
> <VConfSearch Rank>
16

> <Conf_Id>
50

> <Delta U+W>
0.466

> <U+W>
-35.811

> <U>
22.369

> <W>
-58.180

> <W(PB)>
-60.103

> <W(SA)>
1.923

> <Valence>
2.168

> <Coulomb>
19.636

> <VdW>
0.566

> <VdW6>
-5.263

> <VdW12>
5.829

> <Bond>
0.162

> <Angle>
1.066

> <Pdih>
0.939

> <Idih>
0.000

> <Tether>
0.000

$$$$
VeraChem MOL file


 20 19  0  0  0  0  0  0  0  0999 V2000     
   18.1257   19.0056   24.4521 N   0  3  0  0  0  0  0  0  0  0  0  0
   18.0983   19.9946   24.7150 H   0  0  0  0  0  0  0  0  0  0  0  0
   18.5110   18.4874   25.2457 H   0  0  0  0  0  0  0  0  0  0  0  0
   17.1570   18.6985   24.3296 H   0  0  0  0  0  0  0  0  0  0  0  0
   18.9353   18.7857   23.2028 C   0  0  2  0  0  0  0  0  0  0  0  0
   18.4522   19.3770   22.4187 H   0  0  0  0  0  0  0  0  0  0  0  0
   18.8892   17.2999   22.7999 C   0  0  0  0  0  0  0  0  0  0  0  0
   19.3224   16.6646   23.5825 H   0  0  0  0  0  0  0  0  0  0  0  0
   19.4434   17.1164   21.8731 H   0  0  0  0  0  0  0  0  0  0  0  0
   17.8542   16.9763   22.6354 H   0  0  0  0  0  0  0  0  0  0  0  0
   20.3905   19.2916   23.3602 C   0  0  0  0  0  0  0  0  0  0  0  0
   20.4439   19.9699   24.2221 H   0  0  0  0  0  0  0  0  0  0  0  0
   21.0630   18.4570   23.5992 H   0  0  0  0  0  0  0  0  0  0  0  0
   20.9215   20.0682   22.1287 C   0  0  0  0  0  0  0  0  0  0  0  0
   21.9245   20.4523   22.3620 H   0  0  0  0  0  0  0  0  0  0  0  0
   20.2909   20.9507   21.9510 H   0  0  0  0  0  0  0  0  0  0  0  0
   21.0004   19.2261   20.8361 C   0  0  0  0  0  0  0  0  0  0  0  0
   21.5897   18.3134   20.9930 H   0  0  0  0  0  0  0  0  0  0  0  0
   21.4806   19.8004   20.0332 H   0  0  0  0  0  0  0  0  0  0  0  0
   20.0020   18.9404   20.4822 H   0  0  0  0  0  0  0  0  0  0  0  0
  1  2  1  0  0  0  0
  1  3  1  0  0  0  0
  1  4  1  0  0  0  0
  1  5  1  0  0  0  0
  5  6  1  0  0  0  0
  5  7  1  0  0  0  0
  7  8  1  0  0  0  0
  7  9  1  0  0  0  0
  7 10  1  0  0  0  0
  5 11  1  0  0  0  0
 11 12  1  0  0  0  0
 11 13  1  0  0  0  0
 11 14  1  0  0  0  0
 14 15  1  0  0  0  0
 14 16  1  0  0  0  0
 14 17  1  0  0  0  0
 17 18  1  0  0  0  0
 17 19  1  0  0  0  0
 17 20  1  0  0  0  0
M  END
> <VConfSearch Rank>
17

> <Conf_Id>
3

> <Delta U+W>
3.093

> <U+W>
-33.184

> <U>
25.256

> <W>
-58.439

> <W(PB)>
-60.337

> <W(SA)>
1.898

> <Valence>
4.963

> <Coulomb>
19.511

> <VdW>
0.782

> <VdW6>
-5.429

> <VdW12>
6.211

> <Bond>
0.174

> <Angle>
1.377

> <Pdih>
3.412

> <Idih>
0.000

> <Tether>
0.000

$$$$
VeraChem MOL file


 20 19  0  0  0  0  0  0  0  0999 V2000     
   18.9200   20.3571   21.1458 N   0  3  0  0  0  0  0  0  0  0  0  0
   19.0249   20.1694   20.1451 H   0  0  0  0  0  0  0  0  0  0  0  0
   19.4184   21.2290   21.3437 H   0  0  0  0  0  0  0  0  0  0  0  0
   17.9262   20.5258   21.3207 H   0  0  0  0  0  0  0  0  0  0  0  0
   19.4419   19.2179   21.9777 C   0  0  2  0  0  0  0  0  0  0  0  0
   20.5003   19.1111   21.7217 H   0  0  0  0  0  0  0  0  0  0  0  0
   18.7183   17.9101   21.6090 C   0  0  0  0  0  0  0  0  0  0  0  0
   19.1798   17.0473   22.1031 H   0  0  0  0  0  0  0  0  0  0  0  0
   18.7700   17.7309   20.5281 H   0  0  0  0  0  0  0  0  0  0  0  0
   17.6605   17.9465   21.8977 H   0  0  0  0  0  0  0  0  0  0  0  0
   19.3369   19.5340   23.4889 C   0  0  0  0  0  0  0  0  0  0  0  0
   19.7988   20.5124   23.6760 H   0  0  0  0  0  0  0  0  0  0  0  0
   18.2795   19.6388   23.7655 H   0  0  0  0  0  0  0  0  0  0  0  0
   20.0041   18.4931   24.4239 C   0  0  0  0  0  0  0  0  0  0  0  0
   19.4784   17.5309   24.3607 H   0  0  0  0  0  0  0  0  0  0  0  0
   19.8893   18.8297   25.4638 H   0  0  0  0  0  0  0  0  0  0  0  0
   21.5072   18.2878   24.1274 C   0  0  0  0  0  0  0  0  0  0  0  0
   22.0540   19.2381   24.1821 H   0  0  0  0  0  0  0  0  0  0  0  0
   21.6664   17.8567   23.1309 H   0  0  0  0  0  0  0  0  0  0  0  0
   21.9534   17.6020   24.8592 H   0  0  0  0  0  0  0  0  0  0  0  0
  1  2  1  0  0  0  0
  1  3  1  0  0  0  0
  1  4  1  0  0  0  0
  1  5  1  0  0  0  0
  5  6  1  0  0  0  0
  5  7  1  0  0  0  0
  7  8  1  0  0  0  0
  7  9  1  0  0  0  0
  7 10  1  0  0  0  0
  5 11  1  0  0  0  0
 11 12  1  0  0  0  0
 11 13  1  0  0  0  0
 11 14  1  0  0  0  0
 14 15  1  0  0  0  0
 14 16  1  0  0  0  0
 14 17  1  0  0  0  0
 17 18  1  0  0  0  0
 17 19  1  0  0  0  0
 17 20  1  0  0  0  0
M  END
> <VConfSearch Rank>
18

> <Conf_Id>
64

> <Delta U+W>
0.544

> <U+W>
-35.732

> <U>
22.800

> <W>
-58.532

> <W(PB)>
-60.437

> <W(SA)>
1.905

> <Valence>
2.662

> <Coulomb>
19.485

> <VdW>
0.653

> <VdW6>
-5.460

> <VdW12>
6.113

> <Bond>
0.174

> <Angle>
1.378

> <Pdih>
1.109

> <Idih>
0.000

> <Tether>
0.000

$$$$
VeraChem MOL file


 20 19  0  0  0  0  0  0  0  0999 V2000     
   20.0142   17.1637   21.5482 N   0  3  0  0  0  0  0  0  0  0  0  0
   20.9837   17.3914   21.7796 H   0  0  0  0  0  0  0  0  0  0  0  0
   19.9786   16.9618   20.5454 H   0  0  0  0  0  0  0  0  0  0  0  0
   19.7759   16.2985   22.0406 H   0  0  0  0  0  0  0  0  0  0  0  0
   19.0815   18.2856   21.9171 C   0  0  2  0  0  0  0  0  0  0  0  0
   18.0815   17.9525   21.6225 H   0  0  0  0  0  0  0  0  0  0  0  0
   19.4007   19.5526   21.1068 C   0  0  0  0  0  0  0  0  0  0  0  0
   20.4404   19.8693   21.2495 H   0  0  0  0  0  0  0  0  0  0  0  0
   18.7403   20.3790   21.3970 H   0  0  0  0  0  0  0  0  0  0  0  0
   19.2526   19.3692   20.0356 H   0  0  0  0  0  0  0  0  0  0  0  0
   19.0407   18.5400   23.4451 C   0  0  0  0  0  0  0  0  0  0  0  0
   18.2258   19.2385   23.6764 H   0  0  0  0  0  0  0  0  0  0  0  0
   18.7558   17.5955   23.9271 H   0  0  0  0  0  0  0  0  0  0  0  0
   20.3620   19.0384   24.0940 C   0  0  0  0  0  0  0  0  0  0  0  0
   21.2351   18.6448   23.5572 H   0  0  0  0  0  0  0  0  0  0  0  0
   20.4252   18.6258   25.1107 H   0  0  0  0  0  0  0  0  0  0  0  0
   20.4542   20.5786   24.2035 C   0  0  0  0  0  0  0  0  0  0  0  0
   20.4428   21.0645   23.2218 H   0  0  0  0  0  0  0  0  0  0  0  0
   21.3848   20.8719   24.7064 H   0  0  0  0  0  0  0  0  0  0  0  0
   19.6188   20.9816   24.7906 H   0  0  0  0  0  0  0  0  0  0  0  0
  1  2  1  0  0  0  0
  1  3  1  0  0  0  0
  1  4  1  0  0  0  0
  1  5  1  0  0  0  0
  5  6  1  0  0  0  0
  5  7  1  0  0  0  0
  7  8  1  0  0  0  0
  7  9  1  0  0  0  0
  7 10  1  0  0  0  0
  5 11  1  0  0  0  0
 11 12  1  0  0  0  0
 11 13  1  0  0  0  0
 11 14  1  0  0  0  0
 14 15  1  0  0  0  0
 14 16  1  0  0  0  0
 14 17  1  0  0  0  0
 17 18  1  0  0  0  0
 17 19  1  0  0  0  0
 17 20  1  0  0  0  0
M  END
> <VConfSearch Rank>
19

> <Conf_Id>
35

> <Delta U+W>
3.004

> <U+W>
-33.272

> <U>
25.367

> <W>
-58.639

> <W(PB)>
-60.512

> <W(SA)>
1.873

> <Valence>
4.943

> <Coulomb>
19.661

> <VdW>
0.764

> <VdW6>
-5.871

> <VdW12>
6.636

> <Bond>
0.230

> <Angle>
1.857

> <Pdih>
2.855

> <Idih>
0.000

> <Tether>
0.000

$$$$
VeraChem MOL file


 20 19  0  0  0  0  0  0  0  0999 V2000     
   19.2876   17.4051   22.0179 N   0  3  0  0  0  0  0  0  0  0  0  0
   19.3930   16.4083   22.2249 H   0  0  0  0  0  0  0  0  0  0  0  0
   18.9885   17.4836   21.0422 H   0  0  0  0  0  0  0  0  0  0  0  0
   18.5288   17.7642   22.6003 H   0  0  0  0  0  0  0  0  0  0  0  0
   20.5662   18.1581   22.2642 C   0  0  2  0  0  0  0  0  0  0  0  0
   21.2980   17.7171   21.5802 H   0  0  0  0  0  0  0  0  0  0  0  0
   21.0837   17.9327   23.6960 C   0  0  0  0  0  0  0  0  0  0  0  0
   20.3571   18.2664   24.4463 H   0  0  0  0  0  0  0  0  0  0  0  0
   22.0225   18.4759   23.8601 H   0  0  0  0  0  0  0  0  0  0  0  0
   21.2807   16.8679   23.8702 H   0  0  0  0  0  0  0  0  0  0  0  0
   20.4644   19.6622   21.9026 C   0  0  0  0  0  0  0  0  0  0  0  0
   21.4868   20.0516   21.8099 H   0  0  0  0  0  0  0  0  0  0  0  0
   20.0251   19.7580   20.9011 H   0  0  0  0  0  0  0  0  0  0  0  0
   19.6938   20.5825   22.8904 C   0  0  0  0  0  0  0  0  0  0  0  0
   19.7550   21.6125   22.5122 H   0  0  0  0  0  0  0  0  0  0  0  0
   20.1956   20.5975   23.8674 H   0  0  0  0  0  0  0  0  0  0  0  0
   18.2023   20.2228   23.0776 C   0  0  0  0  0  0  0  0  0  0  0  0
   17.6938   20.1163   22.1105 H   0  0  0  0  0  0  0  0  0  0  0  0
   17.6882   21.0144   23.6381 H   0  0  0  0  0  0  0  0  0  0  0  0
   18.0793   19.2945   23.6472 H   0  0  0  0  0  0  0  0  0  0  0  0
  1  2  1  0  0  0  0
  1  3  1  0  0  0  0
  1  4  1  0  0  0  0
  1  5  1  0  0  0  0
  5  6  1  0  0  0  0
  5  7  1  0  0  0  0
  7  8  1  0  0  0  0
  7  9  1  0  0  0  0
  7 10  1  0  0  0  0
  5 11  1  0  0  0  0
 11 12  1  0  0  0  0
 11 13  1  0  0  0  0
 11 14  1  0  0  0  0
 14 15  1  0  0  0  0
 14 16  1  0  0  0  0
 14 17  1  0  0  0  0
 17 18  1  0  0  0  0
 17 19  1  0  0  0  0
 17 20  1  0  0  0  0
M  END
> <VConfSearch Rank>
20

> <Conf_Id>
55

> <Delta U+W>
2.767

> <U+W>
-33.509

> <U>
24.552

> <W>
-58.061

> <W(PB)>
-59.930

> <W(SA)>
1.869

> <Valence>
3.726

> <Coulomb>
20.219

> <VdW>
0.606

> <VdW6>
-6.395

> <VdW12>
7.001

> <Bond>
0.241

> <Angle>
2.098

> <Pdih>
1.387

> <Idih>
0.000

> <Tether>
0.000

$$$$
VeraChem MOL file


 20 19  0  0  0  0  0  0  0  0999 V2000     
   20.6602   19.5586   21.0789 N   0  3  0  0  0  0  0  0  0  0  0  0
   20.8825   18.6339   20.7020 H   0  0  0  0  0  0  0  0  0  0  0  0
   21.3353   20.2192   20.6847 H   0  0  0  0  0  0  0  0  0  0  0  0
   19.7367   19.8209   20.7254 H   0  0  0  0  0  0  0  0  0  0  0  0
   20.6978   19.5645   22.5834 C   0  0  2  0  0  0  0  0  0  0  0  0
   20.4464   20.5814   22.9006 H   0  0  0  0  0  0  0  0  0  0  0  0
   22.1126   19.2387   23.0895 C   0  0  0  0  0  0  0  0  0  0  0  0
   22.8441   19.9465   22.6806 H   0  0  0  0  0  0  0  0  0  0  0  0
   22.4162   18.2260   22.7962 H   0  0  0  0  0  0  0  0  0  0  0  0
   22.1609   19.3063   24.1834 H   0  0  0  0  0  0  0  0  0  0  0  0
   19.6684   18.5961   23.2067 C   0  0  0  0  0  0  0  0  0  0  0  0
   19.8845   17.5689   22.8842 H   0  0  0  0  0  0  0  0  0  0  0  0
   19.7835   18.6117   24.2988 H   0  0  0  0  0  0  0  0  0  0  0  0
   18.2055   18.9582   22.8542 C   0  0  0  0  0  0  0  0  0  0  0  0
   18.0494   18.8947   21.7689 H   0  0  0  0  0  0  0  0  0  0  0  0
   18.0011   19.9983   23.1450 H   0  0  0  0  0  0  0  0  0  0  0  0
   17.2008   18.0232   23.5612 C   0  0  0  0  0  0  0  0  0  0  0  0
   17.3600   16.9776   23.2671 H   0  0  0  0  0  0  0  0  0  0  0  0
   16.1695   18.2931   23.2992 H   0  0  0  0  0  0  0  0  0  0  0  0
   17.2987   18.0899   24.6526 H   0  0  0  0  0  0  0  0  0  0  0  0
  1  2  1  0  0  0  0
  1  3  1  0  0  0  0
  1  4  1  0  0  0  0
  1  5  1  0  0  0  0
  5  6  1  0  0  0  0
  5  7  1  0  0  0  0
  7  8  1  0  0  0  0
  7  9  1  0  0  0  0
  7 10  1  0  0  0  0
  5 11  1  0  0  0  0
 11 12  1  0  0  0  0
 11 13  1  0  0  0  0
 11 14  1  0  0  0  0
 14 15  1  0  0  0  0
 14 16  1  0  0  0  0
 14 17  1  0  0  0  0
 17 18  1  0  0  0  0
 17 19  1  0  0  0  0
 17 20  1  0  0  0  0
M  END
> <VConfSearch Rank>
21

> <Conf_Id>
74

> <Delta U+W>
0.000

> <U+W>
-36.276

> <U>
22.080

> <W>
-58.356

> <W(PB)>
-60.289

> <W(SA)>
1.932

> <Valence>
1.885

> <Coulomb>
19.559

> <VdW>
0.637

> <VdW6>
-4.482

> <VdW12>
5.119

> <Bond>
0.136

> <Angle>
0.867

> <Pdih>
0.882

> <Idih>
0.000

> <Tether>
0.000

$$$$
VeraChem MOL file


 20 19  0  0  0  0  0  0  0  0999 V2000     
   18.1311   19.5920   24.3627 N   0  3  0  0  0  0  0  0  0  0  0  0
   18.5213   19.1794   25.2144 H   0  0  0  0  0  0  0  0  0  0  0  0
   17.3603   18.9926   24.0572 H   0  0  0  0  0  0  0  0  0  0  0  0
   17.7284   20.4965   24.6224 H   0  0  0  0  0  0  0  0  0  0  0  0
   19.1741   19.7413   23.2892 C   0  0  2  0  0  0  0  0  0  0  0  0
   19.9493   20.3947   23.7016 H   0  0  0  0  0  0  0  0  0  0  0  0
   18.5700   20.4261   22.0495 C   0  0  0  0  0  0  0  0  0  0  0  0
   18.0731   21.3631   22.3294 H   0  0  0  0  0  0  0  0  0  0  0  0
   17.8290   19.7813   21.5610 H   0  0  0  0  0  0  0  0  0  0  0  0
   19.3440   20.6777   21.3155 H   0  0  0  0  0  0  0  0  0  0  0  0
   19.8219   18.3798   22.9456 C   0  0  0  0  0  0  0  0  0  0  0  0
   20.1337   17.8974   23.8815 H   0  0  0  0  0  0  0  0  0  0  0  0
   19.0730   17.7184   22.4900 H   0  0  0  0  0  0  0  0  0  0  0  0
   21.0547   18.4906   22.0156 C   0  0  0  0  0  0  0  0  0  0  0  0
   21.7772   19.2014   22.4409 H   0  0  0  0  0  0  0  0  0  0  0  0
   20.7582   18.8860   21.0350 H   0  0  0  0  0  0  0  0  0  0  0  0
   21.7412   17.1225   21.8141 C   0  0  0  0  0  0  0  0  0  0  0  0
   22.0926   16.7113   22.7695 H   0  0  0  0  0  0  0  0  0  0  0  0
   22.6100   17.2187   21.1500 H   0  0  0  0  0  0  0  0  0  0  0  0
   21.0515   16.3973   21.3629 H   0  0  0  0  0  0  0  0  0  0  0  0
  1  2  1  0  0  0  0
  1  3  1  0  0  0  0
  1  4  1  0  0  0  0
  1  5  1  0  0  0  0
  5  6  1  0  0  0  0
  5  7  1  0  0  0  0
  7  8  1  0  0  0  0
  7  9  1  0  0  0  0
  7 10  1  0  0  0  0
  5 11  1  0  0  0  0
 11 12  1  0  0  0  0
 11 13  1  0  0  0  0
 11 14  1  0  0  0  0
 14 15  1  0  0  0  0
 14 16  1  0  0  0  0
 14 17  1  0  0  0  0
 17 18  1  0  0  0  0
 17 19  1  0  0  0  0
 17 20  1  0  0  0  0
M  END
> <VConfSearch Rank>
22

> <Conf_Id>
80

> <Delta U+W>
0.460

> <U+W>
-35.817

> <U>
22.495

> <W>
-58.311

> <W(PB)>
-60.259

> <W(SA)>
1.948

> <Valence>
2.419

> <Coulomb>
19.304

> <VdW>
0.772

> <VdW6>
-4.635

> <VdW12>
5.407

> <Bond>
0.149

> <Angle>
1.142

> <Pdih>
1.129

> <Idih>
0.000

> <Tether>
0.000

$$$$
VeraChem MOL file


 20 19  0  0  0  0  0  0  0  0999 V2000     
   19.8608   19.9764   20.5912 N   0  3  0  0  0  0  0  0  0  0  0  0
   20.6368   19.6155   20.0296 H   0  0  0  0  0  0  0  0  0  0  0  0
   20.1512   20.8816   20.9694 H   0  0  0  0  0  0  0  0  0  0  0  0
   19.0804   20.1500   19.9522 H   0  0  0  0  0  0  0  0  0  0  0  0
   19.4742   19.0194   21.6855 C   0  0  2  0  0  0  0  0  0  0  0  0
   19.1756   18.0909   21.1888 H   0  0  0  0  0  0  0  0  0  0  0  0
   18.2598   19.5590   22.4601 C   0  0  0  0  0  0  0  0  0  0  0  0
   17.4585   19.8508   21.7702 H   0  0  0  0  0  0  0  0  0  0  0  0
   18.5286   20.4365   23.0612 H   0  0  0  0  0  0  0  0  0  0  0  0
   17.8468   18.7927   23.1259 H   0  0  0  0  0  0  0  0  0  0  0  0
   20.6820   18.7064   22.6024 C   0  0  0  0  0  0  0  0  0  0  0  0
   21.5041   18.3655   21.9591 H   0  0  0  0  0  0  0  0  0  0  0  0
   21.0413   19.6257   23.0835 H   0  0  0  0  0  0  0  0  0  0  0  0
   20.4289   17.6067   23.6674 C   0  0  0  0  0  0  0  0  0  0  0  0
   21.3454   17.0103   23.7797 H   0  0  0  0  0  0  0  0  0  0  0  0
   19.6561   16.9074   23.3186 H   0  0  0  0  0  0  0  0  0  0  0  0
   20.0562   18.1718   25.0583 C   0  0  0  0  0  0  0  0  0  0  0  0
   20.8576   18.8126   25.4486 H   0  0  0  0  0  0  0  0  0  0  0  0
   19.9045   17.3555   25.7764 H   0  0  0  0  0  0  0  0  0  0  0  0
   19.1350   18.7643   25.0305 H   0  0  0  0  0  0  0  0  0  0  0  0
  1  2  1  0  0  0  0
  1  3  1  0  0  0  0
  1  4  1  0  0  0  0
  1  5  1  0  0  0  0
  5  6  1  0  0  0  0
  5  7  1  0  0  0  0
  7  8  1  0  0  0  0
  7  9  1  0  0  0  0
  7 10  1  0  0  0  0
  5 11  1  0  0  0  0
 11 12  1  0  0  0  0
 11 13  1  0  0  0  0
 11 14  1  0  0  0  0
 14 15  1  0  0  0  0
 14 16  1  0  0  0  0
 14 17  1  0  0  0  0
 17 18  1  0  0  0  0
 17 19  1  0  0  0  0
 17 20  1  0  0  0  0
M  END
> <VConfSearch Rank>
23

> <Conf_Id>
52

> <Delta U+W>
2.995

> <U+W>
-33.282

> <U>
25.224

> <W>
-58.506

> <W(PB)>
-60.411

> <W(SA)>
1.905

> <Valence>
4.945

> <Coulomb>
19.467

> <VdW>
0.813

> <VdW6>
-5.458

> <VdW12>
6.270

> <Bond>
0.200

> <Angle>
1.675

> <Pdih>
3.070

> <Idih>
0.000

> <Tether>
0.000

$$$$
VeraChem MOL file


 20 19  0  0  0  0  0  0  0  0999 V2000     
   18.4843   20.0107   22.9270 N   0  3  0  0  0  0  0  0  0  0  0  0
   18.8942   20.9025   23.2154 H   0  0  0  0  0  0  0  0  0  0  0  0
   17.5024   20.0176   23.2159 H   0  0  0  0  0  0  0  0  0  0  0  0
   18.5056   19.9805   21.9054 H   0  0  0  0  0  0  0  0  0  0  0  0
   19.2278   18.8469   23.5234 C   0  0  2  0  0  0  0  0  0  0  0  0
   18.7056   17.9370   23.2118 H   0  0  0  0  0  0  0  0  0  0  0  0
   19.1782   18.9278   25.0586 C   0  0  0  0  0  0  0  0  0  0  0  0
   19.7038   19.8180   25.4265 H   0  0  0  0  0  0  0  0  0  0  0  0
   19.6438   18.0440   25.5122 H   0  0  0  0  0  0  0  0  0  0  0  0
   18.1408   18.9727   25.4122 H   0  0  0  0  0  0  0  0  0  0  0  0
   20.6934   18.7575   23.0351 C   0  0  0  0  0  0  0  0  0  0  0  0
   21.1713   19.7437   23.1024 H   0  0  0  0  0  0  0  0  0  0  0  0
   21.2517   18.1065   23.7210 H   0  0  0  0  0  0  0  0  0  0  0  0
   20.8689   18.1751   21.6080 C   0  0  0  0  0  0  0  0  0  0  0  0
   20.4295   17.1687   21.5622 H   0  0  0  0  0  0  0  0  0  0  0  0
   21.9442   18.0441   21.4218 H   0  0  0  0  0  0  0  0  0  0  0  0
   20.2817   19.0464   20.4742 C   0  0  0  0  0  0  0  0  0  0  0  0
   20.6192   18.6751   19.4977 H   0  0  0  0  0  0  0  0  0  0  0  0
   20.6080   20.0908   20.5630 H   0  0  0  0  0  0  0  0  0  0  0  0
   19.1861   19.0146   20.4660 H   0  0  0  0  0  0  0  0  0  0  0  0
  1  2  1  0  0  0  0
  1  3  1  0  0  0  0
  1  4  1  0  0  0  0
  1  5  1  0  0  0  0
  5  6  1  0  0  0  0
  5  7  1  0  0  0  0
  7  8  1  0  0  0  0
  7  9  1  0  0  0  0
  7 10  1  0  0  0  0
  5 11  1  0  0  0  0
 11 12  1  0  0  0  0
 11 13  1  0  0  0  0
 11 14  1  0  0  0  0
 14 15  1  0  0  0  0
 14 16  1  0  0  0  0
 14 17  1  0  0  0  0
 17 18  1  0  0  0  0
 17 19  1  0  0  0  0
 17 20  1  0  0  0  0
M  END
> <VConfSearch Rank>
24

> <Conf_Id>
54

> <Delta U+W>
2.752

> <U+W>
-33.525

> <U>
24.337

> <W>
-57.862

> <W(PB)>
-59.764

> <W(SA)>
1.901

> <Valence>
3.593

> <Coulomb>
20.067

> <VdW>
0.677

> <VdW6>
-5.466

> <VdW12>
6.144

> <Bond>
0.191

> <Angle>
1.557

> <Pdih>
1.845

> <Idih>
0.000

> <Tether>
0.000

$$$$
VeraChem MOL file


 20 19  0  0  0  0  0  0  0  0999 V2000     
   18.9401   20.6811   23.4854 N   0  3  0  0  0  0  0  0  0  0  0  0
   18.1680   21.0547   24.0439 H   0  0  0  0  0  0  0  0  0  0  0  0
   19.2185   21.4119   22.8249 H   0  0  0  0  0  0  0  0  0  0  0  0
   19.7270   20.5236   24.1190 H   0  0  0  0  0  0  0  0  0  0  0  0
   18.5438   19.4153   22.7752 C   0  0  2  0  0  0  0  0  0  0  0  0
   17.6922   19.6785   22.1401 H   0  0  0  0  0  0  0  0  0  0  0  0
   18.0643   18.3474   23.7745 C   0  0  0  0  0  0  0  0  0  0  0  0
   17.7781   17.4257   23.2531 H   0  0  0  0  0  0  0  0  0  0  0  0
   17.1849   18.7043   24.3244 H   0  0  0  0  0  0  0  0  0  0  0  0
   18.8402   18.1005   24.5087 H   0  0  0  0  0  0  0  0  0  0  0  0
   19.6606   18.8825   21.8457 C   0  0  0  0  0  0  0  0  0  0  0  0
   19.2760   18.0148   21.2934 H   0  0  0  0  0  0  0  0  0  0  0  0
   19.8775   19.6484   21.0896 H   0  0  0  0  0  0  0  0  0  0  0  0
   20.9776   18.4893   22.5635 C   0  0  0  0  0  0  0  0  0  0  0  0
   20.7901   17.6863   23.2887 H   0  0  0  0  0  0  0  0  0  0  0  0
   21.3712   19.3444   23.1291 H   0  0  0  0  0  0  0  0  0  0  0  0
   22.0498   18.0142   21.5595 C   0  0  0  0  0  0  0  0  0  0  0  0
   22.9748   17.7375   22.0819 H   0  0  0  0  0  0  0  0  0  0  0  0
   22.2946   18.8051   20.8386 H   0  0  0  0  0  0  0  0  0  0  0  0
   21.7045   17.1357   20.9988 H   0  0  0  0  0  0  0  0  0  0  0  0
  1  2  1  0  0  0  0
  1  3  1  0  0  0  0
  1  4  1  0  0  0  0
  1  5  1  0  0  0  0
  5  6  1  0  0  0  0
  5  7  1  0  0  0  0
  7  8  1  0  0  0  0
  7  9  1  0  0  0  0
  7 10  1  0  0  0  0
  5 11  1  0  0  0  0
 11 12  1  0  0  0  0
 11 13  1  0  0  0  0
 11 14  1  0  0  0  0
 14 15  1  0  0  0  0
 14 16  1  0  0  0  0
 14 17  1  0  0  0  0
 17 18  1  0  0  0  0
 17 19  1  0  0  0  0
 17 20  1  0  0  0  0
M  END
> <VConfSearch Rank>
25

> <Conf_Id>
63

> <Delta U+W>
0.420

> <U+W>
-35.856

> <U>
22.625

> <W>
-58.481

> <W(PB)>
-60.400

> <W(SA)>
1.919

> <Valence>
2.404

> <Coulomb>
19.464

> <VdW>
0.757

> <VdW6>
-5.074

> <VdW12>
5.830

> <Bond>
0.172

> <Angle>
1.207

> <Pdih>
1.025

> <Idih>
0.000

> <Tether>
0.000

$$$$
VeraChem MOL file


 20 19  0  0  0  0  0  0  0  0999 V2000     
   20.0435   17.2662   22.4813 N   0  3  0  0  0  0  0  0  0  0  0  0
   20.8659   17.6150   21.9824 H   0  0  0  0  0  0  0  0  0  0  0  0
   19.4030   16.8768   21.7852 H   0  0  0  0  0  0  0  0  0  0  0  0
   20.3526   16.4944   23.0783 H   0  0  0  0  0  0  0  0  0  0  0  0
   19.3880   18.3569   23.2844 C   0  0  2  0  0  0  0  0  0  0  0  0
   20.1348   18.7126   24.0005 H   0  0  0  0  0  0  0  0  0  0  0  0
   18.1916   17.8041   24.0761 C   0  0  0  0  0  0  0  0  0  0  0  0
   18.5055   16.9813   24.7300 H   0  0  0  0  0  0  0  0  0  0  0  0
   17.4100   17.4277   23.4044 H   0  0  0  0  0  0  0  0  0  0  0  0
   17.7507   18.5831   24.7104 H   0  0  0  0  0  0  0  0  0  0  0  0
   18.9479   19.5523   22.4091 C   0  0  0  0  0  0  0  0  0  0  0  0
   18.1849   19.2184   21.6933 H   0  0  0  0  0  0  0  0  0  0  0  0
   18.4620   20.3025   23.0471 H   0  0  0  0  0  0  0  0  0  0  0  0
   20.1053   20.2331   21.6353 C   0  0  0  0  0  0  0  0  0  0  0  0
   19.6937   21.0624   21.0431 H   0  0  0  0  0  0  0  0  0  0  0  0
   20.5416   19.5325   20.9104 H   0  0  0  0  0  0  0  0  0  0  0  0
   21.2137   20.7818   22.5625 C   0  0  0  0  0  0  0  0  0  0  0  0
   20.8010   21.4856   23.2970 H   0  0  0  0  0  0  0  0  0  0  0  0
   21.9742   21.3160   21.9782 H   0  0  0  0  0  0  0  0  0  0  0  0
   21.7215   19.9762   23.1075 H   0  0  0  0  0  0  0  0  0  0  0  0
  1  2  1  0  0  0  0
  1  3  1  0  0  0  0
  1  4  1  0  0  0  0
  1  5  1  0  0  0  0
  5  6  1  0  0  0  0
  5  7  1  0  0  0  0
  7  8  1  0  0  0  0
  7  9  1  0  0  0  0
  7 10  1  0  0  0  0
  5 11  1  0  0  0  0
 11 12  1  0  0  0  0
 11 13  1  0  0  0  0
 11 14  1  0  0  0  0
 14 15  1  0  0  0  0
 14 16  1  0  0  0  0
 14 17  1  0  0  0  0
 17 18  1  0  0  0  0
 17 19  1  0  0  0  0
 17 20  1  0  0  0  0
M  END
> <VConfSearch Rank>
26

> <Conf_Id>
50

> <Delta U+W>
0.466

> <U+W>
-35.811

> <U>
22.369

> <W>
-58.180

> <W(PB)>
-60.103

> <W(SA)>
1.923

> <Valence>
2.168

> <Coulomb>
19.636

> <VdW>
0.566

> <VdW6>
-5.263

> <VdW12>
5.829

> <Bond>
0.162

> <Angle>
1.066

> <Pdih>
0.939

> <Idih>
0.000

> <Tether>
0.000

$$$$
VeraChem MOL file


 20 19  0  0  0  0  0  0  0  0999 V2000     
   17.8204   17.7021   22.1282 N   0  3  0  0  0  0  0  0  0  0  0  0
   18.1882   16.8366   21.7237 H   0  0  0  0  0  0  0  0  0  0  0  0
   17.3772   18.2304   21.3723 H   0  0  0  0  0  0  0  0  0  0  0  0
   17.0834   17.4382   22.7877 H   0  0  0  0  0  0  0  0  0  0  0  0
   18.9017   18.5029   22.8022 C   0  0  2  0  0  0  0  0  0  0  0  0
   19.3141   17.8593   23.5855 H   0  0  0  0  0  0  0  0  0  0  0  0
   18.2958   19.7562   23.4612 C   0  0  0  0  0  0  0  0  0  0  0  0
   17.8279   20.4087   22.7136 H   0  0  0  0  0  0  0  0  0  0  0  0
   19.0565   20.3415   23.9891 H   0  0  0  0  0  0  0  0  0  0  0  0
   17.5287   19.4752   24.1930 H   0  0  0  0  0  0  0  0  0  0  0  0
   20.0465   18.8664   21.8248 C   0  0  0  0  0  0  0  0  0  0  0  0
   19.9841   18.2177   20.9410 H   0  0  0  0  0  0  0  0  0  0  0  0
   19.9196   19.8904   21.4491 H   0  0  0  0  0  0  0  0  0  0  0  0
   21.4642   18.6912   22.4260 C   0  0  0  0  0  0  0  0  0  0  0  0
   22.2058   18.8952   21.6409 H   0  0  0  0  0  0  0  0  0  0  0  0
   21.6116   17.6423   22.7195 H   0  0  0  0  0  0  0  0  0  0  0  0
   21.7558   19.6074   23.6350 C   0  0  0  0  0  0  0  0  0  0  0  0
   21.5761   20.6614   23.3861 H   0  0  0  0  0  0  0  0  0  0  0  0
   22.8045   19.5111   23.9448 H   0  0  0  0  0  0  0  0  0  0  0  0
   21.1336   19.3418   24.4987 H   0  0  0  0  0  0  0  0  0  0  0  0
  1  2  1  0  0  0  0
  1  3  1  0  0  0  0
  1  4  1  0  0  0  0
  1  5  1  0  0  0  0
  5  6  1  0  0  0  0
  5  7  1  0  0  0  0
  7  8  1  0  0  0  0
  7  9  1  0  0  0  0
  7 10  1  0  0  0  0
  5 11  1  0  0  0  0
 11 12  1  0  0  0  0
 11 13  1  0  0  0  0
 11 14  1  0  0  0  0
 14 15  1  0  0  0  0
 14 16  1  0  0  0  0
 14 17  1  0  0  0  0
 17 18  1  0  0  0  0
 17 19  1  0  0  0  0
 17 20  1  0  0  0  0
M  END
> <VConfSearch Rank>
27

> <Conf_Id>
3

> <Delta U+W>
3.093

> <U+W>
-33.184

> <U>
25.256

> <W>
-58.439

> <W(PB)>
-60.337

> <W(SA)>
1.898

> <Valence>
4.963

> <Coulomb>
19.511

> <VdW>
0.782

> <VdW6>
-5.429

> <VdW12>
6.211

> <Bond>
0.174

> <Angle>
1.377

> <Pdih>
3.412

> <Idih>
0.000

> <Tether>
0.000

$$$$
VeraChem MOL file


 20 19  0  0  0  0  0  0  0  0999 V2000     
   21.1511   20.4184   21.8487 N   0  3  0  0  0  0  0  0  0  0  0  0
   21.6075   21.1581   22.3893 H   0  0  0  0  0  0  0  0  0  0  0  0
   20.6034   20.8749   21.1142 H   0  0  0  0  0  0  0  0  0  0  0  0
   21.8888   19.8782   21.3898 H   0  0  0  0  0  0  0  0  0  0  0  0
   20.2909   19.5478   22.7230 C   0  0  2  0  0  0  0  0  0  0  0  0
   19.5411   20.2076   23.1698 H   0  0  0  0  0  0  0  0  0  0  0  0
   21.1312   18.9298   23.8554 C   0  0  0  0  0  0  0  0  0  0  0  0
   20.4974   18.4067   24.5809 H   0  0  0  0  0  0  0  0  0  0  0  0
   21.6754   19.7092   24.4027 H   0  0  0  0  0  0  0  0  0  0  0  0
   21.8645   18.2154   23.4613 H   0  0  0  0  0  0  0  0  0  0  0  0
   19.5560   18.4703   21.8904 C   0  0  0  0  0  0  0  0  0  0  0  0
   19.0422   18.9625   21.0542 H   0  0  0  0  0  0  0  0  0  0  0  0
   20.2939   17.7942   21.4386 H   0  0  0  0  0  0  0  0  0  0  0  0
   18.5155   17.6318   22.6762 C   0  0  0  0  0  0  0  0  0  0  0  0
   19.0158   17.0205   23.4393 H   0  0  0  0  0  0  0  0  0  0  0  0
   18.0426   16.9203   21.9848 H   0  0  0  0  0  0  0  0  0  0  0  0
   17.4159   18.4946   23.3361 C   0  0  0  0  0  0  0  0  0  0  0  0
   16.9027   19.1175   22.5919 H   0  0  0  0  0  0  0  0  0  0  0  0
   17.8303   19.1541   24.1091 H   0  0  0  0  0  0  0  0  0  0  0  0
   16.6623   17.8564   23.8155 H   0  0  0  0  0  0  0  0  0  0  0  0
  1  2  1  0  0  0  0
  1  3  1  0  0  0  0
  1  4  1  0  0  0  0
  1  5  1  0  0  0  0
  5  6  1  0  0  0  0
  5  7  1  0  0  0  0
  7  8  1  0  0  0  0
  7  9  1  0  0  0  0
  7 10  1  0  0  0  0
  5 11  1  0  0  0  0
 11 12  1  0  0  0  0
 11 13  1  0  0  0  0
 11 14  1  0  0  0  0
 14 15  1  0  0  0  0
 14 16  1  0  0  0  0
 14 17  1  0  0  0  0
 17 18  1  0  0  0  0
 17 19  1  0  0  0  0
 17 20  1  0  0  0  0
M  END
> <VConfSearch Rank>
28

> <Conf_Id>
64

> <Delta U+W>
0.544

> <U+W>
-35.732

> <U>
22.800

> <W>
-58.532

> <W(PB)>
-60.437

> <W(SA)>
1.905

> <Valence>
2.662

> <Coulomb>
19.485

> <VdW>
0.653

> <VdW6>
-5.460

> <VdW12>
6.113

> <Bond>
0.174

> <Angle>
1.378

> <Pdih>
1.109

> <Idih>
0.000

> <Tether>
0.000

$$$$
VeraChem MOL file


 20 19  0  0  0  0  0  0  0  0999 V2000     
   21.1794   20.1918   23.6472 N   0  3  0  0  0  0  0  0  0  0  0  0
   20.3173   20.7372   23.7158 H   0  0  0  0  0  0  0  0  0  0  0  0
   21.9125   20.8204   23.3081 H   0  0  0  0  0  0  0  0  0  0  0  0
   21.4388   19.9066   24.5953 H   0  0  0  0  0  0  0  0  0  0  0  0
   21.0092   19.0041   22.7387 C   0  0  2  0  0  0  0  0  0  0  0  0
   21.9795   18.4979   22.7233 H   0  0  0  0  0  0  0  0  0  0  0  0
   20.7029   19.4534   21.3007 C   0  0  0  0  0  0  0  0  0  0  0  0
   19.8085   20.0859   21.2596 H   0  0  0  0  0  0  0  0  0  0  0  0
   20.5494   18.5876   20.6448 H   0  0  0  0  0  0  0  0  0  0  0  0
   21.5401   20.0339   20.8945 H   0  0  0  0  0  0  0  0  0  0  0  0
   19.9775   17.9861   23.2865 C   0  0  0  0  0  0  0  0  0  0  0  0
   20.0184   17.0674   22.6866 H   0  0  0  0  0  0  0  0  0  0  0  0
   20.3103   17.6897   24.2899 H   0  0  0  0  0  0  0  0  0  0  0  0
   18.5087   18.4838   23.3883 C   0  0  0  0  0  0  0  0  0  0  0  0
   18.4735   19.5636   23.5837 H   0  0  0  0  0  0  0  0  0  0  0  0
   18.0415   18.0067   24.2612 H   0  0  0  0  0  0  0  0  0  0  0  0
   17.6519   18.1391   22.1474 C   0  0  0  0  0  0  0  0  0  0  0  0
   18.0302   18.6177   21.2375 H   0  0  0  0  0  0  0  0  0  0  0  0
   16.6168   18.4748   22.2912 H   0  0  0  0  0  0  0  0  0  0  0  0
   17.6281   17.0552   21.9750 H   0  0  0  0  0  0  0  0  0  0  0  0
  1  2  1  0  0  0  0
  1  3  1  0  0  0  0
  1  4  1  0  0  0  0
  1  5  1  0  0  0  0
  5  6  1  0  0  0  0
  5  7  1  0  0  0  0
  7  8  1  0  0  0  0
  7  9  1  0  0  0  0
  7 10  1  0  0  0  0
  5 11  1  0  0  0  0
 11 12  1  0  0  0  0
 11 13  1  0  0  0  0
 11 14  1  0  0  0  0
 14 15  1  0  0  0  0
 14 16  1  0  0  0  0
 14 17  1  0  0  0  0
 17 18  1  0  0  0  0
 17 19  1  0  0  0  0
 17 20  1  0  0  0  0
M  END
> <VConfSearch Rank>
29

> <Conf_Id>
35

> <Delta U+W>
3.004

> <U+W>
-33.272

> <U>
25.367

> <W>
-58.639

> <W(PB)>
-60.512

> <W(SA)>
1.873

> <Valence>
4.943

> <Coulomb>
19.661

> <VdW>
0.764

> <VdW6>
-5.871

> <VdW12>
6.636

> <Bond>
0.230

> <Angle>
1.857

> <Pdih>
2.855

> <Idih>
0.000

> <Tether>
0.000

$$$$
VeraChem MOL file


 20 19  0  0  0  0  0  0  0  0999 V2000     
   20.0809   19.4981   21.0182 N   0  3  0  0  0  0  0  0  0  0  0  0
   19.6781   19.3411   20.0904 H   0  0  0  0  0  0  0  0  0  0  0  0
   21.0159   19.8914   20.8818 H   0  0  0  0  0  0  0  0  0  0  0  0
   19.5151   20.2090   21.4855 H   0  0  0  0  0  0  0  0  0  0  0  0
   20.1298   18.2269   21.8208 C   0  0  2  0  0  0  0  0  0  0  0  0
   20.7742   17.5499   21.2513 H   0  0  0  0  0  0  0  0  0  0  0  0
   18.7422   17.5680   21.9142 C   0  0  0  0  0  0  0  0  0  0  0  0
   18.0110   18.2300   22.3933 H   0  0  0  0  0  0  0  0  0  0  0  0
   18.7923   16.6359   22.4904 H   0  0  0  0  0  0  0  0  0  0  0  0
   18.3660   17.3209   20.9140 H   0  0  0  0  0  0  0  0  0  0  0  0
   20.7911   18.4115   23.2108 C   0  0  0  0  0  0  0  0  0  0  0  0
   21.0666   17.4158   23.5825 H   0  0  0  0  0  0  0  0  0  0  0  0
   21.7409   18.9474   23.0842 H   0  0  0  0  0  0  0  0  0  0  0  0
   19.9496   19.1137   24.3132 C   0  0  0  0  0  0  0  0  0  0  0  0
   20.5425   19.1223   25.2385 H   0  0  0  0  0  0  0  0  0  0  0  0
   19.0535   18.5216   24.5434 H   0  0  0  0  0  0  0  0  0  0  0  0
   19.5415   20.5680   23.9854 C   0  0  0  0  0  0  0  0  0  0  0  0
   20.4079   21.1628   23.6679 H   0  0  0  0  0  0  0  0  0  0  0  0
   19.1137   21.0516   24.8732 H   0  0  0  0  0  0  0  0  0  0  0  0
   18.7781   20.6058   23.2000 H   0  0  0  0  0  0  0  0  0  0  0  0
  1  2  1  0  0  0  0
  1  3  1  0  0  0  0
  1  4  1  0  0  0  0
  1  5  1  0  0  0  0
  5  6  1  0  0  0  0
  5  7  1  0  0  0  0
  7  8  1  0  0  0  0
  7  9  1  0  0  0  0
  7 10  1  0  0  0  0
  5 11  1  0  0  0  0
 11 12  1  0  0  0  0
 11 13  1  0  0  0  0
 11 14  1  0  0  0  0
 14 15  1  0  0  0  0
 14 16  1  0  0  0  0
 14 17  1  0  0  0  0
 17 18  1  0  0  0  0
 17 19  1  0  0  0  0
 17 20  1  0  0  0  0
M  END
> <VConfSearch Rank>
30

> <Conf_Id>
55

> <Delta U+W>
2.767

> <U+W>
-33.509

> <U>
24.552

> <W>
-58.061

> <W(PB)>
-59.930

> <W(SA)>
1.869

> <Valence>
3.726

> <Coulomb>
20.219

> <VdW>
0.606

> <VdW6>
-6.395

> <VdW12>
7.001

> <Bond>
0.241

> <Angle>
2.098

> <Pdih>
1.387

> <Idih>
0.000

> <Tether>
0.000

$$$$
VeraChem MOL file


 20 19  0  0  0  0  0  0  0  0999 V2000     
   18.4340   20.3916   22.3957 N   0  3  0  0  0  0  0  0  0  0  0  0
   19.0975   21.1183   22.1162 H   0  0  0  0  0  0  0  0  0  0  0  0
   17.5960   20.8624   22.7473 H   0  0  0  0  0  0  0  0  0  0  0  0
   18.1636   19.8808   21.5515 H   0  0  0  0  0  0  0  0  0  0  0  0
   19.0254   19.4735   23.4312 C   0  0  2  0  0  0  0  0  0  0  0  0
   18.2576   18.7304   23.6685 H   0  0  0  0  0  0  0  0  0  0  0  0
   19.3562   20.2505   24.7160 C   0  0  0  0  0  0  0  0  0  0  0  0
   18.4628   20.7521   25.1077 H   0  0  0  0  0  0  0  0  0  0  0  0
   20.1236   21.0130   24.5329 H   0  0  0  0  0  0  0  0  0  0  0  0
   19.7263   19.5742   25.4966 H   0  0  0  0  0  0  0  0  0  0  0  0
   20.2767   18.7274   22.9177 C   0  0  0  0  0  0  0  0  0  0  0  0
   21.0560   19.4532   22.6496 H   0  0  0  0  0  0  0  0  0  0  0  0
   20.6853   18.1173   23.7344 H   0  0  0  0  0  0  0  0  0  0  0  0
   19.9800   17.8078   21.7087 C   0  0  0  0  0  0  0  0  0  0  0  0
   19.6224   18.4029   20.8575 H   0  0  0  0  0  0  0  0  0  0  0  0
   19.1749   17.1053   21.9665 H   0  0  0  0  0  0  0  0  0  0  0  0
   21.2314   17.0142   21.2756 C   0  0  0  0  0  0  0  0  0  0  0  0
   22.0455   17.6897   20.9821 H   0  0  0  0  0  0  0  0  0  0  0  0
   21.0035   16.3691   20.4171 H   0  0  0  0  0  0  0  0  0  0  0  0
   21.5953   16.3740   22.0898 H   0  0  0  0  0  0  0  0  0  0  0  0
  1  2  1  0  0  0  0
  1  3  1  0  0  0  0
  1  4  1  0  0  0  0
  1  5  1  0  0  0  0
  5  6  1  0  0  0  0
  5  7  1  0  0  0  0
  7  8  1  0  0  0  0
  7  9  1  0  0  0  0
  7 10  1  0  0  0  0
  5 11  1  0  0  0  0
 11 12  1  0  0  0  0
 11 13  1  0  0  0  0
 11 14  1  0  0  0  0
 14 15  1  0  0  0  0
 14 16  1  0  0  0  0
 14 17  1  0  0  0  0
 17 18  1  0  0  0  0
 17 19  1  0  0  0  0
 17 20  1  0  0  0  0
M  END
> <VConfSearch Rank>
31

> <Conf_Id>
74

> <Delta U+W>
0.000

> <U+W>
-36.276

> <U>
22.080

> <W>
-58.356

> <W(PB)>
-60.289

> <W(SA)>
1.932

> <Valence>
1.885

> <Coulomb>
19.559

> <VdW>
0.637

> <VdW6>
-4.482

> <VdW12>
5.119

> <Bond>
0.136

> <Angle>
0.867

> <Pdih>
0.882

> <Idih>
0.000

> <Tether>
0.000

$$$$
VeraChem MOL file


 20 19  0  0  0  0  0  0  0  0999 V2000     
   19.3533   17.0969   21.2383 N   0  3  0  0  0  0  0  0  0  0  0  0
   18.8015   16.4665   21.8265 H   0  0  0  0  0  0  0  0  0  0  0  0
   20.3086   16.7318   21.2099 H   0  0  0  0  0  0  0  0  0  0  0  0
   18.9750   17.0330   20.2894 H   0  0  0  0  0  0  0  0  0  0  0  0
   19.3168   18.5102   21.7518 C   0  0  2  0  0  0  0  0  0  0  0  0
   18.2653   18.8138   21.7438 H   0  0  0  0  0  0  0  0  0  0  0  0
   20.0988   19.4417   20.8075 C   0  0  0  0  0  0  0  0  0  0  0  0
   19.7480   19.3276   19.7745 H   0  0  0  0  0  0  0  0  0  0  0  0
   21.1726   19.2178   20.8284 H   0  0  0  0  0  0  0  0  0  0  0  0
   19.9615   20.4941   21.0808 H   0  0  0  0  0  0  0  0  0  0  0  0
   19.8320   18.5898   23.2077 C   0  0  0  0  0  0  0  0  0  0  0  0
   19.3105   17.8285   23.8028 H   0  0  0  0  0  0  0  0  0  0  0  0
   20.8985   18.3302   23.2373 H   0  0  0  0  0  0  0  0  0  0  0  0
   19.6124   19.9699   23.8743 C   0  0  0  0  0  0  0  0  0  0  0  0
   18.5553   20.2588   23.7889 H   0  0  0  0  0  0  0  0  0  0  0  0
   20.1965   20.7413   23.3551 H   0  0  0  0  0  0  0  0  0  0  0  0
   20.0197   19.9546   25.3634 C   0  0  0  0  0  0  0  0  0  0  0  0
   19.4263   19.2241   25.9287 H   0  0  0  0  0  0  0  0  0  0  0  0
   19.8612   20.9407   25.8189 H   0  0  0  0  0  0  0  0  0  0  0  0
   21.0805   19.6967   25.4800 H   0  0  0  0  0  0  0  0  0  0  0  0
  1  2  1  0  0  0  0
  1  3  1  0  0  0  0
  1  4  1  0  0  0  0
  1  5  1  0  0  0  0
  5  6  1  0  0  0  0
  5  7  1  0  0  0  0
  7  8  1  0  0  0  0
  7  9  1  0  0  0  0
  7 10  1  0  0  0  0
  5 11  1  0  0  0  0
 11 12  1  0  0  0  0
 11 13  1  0  0  0  0
 11 14  1  0  0  0  0
 14 15  1  0  0  0  0
 14 16  1  0  0  0  0
 14 17  1  0  0  0  0
 17 18  1  0  0  0  0
 17 19  1  0  0  0  0
 17 20  1  0  0  0  0
M  END
> <VConfSearch Rank>
32

> <Conf_Id>
80

> <Delta U+W>
0.460

> <U+W>
-35.817

> <U>
22.495

> <W>
-58.311

> <W(PB)>
-60.259

> <W(SA)>
1.948

> <Valence>
2.419

> <Coulomb>
19.304

> <VdW>
0.772

> <VdW6>
-4.635

> <VdW12>
5.407

> <Bond>
0.149

> <Angle>
1.142

> <Pdih>
1.129

> <Idih>
0.000

> <Tether>
0.000

$$$$
VeraChem MOL file


 20 19  0  0  0  0  0  0  0  0999 V2000     
   21.3388   20.6772   22.9400 N   0  3  0  0  0  0  0  0  0  0  0  0
   21.0389   21.3547   23.6463 H   0  0  0  0  0  0  0  0  0  0  0  0
   21.1373   21.0817   22.0221 H   0  0  0  0  0  0  0  0  0  0  0  0
   22.3557   20.5901   23.0174 H   0  0  0  0  0  0  0  0  0  0  0  0
   20.6570   19.3484   23.1194 C   0  0  2  0  0  0  0  0  0  0  0  0
   20.9336   18.9947   24.1175 H   0  0  0  0  0  0  0  0  0  0  0  0
   21.1860   18.3353   22.0898 C   0  0  0  0  0  0  0  0  0  0  0  0
   22.2827   18.3181   22.0913 H   0  0  0  0  0  0  0  0  0  0  0  0
   20.8504   18.5859   21.0759 H   0  0  0  0  0  0  0  0  0  0  0  0
   20.8487   17.3204   22.3286 H   0  0  0  0  0  0  0  0  0  0  0  0
   19.1171   19.5034   23.0746 C   0  0  0  0  0  0  0  0  0  0  0  0
   18.8415   20.2678   23.8131 H   0  0  0  0  0  0  0  0  0  0  0  0
   18.8042   19.9028   22.1009 H   0  0  0  0  0  0  0  0  0  0  0  0
   18.3187   18.2154   23.4082 C   0  0  0  0  0  0  0  0  0  0  0  0
   17.4234   18.4966   23.9806 H   0  0  0  0  0  0  0  0  0  0  0  0
   18.9054   17.5624   24.0694 H   0  0  0  0  0  0  0  0  0  0  0  0
   17.8558   17.4368   22.1542 C   0  0  0  0  0  0  0  0  0  0  0  0
   17.2059   18.0584   21.5246 H   0  0  0  0  0  0  0  0  0  0  0  0
   17.2832   16.5464   22.4447 H   0  0  0  0  0  0  0  0  0  0  0  0
   18.6995   17.1025   21.5402 H   0  0  0  0  0  0  0  0  0  0  0  0
  1  2  1  0  0  0  0
  1  3  1  0  0  0  0
  1  4  1  0  0  0  0
  1  5  1  0  0  0  0
  5  6  1  0  0  0  0
  5  7  1  0  0  0  0
  7  8  1  0  0  0  0
  7  9  1  0  0  0  0
  7 10  1  0  0  0  0
  5 11  1  0  0  0  0
 11 12  1  0  0  0  0
 11 13  1  0  0  0  0
 11 14  1  0  0  0  0
 14 15  1  0  0  0  0
 14 16  1  0  0  0  0
 14 17  1  0  0  0  0
 17 18  1  0  0  0  0
 17 19  1  0  0  0  0
 17 20  1  0  0  0  0
M  END
> <VConfSearch Rank>
33

> <Conf_Id>
52

> <Delta U+W>
2.995

> <U+W>
-33.282

> <U>
25.224

> <W>
-58.506

> <W(PB)>
-60.411

> <W(SA)>
1.905

> <Valence>
4.945

> <Coulomb>
19.467

> <VdW>
0.813

> <VdW6>
-5.458

> <VdW12>
6.270

> <Bond>
0.200

> <Angle>
1.675

> <Pdih>
3.070

> <Idih>
0.000

> <Tether>
0.000

$$$$
VeraChem MOL file


 20 19  0  0  0  0  0  0  0  0999 V2000     
   19.1285   18.0952   23.9268 N   0  3  0  0  0  0  0  0  0  0  0  0
   18.4969   17.4481   23.4485 H   0  0  0  0  0  0  0  0  0  0  0  0
   18.8401   18.1352   24.9081 H   0  0  0  0  0  0  0  0  0  0  0  0
   20.0652   17.6870   23.8963 H   0  0  0  0  0  0  0  0  0  0  0  0
   19.1052   19.4571   23.2880 C   0  0  2  0  0  0  0  0  0  0  0  0
   19.7627   20.1017   23.8795 H   0  0  0  0  0  0  0  0  0  0  0  0
   17.6819   20.0371   23.3485 C   0  0  0  0  0  0  0  0  0  0  0  0
   16.9820   19.4346   22.7560 H   0  0  0  0  0  0  0  0  0  0  0  0
   17.6612   21.0637   22.9621 H   0  0  0  0  0  0  0  0  0  0  0  0
   17.3175   20.0661   24.3827 H   0  0  0  0  0  0  0  0  0  0  0  0
   19.6209   19.4443   21.8292 C   0  0  0  0  0  0  0  0  0  0  0  0
   19.1504   18.6229   21.2729 H   0  0  0  0  0  0  0  0  0  0  0  0
   19.2930   20.3680   21.3340 H   0  0  0  0  0  0  0  0  0  0  0  0
   21.1639   19.3718   21.6857 C   0  0  0  0  0  0  0  0  0  0  0  0
   21.6245   20.2237   22.2055 H   0  0  0  0  0  0  0  0  0  0  0  0
   21.4147   19.4950   20.6227 H   0  0  0  0  0  0  0  0  0  0  0  0
   21.8017   18.0559   22.1864 C   0  0  0  0  0  0  0  0  0  0  0  0
   22.8512   17.9990   21.8693 H   0  0  0  0  0  0  0  0  0  0  0  0
   21.2832   17.1793   21.7767 H   0  0  0  0  0  0  0  0  0  0  0  0
   21.7957   17.9945   23.2808 H   0  0  0  0  0  0  0  0  0  0  0  0
  1  2  1  0  0  0  0
  1  3  1  0  0  0  0
  1  4  1  0  0  0  0
  1  5  1  0  0  0  0
  5  6  1  0  0  0  0
  5  7  1  0  0  0  0
  7  8  1  0  0  0  0
  7  9  1  0  0  0  0
  7 10  1  0  0  0  0
  5 11  1  0  0  0  0
 11 12  1  0  0  0  0
 11 13  1  0  0  0  0
 11 14  1  0  0  0  0
 14 15  1  0  0  0  0
 14 16  1  0  0  0  0
 14 17  1  0  0  0  0
 17 18  1  0  0  0  0
 17 19  1  0  0  0  0
 17 20  1  0  0  0  0
M  END
> <VConfSearch Rank>
34

> <Conf_Id>
54

> <Delta U+W>
2.752

> <U+W>
-33.525

> <U>
24.337

> <W>
-57.862

> <W(PB)>
-59.764

> <W(SA)>
1.901

> <Valence>
3.593

> <Coulomb>
20.067

> <VdW>
0.677

> <VdW6>
-5.466

> <VdW12>
6.144

> <Bond>
0.191

> <Angle>
1.557

> <Pdih>
1.845

> <Idih>
0.000

> <Tether>
0.000

$$$$
VeraChem MOL file


 20 19  0  0  0  0  0  0  0  0999 V2000     
   20.3651   19.3460   24.6321 N   0  3  0  0  0  0  0  0  0  0  0  0
   20.1200   19.8358   25.4968 H   0  0  0  0  0  0  0  0  0  0  0  0
   21.3868   19.3078   24.5838 H   0  0  0  0  0  0  0  0  0  0  0  0
   20.0254   18.3854   24.7185 H   0  0  0  0  0  0  0  0  0  0  0  0
   19.7795   20.0301   23.4267 C   0  0  2  0  0  0  0  0  0  0  0  0
   20.1844   21.0470   23.4294 H   0  0  0  0  0  0  0  0  0  0  0  0
   18.2487   20.1404   23.5428 C   0  0  0  0  0  0  0  0  0  0  0  0
   17.8255   20.6381   22.6614 H   0  0  0  0  0  0  0  0  0  0  0  0
   17.9727   20.7335   24.4232 H   0  0  0  0  0  0  0  0  0  0  0  0
   17.7768   19.1558   23.6415 H   0  0  0  0  0  0  0  0  0  0  0  0
   20.2160   19.3671   22.0982 C   0  0  0  0  0  0  0  0  0  0  0  0
   19.8305   19.9653   21.2620 H   0  0  0  0  0  0  0  0  0  0  0  0
   21.3103   19.4204   22.0270 H   0  0  0  0  0  0  0  0  0  0  0  0
   19.7662   17.8935   21.9233 C   0  0  0  0  0  0  0  0  0  0  0  0
   18.6702   17.8261   21.9399 H   0  0  0  0  0  0  0  0  0  0  0  0
   20.1360   17.2825   22.7576 H   0  0  0  0  0  0  0  0  0  0  0  0
   20.2826   17.2975   20.5961 C   0  0  0  0  0  0  0  0  0  0  0  0
   19.9548   16.2557   20.4854 H   0  0  0  0  0  0  0  0  0  0  0  0
   21.3796   17.3107   20.5570 H   0  0  0  0  0  0  0  0  0  0  0  0
   19.9031   17.8628   19.7350 H   0  0  0  0  0  0  0  0  0  0  0  0
  1  2  1  0  0  0  0
  1  3  1  0  0  0  0
  1  4  1  0  0  0  0
  1  5  1  0  0  0  0
  5  6  1  0  0  0  0
  5  7  1  0  0  0  0
  7  8  1  0  0  0  0
  7  9  1  0  0  0  0
  7 10  1  0  0  0  0
  5 11  1  0  0  0  0
 11 12  1  0  0  0  0
 11 13  1  0  0  0  0
 11 14  1  0  0  0  0
 14 15  1  0  0  0  0
 14 16  1  0  0  0  0
 14 17  1  0  0  0  0
 17 18  1  0  0  0  0
 17 19  1  0  0  0  0
 17 20  1  0  0  0  0
M  END
> <VConfSearch Rank>
35

> <Conf_Id>
63

> <Delta U+W>
0.420

> <U+W>
-35.856

> <U>
22.625

> <W>
-58.481

> <W(PB)>
-60.400

> <W(SA)>
1.919

> <Valence>
2.404

> <Coulomb>
19.464

> <VdW>
0.757

> <VdW6>
-5.074

> <VdW12>
5.830

> <Bond>
0.172

> <Angle>
1.207

> <Pdih>
1.025

> <Idih>
0.000

> <Tether>
0.000

$$$$
VeraChem MOL file


 20 19  0  0  0  0  0  0  0  0999 V2000     
   18.1342   18.8653   23.6116 N   0  3  0  0  0  0  0  0  0  0  0  0
   17.9022   18.1636   22.9040 H   0  0  0  0  0  0  0  0  0  0  0  0
   17.5630   19.6928   23.4237 H   0  0  0  0  0  0  0  0  0  0  0  0
   17.8430   18.4922   24.5191 H   0  0  0  0  0  0  0  0  0  0  0  0
   19.6026   19.1937   23.5952 C   0  0  2  0  0  0  0  0  0  0  0  0
   20.1358   18.2619   23.8061 H   0  0  0  0  0  0  0  0  0  0  0  0
   19.9458   20.2024   24.7035 C   0  0  0  0  0  0  0  0  0  0  0  0
   19.6497   19.8154   25.6862 H   0  0  0  0  0  0  0  0  0  0  0  0
   19.4321   21.1587   24.5439 H   0  0  0  0  0  0  0  0  0  0  0  0
   21.0254   20.3956   24.7339 H   0  0  0  0  0  0  0  0  0  0  0  0
   20.0748   19.7221   22.2216 C   0  0  0  0  0  0  0  0  0  0  0  0
   19.5620   20.6672   21.9990 H   0  0  0  0  0  0  0  0  0  0  0  0
   21.1452   19.9604   22.2793 H   0  0  0  0  0  0  0  0  0  0  0  0
   19.8483   18.7342   21.0491 C   0  0  0  0  0  0  0  0  0  0  0  0
   20.2097   19.1995   20.1213 H   0  0  0  0  0  0  0  0  0  0  0  0
   18.7739   18.5606   20.9005 H   0  0  0  0  0  0  0  0  0  0  0  0
   20.5726   17.3830   21.2467 C   0  0  0  0  0  0  0  0  0  0  0  0
   21.6498   17.5313   21.3973 H   0  0  0  0  0  0  0  0  0  0  0  0
   20.4432   16.7446   20.3631 H   0  0  0  0  0  0  0  0  0  0  0  0
   20.1779   16.8345   22.1112 H   0  0  0  0  0  0  0  0  0  0  0  0
  1  2  1  0  0  0  0
  1  3  1  0  0  0  0
  1  4  1  0  0  0  0
  1  5  1  0  0  0  0
  5  6  1  0  0  0  0
  5  7  1  0  0  0  0
  7  8  1  0  0  0  0
  7  9  1  0  0  0  0
  7 10  1  0  0  0  0
  5 11  1  0  0  0  0
 11 12  1  0  0  0  0
 11 13  1  0  0  0  0
 11 14  1  0  0  0  0
 14 15  1  0  0  0  0
 14 16  1  0  0  0  0
 14 17  1  0  0  0  0
 17 18  1  0  0  0  0
 17 19  1  0  0  0  0
 17 20  1  0  0  0  0
M  END
> <VConfSearch Rank>
36

> <Conf_Id>
50

> <Delta U+W>
0.466

> <U+W>
-35.811

> <U>
22.369

> <W>
-58.180

> <W(PB)>
-60.103

> <W(SA)>
1.923

> <Valence>
2.168

> <Coulomb>
19.636

> <VdW>
0.566

> <VdW6>
-5.263

> <VdW12>
5.829

> <Bond>
0.162

> <Angle>
1.066

> <Pdih>
0.939

> <Idih>
0.000

> <Tether>
0.000

$$$$
VeraChem MOL file


 20 19  0  0  0  0  0  0  0  0999 V2000     
   21.8377   18.3661   22.0806 N   0  3  0  0  0  0  0  0  0  0  0  0
   21.7487   18.1586   21.0821 H   0  0  0  0  0  0  0  0  0  0  0  0
   22.0907   17.4950   22.5540 H   0  0  0  0  0  0  0  0  0  0  0  0
   22.6264   19.0099   22.1862 H   0  0  0  0  0  0  0  0  0  0  0  0
   20.5698   18.9518   22.6409 C   0  0  2  0  0  0  0  0  0  0  0  0
   20.3817   19.8692   22.0745 H   0  0  0  0  0  0  0  0  0  0  0  0
   20.7693   19.3189   24.1233 C   0  0  0  0  0  0  0  0  0  0  0  0
   21.0079   18.4308   24.7217 H   0  0  0  0  0  0  0  0  0  0  0  0
   19.8712   19.7795   24.5487 H   0  0  0  0  0  0  0  0  0  0  0  0
   21.5927   20.0347   24.2365 H   0  0  0  0  0  0  0  0  0  0  0  0
   19.3593   18.0065   22.4428 C   0  0  0  0  0  0  0  0  0  0  0  0
   19.6088   17.2584   21.6788 H   0  0  0  0  0  0  0  0  0  0  0  0
   19.1632   17.4368   23.3610 H   0  0  0  0  0  0  0  0  0  0  0  0
   18.0692   18.7281   21.9775 C   0  0  0  0  0  0  0  0  0  0  0  0
   17.2932   17.9729   21.7894 H   0  0  0  0  0  0  0  0  0  0  0  0
   18.2526   19.2234   21.0136 H   0  0  0  0  0  0  0  0  0  0  0  0
   17.5228   19.7606   22.9882 C   0  0  0  0  0  0  0  0  0  0  0  0
   17.3689   19.3059   23.9754 H   0  0  0  0  0  0  0  0  0  0  0  0
   16.5569   20.1560   22.6479 H   0  0  0  0  0  0  0  0  0  0  0  0
   18.2046   20.6129   23.0990 H   0  0  0  0  0  0  0  0  0  0  0  0
  1  2  1  0  0  0  0
  1  3  1  0  0  0  0
  1  4  1  0  0  0  0
  1  5  1  0  0  0  0
  5  6  1  0  0  0  0
  5  7  1  0  0  0  0
  7  8  1  0  0  0  0
  7  9  1  0  0  0  0
  7 10  1  0  0  0  0
  5 11  1  0  0  0  0
 11 12  1  0  0  0  0
 11 13  1  0  0  0  0
 11 14  1  0  0  0  0
 14 15  1  0  0  0  0
 14 16  1  0  0  0  0
 14 17  1  0  0  0  0
 17 18  1  0  0  0  0
 17 19  1  0  0  0  0
 17 20  1  0  0  0  0
M  END
> <VConfSearch Rank>
37

> <Conf_Id>
3

> <Delta U+W>
3.093

> <U+W>
-33.184

> <U>
25.256

> <W>
-58.439

> <W(PB)>
-60.337

> <W(SA)>
1.898

> <Valence>
4.963

> <Coulomb>
19.511

> <VdW>
0.782

> <VdW6>
-5.429

> <VdW12>
6.211

> <Bond>
0.174

> <Angle>
1.377

> <Pdih>
3.412

> <Idih>
0.000

> <Tether>
0.000

$$$$
VeraChem MOL file


 20 19  0  0  0  0  0  0  0  0999 V2000     
   21.8460   19.3260   23.3507 N   0  3  0  0  0  0  0  0  0  0  0  0
   22.1282   20.0871   23.9741 H   0  0  0  0  0  0  0  0  0  0  0  0
   22.3099   19.4837   22.4519 H   0  0  0  0  0  0  0  0  0  0  0  0
   22.2217   18.4582   23.7412 H   0  0  0  0  0  0  0  0  0  0  0  0
   20.3508   19.2625   23.2004 C   0  0  2  0  0  0  0  0  0  0  0  0
   20.0434   20.2264   22.7839 H   0  0  0  0  0  0  0  0  0  0  0  0
   19.6811   19.0915   24.5760 C   0  0  0  0  0  0  0  0  0  0  0  0
   18.5913   19.1831   24.5020 H   0  0  0  0  0  0  0  0  0  0  0  0
   20.0251   19.8659   25.2725 H   0  0  0  0  0  0  0  0  0  0  0  0
   19.9152   18.1127   25.0127 H   0  0  0  0  0  0  0  0  0  0  0  0
   19.9343   18.1497   22.2090 C   0  0  0  0  0  0  0  0  0  0  0  0
   20.5025   18.2778   21.2783 H   0  0  0  0  0  0  0  0  0  0  0  0
   20.2301   17.1729   22.6141 H   0  0  0  0  0  0  0  0  0  0  0  0
   18.4248   18.1162   21.8580 C   0  0  0  0  0  0  0  0  0  0  0  0
   17.8322   17.8568   22.7456 H   0  0  0  0  0  0  0  0  0  0  0  0
   18.2498   17.3081   21.1341 H   0  0  0  0  0  0  0  0  0  0  0  0
   17.9126   19.4454   21.2580 C   0  0  0  0  0  0  0  0  0  0  0  0
   18.4926   19.7271   20.3695 H   0  0  0  0  0  0  0  0  0  0  0  0
   17.9752   20.2661   21.9836 H   0  0  0  0  0  0  0  0  0  0  0  0
   16.8615   19.3511   20.9556 H   0  0  0  0  0  0  0  0  0  0  0  0
  1  2  1  0  0  0  0
  1  3  1  0  0  0  0
  1  4  1  0  0  0  0
  1  5  1  0  0  0  0
  5  6  1  0  0  0  0
  5  7  1  0  0  0  0
  7  8  1  0  0  0  0
  7  9  1  0  0  0  0
  7 10  1  0  0  0  0
  5 11  1  0  0  0  0
 11 12  1  0  0  0  0
 11 13  1  0  0  0  0
 11 14  1  0  0  0  0
 14 15  1  0  0  0  0
 14 16  1  0  0  0  0
 14 17  1  0  0  0  0
 17 18  1  0  0  0  0
 17 19  1  0  0  0  0
 17 20  1  0  0  0  0
M  END
> <VConfSearch Rank>
38

> <Conf_Id>
64

> <Delta U+W>
0.544

> <U+W>
-35.732

> <U>
22.800

> <W>
-58.532

> <W(PB)>
-60.437

> <W(SA)>
1.905

> <Valence>
2.662

> <Coulomb>
19.485

> <VdW>
0.653

> <VdW6>
-5.460

> <VdW12>
6.113

> <Bond>
0.174

> <Angle>
1.378

> <Pdih>
1.109

> <Idih>
0.000

> <Tether>
0.000

$$$$
VeraChem MOL file


 20 19  0  0  0  0  0  0  0  0999 V2000     
   18.7458   18.2867   20.9722 N   0  3  0  0  0  0  0  0  0  0  0  0
   17.9895   18.3641   21.6559 H   0  0  0  0  0  0  0  0  0  0  0  0
   18.6385   17.3858   20.4984 H   0  0  0  0  0  0  0  0  0  0  0  0
   18.6015   19.0178   20.2705 H   0  0  0  0  0  0  0  0  0  0  0  0
   20.0953   18.4067   21.6274 C   0  0  2  0  0  0  0  0  0  0  0  0
   20.8292   18.3006   20.8223 H   0  0  0  0  0  0  0  0  0  0  0  0
   20.3289   17.2531   22.6165 C   0  0  0  0  0  0  0  0  0  0  0  0
   19.5446   17.2151   23.3815 H   0  0  0  0  0  0  0  0  0  0  0  0
   21.3000   17.3569   23.1160 H   0  0  0  0  0  0  0  0  0  0  0  0
   20.3270   16.2910   22.0898 H   0  0  0  0  0  0  0  0  0  0  0  0
   20.3203   19.8020   22.2623 C   0  0  0  0  0  0  0  0  0  0  0  0
   21.3704   19.8978   22.5684 H   0  0  0  0  0  0  0  0  0  0  0  0
   20.1822   20.5491   21.4697 H   0  0  0  0  0  0  0  0  0  0  0  0
   19.3895   20.1746   23.4497 C   0  0  0  0  0  0  0  0  0  0  0  0
   18.4068   19.6971   23.3421 H   0  0  0  0  0  0  0  0  0  0  0  0
   19.2012   21.2569   23.4153 H   0  0  0  0  0  0  0  0  0  0  0  0
   19.9928   19.8447   24.8353 C   0  0  0  0  0  0  0  0  0  0  0  0
   20.1688   18.7713   24.9649 H   0  0  0  0  0  0  0  0  0  0  0  0
   19.3140   20.1670   25.6354 H   0  0  0  0  0  0  0  0  0  0  0  0
   20.9484   20.3647   24.9817 H   0  0  0  0  0  0  0  0  0  0  0  0
  1  2  1  0  0  0  0
  1  3  1  0  0  0  0
  1  4  1  0  0  0  0
  1  5  1  0  0  0  0
  5  6  1  0  0  0  0
  5  7  1  0  0  0  0
  7  8  1  0  0  0  0
  7  9  1  0  0  0  0
  7 10  1  0  0  0  0
  5 11  1  0  0  0  0
 11 12  1  0  0  0  0
 11 13  1  0  0  0  0
 11 14  1  0  0  0  0
 14 15  1  0  0  0  0
 14 16  1  0  0  0  0
 14 17  1  0  0  0  0
 17 18  1  0  0  0  0
 17 19  1  0  0  0  0
 17 20  1  0  0  0  0
M  END
> <VConfSearch Rank>
39

> <Conf_Id>
35

> <Delta U+W>
3.004

> <U+W>
-33.272

> <U>
25.367

> <W>
-58.639

> <W(PB)>
-60.512

> <W(SA)>
1.873

> <Valence>
4.943

> <Coulomb>
19.661

> <VdW>
0.764

> <VdW6>
-5.871

> <VdW12>
6.636

> <Bond>
0.230

> <Angle>
1.857

> <Pdih>
2.855

> <Idih>
0.000

> <Tether>
0.000

$$$$
VeraChem MOL file


 20 19  0  0  0  0  0  0  0  0999 V2000     
   20.4475   19.4218   21.0981 N   0  3  0  0  0  0  0  0  0  0  0  0
   21.1381   20.0671   20.7053 H   0  0  0  0  0  0  0  0  0  0  0  0
   19.8301   19.1343   20.3341 H   0  0  0  0  0  0  0  0  0  0  0  0
   20.9471   18.5897   21.4173 H   0  0  0  0  0  0  0  0  0  0  0  0
   19.6747   20.0571   22.2214 C   0  0  2  0  0  0  0  0  0  0  0  0
   19.1621   20.9133   21.7717 H   0  0  0  0  0  0  0  0  0  0  0  0
   20.6145   20.6058   23.3096 C   0  0  0  0  0  0  0  0  0  0  0  0
   21.2349   19.8138   23.7457 H   0  0  0  0  0  0  0  0  0  0  0  0
   20.0410   21.0778   24.1168 H   0  0  0  0  0  0  0  0  0  0  0  0
   21.2857   21.3652   22.8905 H   0  0  0  0  0  0  0  0  0  0  0  0
   18.5753   19.1310   22.8020 C   0  0  0  0  0  0  0  0  0  0  0  0
   17.8778   19.7596   23.3710 H   0  0  0  0  0  0  0  0  0  0  0  0
   17.9848   18.7178   21.9738 H   0  0  0  0  0  0  0  0  0  0  0  0
   19.0361   17.9726   23.7306 C   0  0  0  0  0  0  0  0  0  0  0  0
   18.1394   17.4473   24.0880 H   0  0  0  0  0  0  0  0  0  0  0  0
   19.5196   18.3755   24.6310 H   0  0  0  0  0  0  0  0  0  0  0  0
   19.9680   16.9386   23.0588 C   0  0  0  0  0  0  0  0  0  0  0  0
   19.5480   16.5815   22.1095 H   0  0  0  0  0  0  0  0  0  0  0  0
   20.1013   16.0666   23.7122 H   0  0  0  0  0  0  0  0  0  0  0  0
   20.9645   17.3548   22.8716 H   0  0  0  0  0  0  0  0  0  0  0  0
  1  2  1  0  0  0  0
  1  3  1  0  0  0  0
  1  4  1  0  0  0  0
  1  5  1  0  0  0  0
  5  6  1  0  0  0  0
  5  7  1  0  0  0  0
  7  8  1  0  0  0  0
  7  9  1  0  0  0  0
  7 10  1  0  0  0  0
  5 11  1  0  0  0  0
 11 12  1  0  0  0  0
 11 13  1  0  0  0  0
 11 14  1  0  0  0  0
 14 15  1  0  0  0  0
 14 16  1  0  0  0  0
 14 17  1  0  0  0  0
 17 18  1  0  0  0  0
 17 19  1  0  0  0  0
 17 20  1  0  0  0  0
M  END
> <VConfSearch Rank>
40

> <Conf_Id>
55

> <Delta U+W>
2.767

> <U+W>
-33.509

> <U>
24.552

> <W>
-58.061

> <W(PB)>
-59.930

> <W(SA)>
1.869

> <Valence>
3.726

> <Coulomb>
20.219

> <VdW>
0.606

> <VdW6>
-6.395

> <VdW12>
7.001

> <Bond>
0.241

> <Angle>
2.098

> <Pdih>
1.387

> <Idih>
0.000

> <Tether>
0.000

$$$$
VeraChem MOL file


 20 19  0  0  0  0  0  0  0  0999 V2000     
   20.9733   20.1676   23.6724 N   0  3  0  0  0  0  0  0  0  0  0  0
   20.3353   20.4387   24.4248 H   0  0  0  0  0  0  0  0  0  0  0  0
   21.6647   20.9160   23.5742 H   0  0  0  0  0  0  0  0  0  0  0  0
   21.4739   19.3303   23.9803 H   0  0  0  0  0  0  0  0  0  0  0  0
   20.2350   19.9271   22.3832 C   0  0  2  0  0  0  0  0  0  0  0  0
   20.9851   19.6402   21.6396 H   0  0  0  0  0  0  0  0  0  0  0  0
   19.5512   21.2179   21.9035 C   0  0  0  0  0  0  0  0  0  0  0  0
   20.2845   22.0252   21.7855 H   0  0  0  0  0  0  0  0  0  0  0  0
   18.7873   21.5517   22.6168 H   0  0  0  0  0  0  0  0  0  0  0  0
   19.0668   21.0647   20.9311 H   0  0  0  0  0  0  0  0  0  0  0  0
   19.2035   18.7826   22.4946 C   0  0  0  0  0  0  0  0  0  0  0  0
   18.4509   19.0357   23.2532 H   0  0  0  0  0  0  0  0  0  0  0  0
   18.6679   18.6945   21.5399 H   0  0  0  0  0  0  0  0  0  0  0  0
   19.8483   17.4168   22.8326 C   0  0  0  0  0  0  0  0  0  0  0  0
   20.3437   17.4626   23.8118 H   0  0  0  0  0  0  0  0  0  0  0  0
   20.6265   17.1815   22.0928 H   0  0  0  0  0  0  0  0  0  0  0  0
   18.8020   16.2819   22.8522 C   0  0  0  0  0  0  0  0  0  0  0  0
   18.0256   16.4733   23.6045 H   0  0  0  0  0  0  0  0  0  0  0  0
   19.2758   15.3218   23.0946 H   0  0  0  0  0  0  0  0  0  0  0  0
   18.3127   16.1779   21.8750 H   0  0  0  0  0  0  0  0  0  0  0  0
  1  2  1  0  0  0  0
  1  3  1  0  0  0  0
  1  4  1  0  0  0  0
  1  5  1  0  0  0  0
  5  6  1  0  0  0  0
  5  7  1  0  0  0  0
  7  8  1  0  0  0  0
  7  9  1  0  0  0  0
  7 10  1  0  0  0  0
  5 11  1  0  0  0  0
 11 12  1  0  0  0  0
 11 13  1  0  0  0  0
 11 14  1  0  0  0  0
 14 15  1  0  0  0  0
 14 16  1  0  0  0  0
 14 17  1  0  0  0  0
 17 18  1  0  0  0  0
 17 19  1  0  0  0  0
 17 20  1  0  0  0  0
M  END
> <VConfSearch Rank>
41

> <Conf_Id>
74

> <Delta U+W>
0.000

> <U+W>
-36.276

> <U>
22.080

> <W>
-58.356

> <W(PB)>
-60.289

> <W(SA)>
1.932

> <Valence>
1.885

> <Coulomb>
19.559

> <VdW>
0.637

> <VdW6>
-4.482

> <VdW12>
5.119

> <Bond>
0.136

> <Angle>
0.867

> <Pdih>
0.882

> <Idih>
0.000

> <Tether>
0.000

$$$$
VeraChem MOL file


 20 19  0  0  0  0  0  0  0  0999 V2000     
   19.5740   20.9666   21.4724 N   0  3  0  0  0  0  0  0  0  0  0  0
   18.8731   21.4846   22.0094 H   0  0  0  0  0  0  0  0  0  0  0  0
   19.1075   20.5890   20.6439 H   0  0  0  0  0  0  0  0  0  0  0  0
   20.2680   21.6453   21.1479 H   0  0  0  0  0  0  0  0  0  0  0  0
   20.2099   19.8782   22.2931 C   0  0  2  0  0  0  0  0  0  0  0  0
   20.6821   20.3726   23.1477 H   0  0  0  0  0  0  0  0  0  0  0  0
   21.3046   19.1655   21.4780 C   0  0  0  0  0  0  0  0  0  0  0  0
   22.0145   19.8929   21.0656 H   0  0  0  0  0  0  0  0  0  0  0  0
   20.8733   18.6003   20.6424 H   0  0  0  0  0  0  0  0  0  0  0  0
   21.8793   18.4716   22.1022 H   0  0  0  0  0  0  0  0  0  0  0  0
   19.1482   18.8911   22.8316 C   0  0  0  0  0  0  0  0  0  0  0  0
   18.3449   19.4698   23.3063 H   0  0  0  0  0  0  0  0  0  0  0  0
   18.6880   18.3499   21.9943 H   0  0  0  0  0  0  0  0  0  0  0  0
   19.7017   17.8798   23.8652 C   0  0  0  0  0  0  0  0  0  0  0  0
   20.2178   18.4192   24.6719 H   0  0  0  0  0  0  0  0  0  0  0  0
   20.4451   17.2224   23.3949 H   0  0  0  0  0  0  0  0  0  0  0  0
   18.5783   17.0097   24.4689 C   0  0  0  0  0  0  0  0  0  0  0  0
   17.8341   17.6279   24.9877 H   0  0  0  0  0  0  0  0  0  0  0  0
   18.9884   16.2967   25.1959 H   0  0  0  0  0  0  0  0  0  0  0  0
   18.0615   16.4352   23.6890 H   0  0  0  0  0  0  0  0  0  0  0  0
  1  2  1  0  0  0  0
  1  3  1  0  0  0  0
  1  4  1  0  0  0  0
  1  5  1  0  0  0  0
  5  6  1  0  0  0  0
  5  7  1  0  0  0  0
  7  8  1  0  0  0  0
  7  9  1  0  0  0  0
  7 10  1  0  0  0  0
  5 11  1  0  0  0  0
 11 12  1  0  0  0  0
 11 13  1  0  0  0  0
 11 14  1  0  0  0  0
 14 15  1  0  0  0  0
 14 16  1  0  0  0  0
 14 17  1  0  0  0  0
 17 18  1  0  0  0  0
 17 19  1  0  0  0  0
 17 20  1  0  0  0  0
M  END
> <VConfSearch Rank>
42

> <Conf_Id>
80

> <Delta U+W>
0.460

> <U+W>
-35.817

> <U>
22.495

> <W>
-58.311

> <W(PB)>
-60.259

> <W(SA)>
1.948

> <Valence>
2.419

> <Coulomb>
19.304

> <VdW>
0.772

> <VdW6>
-4.635

> <VdW12>
5.407

> <Bond>
0.149

> <Angle>
1.142

> <Pdih>
1.129

> <Idih>
0.000

> <Tether>
0.000

$$$$
VeraChem MOL file


 20 19  0  0  0  0  0  0  0  0999 V2000     
   18.9727   20.7201   24.0656 N   0  3  0  0  0  0  0  0  0  0  0  0
   19.7102   21.4158   24.2065 H   0  0  0  0  0  0  0  0  0  0  0  0
   18.8972   20.1745   24.9278 H   0  0  0  0  0  0  0  0  0  0  0  0
   18.0932   21.2310   23.9511 H   0  0  0  0  0  0  0  0  0  0  0  0
   19.2573   19.8407   22.8789 C   0  0  2  0  0  0  0  0  0  0  0  0
   19.3139   20.5058   22.0116 H   0  0  0  0  0  0  0  0  0  0  0  0
   18.0950   18.8587   22.6531 C   0  0  0  0  0  0  0  0  0  0  0  0
   17.1356   19.3903   22.6395 H   0  0  0  0  0  0  0  0  0  0  0  0
   18.0538   18.1013   23.4456 H   0  0  0  0  0  0  0  0  0  0  0  0
   18.1933   18.3494   21.6877 H   0  0  0  0  0  0  0  0  0  0  0  0
   20.6247   19.1300   23.0291 C   0  0  0  0  0  0  0  0  0  0  0  0
   21.3788   19.9045   23.2221 H   0  0  0  0  0  0  0  0  0  0  0  0
   20.6225   18.4875   23.9195 H   0  0  0  0  0  0  0  0  0  0  0  0
   21.0842   18.3232   21.7860 C   0  0  0  0  0  0  0  0  0  0  0  0
   22.1730   18.4310   21.6813 H   0  0  0  0  0  0  0  0  0  0  0  0
   20.6504   18.7506   20.8711 H   0  0  0  0  0  0  0  0  0  0  0  0
   20.7630   16.8128   21.8800 C   0  0  0  0  0  0  0  0  0  0  0  0
   21.2554   16.3609   22.7509 H   0  0  0  0  0  0  0  0  0  0  0  0
   21.1225   16.2874   20.9857 H   0  0  0  0  0  0  0  0  0  0  0  0
   19.6872   16.6235   21.9656 H   0  0  0  0  0  0  0  0  0  0  0  0
  1  2  1  0  0  0  0
  1  3  1  0  0  0  0
  1  4  1  0  0  0  0
  1  5  1  0  0  0  0
  5  6  1  0  0  0  0
  5  7  1  0  0  0  0
  7  8  1  0  0  0  0
  7  9  1  0  0  0  0
  7 10  1  0  0  0  0
  5 11  1  0  0  0  0
 11 12  1  0  0  0  0
 11 13  1  0  0  0  0
 11 14  1  0  0  0  0
 14 15  1  0  0  0  0
 14 16  1  0  0  0  0
 14 17  1  0  0  0  0
 17 18  1  0  0  0  0
 17 19  1  0  0  0  0
 17 20  1  0  0  0  0
M  END
> <VConfSearch Rank>
43

> <Conf_Id>
52

> <Delta U+W>
2.995

> <U+W>
-33.282

> <U>
25.224

> <W>
-58.506

> <W(PB)>
-60.411

> <W(SA)>
1.905

> <Valence>
4.945

> <Coulomb>
19.467

> <VdW>
0.813

> <VdW6>
-5.458

> <VdW12>
6.270

> <Bond>
0.200

> <Angle>
1.675

> <Pdih>
3.070

> <Idih>
0.000

> <Tether>
0.000

$$$$
VeraChem MOL file


 20 19  0  0  0  0  0  0  0  0999 V2000     
   19.5377   20.0502   21.5122 N   0  3  0  0  0  0  0  0  0  0  0  0
   20.3480   20.6732   21.5525 H   0  0  0  0  0  0  0  0  0  0  0  0
   18.8043   20.5354   20.9883 H   0  0  0  0  0  0  0  0  0  0  0  0
   19.8111   19.2272   20.9709 H   0  0  0  0  0  0  0  0  0  0  0  0
   19.0712   19.6672   22.8902 C   0  0  2  0  0  0  0  0  0  0  0  0
   18.1794   19.0449   22.7672 H   0  0  0  0  0  0  0  0  0  0  0  0
   18.6729   20.9284   23.6752 C   0  0  0  0  0  0  0  0  0  0  0  0
   19.5379   21.5828   23.8409 H   0  0  0  0  0  0  0  0  0  0  0  0
   18.2521   20.6639   24.6533 H   0  0  0  0  0  0  0  0  0  0  0  0
   17.9108   21.5002   23.1316 H   0  0  0  0  0  0  0  0  0  0  0  0
   20.1269   18.8535   23.6762 C   0  0  0  0  0  0  0  0  0  0  0  0
   21.1085   19.3391   23.5975 H   0  0  0  0  0  0  0  0  0  0  0  0
   19.8650   18.8783   24.7425 H   0  0  0  0  0  0  0  0  0  0  0  0
   20.2346   17.3611   23.2668 C   0  0  0  0  0  0  0  0  0  0  0  0
   19.2590   16.8711   23.3935 H   0  0  0  0  0  0  0  0  0  0  0  0
   20.9169   16.8620   23.9693 H   0  0  0  0  0  0  0  0  0  0  0  0
   20.7516   17.1174   21.8307 C   0  0  0  0  0  0  0  0  0  0  0  0
   20.9900   16.0551   21.6891 H   0  0  0  0  0  0  0  0  0  0  0  0
   21.6658   17.6919   21.6321 H   0  0  0  0  0  0  0  0  0  0  0  0
   19.9968   17.3774   21.0796 H   0  0  0  0  0  0  0  0  0  0  0  0
  1  2  1  0  0  0  0
  1  3  1  0  0  0  0
  1  4  1  0  0  0  0
  1  5  1  0  0  0  0
  5  6  1  0  0  0  0
  5  7  1  0  0  0  0
  7  8  1  0  0  0  0
  7  9  1  0  0  0  0
  7 10  1  0  0  0  0
  5 11  1  0  0  0  0
 11 12  1  0  0  0  0
 11 13  1  0  0  0  0
 11 14  1  0  0  0  0
 14 15  1  0  0  0  0
 14 16  1  0  0  0  0
 14 17  1  0  0  0  0
 17 18  1  0  0  0  0
 17 19  1  0  0  0  0
 17 20  1  0  0  0  0
M  END
> <VConfSearch Rank>
44

> <Conf_Id>
54

> <Delta U+W>
2.752

> <U+W>
-33.525

> <U>
24.337

> <W>
-57.862

> <W(PB)>
-59.764

> <W(SA)>
1.901

> <Valence>
3.593

> <Coulomb>
20.067

> <VdW>
0.677

> <VdW6>
-5.466

> <VdW12>
6.144

> <Bond>
0.191

> <Angle>
1.557

> <Pdih>
1.845

> <Idih>
0.000

> <Tether>
0.000

$$$$
VeraChem MOL file


 20 19  0  0  0  0  0  0  0  0999 V2000     
   20.6630   17.0994   22.6446 N   0  3  0  0  0  0  0  0  0  0  0  0
   20.5009   16.0998   22.4954 H   0  0  0  0  0  0  0  0  0  0  0  0
   21.4439   17.1857   23.3007 H   0  0  0  0  0  0  0  0  0  0  0  0
   20.9660   17.4960   21.7522 H   0  0  0  0  0  0  0  0  0  0  0  0
   19.4281   17.7865   23.1610 C   0  0  2  0  0  0  0  0  0  0  0  0
   19.1739   17.2861   24.1007 H   0  0  0  0  0  0  0  0  0  0  0  0
   18.2437   17.5927   22.1975 C   0  0  0  0  0  0  0  0  0  0  0  0
   17.3459   18.0966   22.5766 H   0  0  0  0  0  0  0  0  0  0  0  0
   18.0062   16.5272   22.0911 H   0  0  0  0  0  0  0  0  0  0  0  0
   18.4637   17.9876   21.1986 H   0  0  0  0  0  0  0  0  0  0  0  0
   19.6733   19.2789   23.4889 C   0  0  0  0  0  0  0  0  0  0  0  0
   18.7640   19.6945   23.9430 H   0  0  0  0  0  0  0  0  0  0  0  0
   20.4509   19.3413   24.2614 H   0  0  0  0  0  0  0  0  0  0  0  0
   20.0874   20.1555   22.2788 C   0  0  0  0  0  0  0  0  0  0  0  0
   19.2977   20.1476   21.5157 H   0  0  0  0  0  0  0  0  0  0  0  0
   20.9913   19.7478   21.8066 H   0  0  0  0  0  0  0  0  0  0  0  0
   20.3566   21.6154   22.7027 C   0  0  0  0  0  0  0  0  0  0  0  0
   20.6464   22.2237   21.8361 H   0  0  0  0  0  0  0  0  0  0  0  0
   21.1695   21.6700   23.4386 H   0  0  0  0  0  0  0  0  0  0  0  0
   19.4615   22.0691   23.1479 H   0  0  0  0  0  0  0  0  0  0  0  0
  1  2  1  0  0  0  0
  1  3  1  0  0  0  0
  1  4  1  0  0  0  0
  1  5  1  0  0  0  0
  5  6  1  0  0  0  0
  5  7  1  0  0  0  0
  7  8  1  0  0  0  0
  7  9  1  0  0  0  0
  7 10  1  0  0  0  0
  5 11  1  0  0  0  0
 11 12  1  0  0  0  0
 11 13  1  0  0  0  0
 11 14  1  0  0  0  0
 14 15  1  0  0  0  0
 14 16  1  0  0  0  0
 14 17  1  0  0  0  0
 17 18  1  0  0  0  0
 17 19  1  0  0  0  0
 17 20  1  0  0  0  0
M  END
> <VConfSearch Rank>
45

> <Conf_Id>
63

> <Delta U+W>
0.420

> <U+W>
-35.856

> <U>
22.625

> <W>
-58.481

> <W(PB)>
-60.400

> <W(SA)>
1.919

> <Valence>
2.404

> <Coulomb>
19.464

> <VdW>
0.757

> <VdW6>
-5.074

> <VdW12>
5.830

> <Bond>
0.172

> <Angle>
1.207

> <Pdih>
1.025

> <Idih>
0.000

> <Tether>
0.000

$$$$
VeraChem MOL file


 20 19  0  0  0  0  0  0  0  0999 V2000     
   20.4714   18.8090   21.1821 N   0  3  0  0  0  0  0  0  0  0  0  0
   19.6633   19.3264   20.8267 H   0  0  0  0  0  0  0  0  0  0  0  0
   20.3924   17.8459   20.8463 H   0  0  0  0  0  0  0  0  0  0  0  0
   21.3072   19.2150   20.7530 H   0  0  0  0  0  0  0  0  0  0  0  0
   20.5391   18.8652   22.6842 C   0  0  2  0  0  0  0  0  0  0  0  0
   20.6247   19.9216   22.9560 H   0  0  0  0  0  0  0  0  0  0  0  0
   21.7909   18.1362   23.1991 C   0  0  0  0  0  0  0  0  0  0  0  0
   22.6990   18.5644   22.7573 H   0  0  0  0  0  0  0  0  0  0  0  0
   21.7601   17.0683   22.9491 H   0  0  0  0  0  0  0  0  0  0  0  0
   21.8757   18.2295   24.2889 H   0  0  0  0  0  0  0  0  0  0  0  0
   19.2694   18.2935   23.3550 C   0  0  0  0  0  0  0  0  0  0  0  0
   19.1747   17.2280   23.1070 H   0  0  0  0  0  0  0  0  0  0  0  0
   19.3876   18.3450   24.4456 H   0  0  0  0  0  0  0  0  0  0  0  0
   17.9600   19.0236   22.9622 C   0  0  0  0  0  0  0  0  0  0  0  0
   17.1193   18.5444   23.4832 H   0  0  0  0  0  0  0  0  0  0  0  0
   17.7613   18.8968   21.8893 H   0  0  0  0  0  0  0  0  0  0  0  0
   17.9758   20.5283   23.3155 C   0  0  0  0  0  0  0  0  0  0  0  0
   18.1729   20.6804   24.3847 H   0  0  0  0  0  0  0  0  0  0  0  0
   17.0055   20.9875   23.0857 H   0  0  0  0  0  0  0  0  0  0  0  0
   18.7410   21.0702   22.7456 H   0  0  0  0  0  0  0  0  0  0  0  0
  1  2  1  0  0  0  0
  1  3  1  0  0  0  0
  1  4  1  0  0  0  0
  1  5  1  0  0  0  0
  5  6  1  0  0  0  0
  5  7  1  0  0  0  0
  7  8  1  0  0  0  0
  7  9  1  0  0  0  0
  7 10  1  0  0  0  0
  5 11  1  0  0  0  0
 11 12  1  0  0  0  0
 11 13  1  0  0  0  0
 11 14  1  0  0  0  0
 14 15  1  0  0  0  0
 14 16  1  0  0  0  0
 14 17  1  0  0  0  0
 17 18  1  0  0  0  0
 17 19  1  0  0  0  0
 17 20  1  0  0  0  0
M  END
> <VConfSearch Rank>
46

> <Conf_Id>
50

> <Delta U+W>
0.466

> <U+W>
-35.811

> <U>
22.369

> <W>
-58.180

> <W(PB)>
-60.103

> <W(SA)>
1.923

> <Valence>
2.168

> <Coulomb>
19.636

> <VdW>
0.566

> <VdW6>
-5.263

> <VdW12>
5.829

> <Bond>
0.162

> <Angle>
1.066

> <Pdih>
0.939

> <Idih>
0.000

> <Tether>
0.000

$$$$
VeraChem MOL file


 20 19  0  0  0  0  0  0  0  0999 V2000     
   19.5593   16.5966   22.5650 N   0  3  0  0  0  0  0  0  0  0  0  0
   18.9461   16.4411   21.7602 H   0  0  0  0  0  0  0  0  0  0  0  0
   19.0672   16.2589   23.3961 H   0  0  0  0  0  0  0  0  0  0  0  0
   20.3829   16.0025   22.4367 H   0  0  0  0  0  0  0  0  0  0  0  0
   19.9415   18.0459   22.6997 C   0  0  2  0  0  0  0  0  0  0  0  0
   20.4540   18.3135   21.7705 H   0  0  0  0  0  0  0  0  0  0  0  0
   20.9220   18.2253   23.8737 C   0  0  0  0  0  0  0  0  0  0  0  0
   20.4622   17.9221   24.8226 H   0  0  0  0  0  0  0  0  0  0  0  0
   21.2440   19.2674   23.9742 H   0  0  0  0  0  0  0  0  0  0  0  0
   21.8209   17.6151   23.7229 H   0  0  0  0  0  0  0  0  0  0  0  0
   18.7000   18.9600   22.8455 C   0  0  0  0  0  0  0  0  0  0  0  0
   17.8080   18.4096   22.5184 H   0  0  0  0  0  0  0  0  0  0  0  0
   18.5254   19.2043   23.9019 H   0  0  0  0  0  0  0  0  0  0  0  0
   18.7748   20.2590   22.0035 C   0  0  0  0  0  0  0  0  0  0  0  0
   17.8243   20.8007   22.1091 H   0  0  0  0  0  0  0  0  0  0  0  0
   18.8625   20.0018   20.9385 H   0  0  0  0  0  0  0  0  0  0  0  0
   19.9313   21.2033   22.3994 C   0  0  0  0  0  0  0  0  0  0  0  0
   19.8966   21.4456   23.4696 H   0  0  0  0  0  0  0  0  0  0  0  0
   19.8648   22.1460   21.8408 H   0  0  0  0  0  0  0  0  0  0  0  0
   20.9081   20.7575   22.1740 H   0  0  0  0  0  0  0  0  0  0  0  0
  1  2  1  0  0  0  0
  1  3  1  0  0  0  0
  1  4  1  0  0  0  0
  1  5  1  0  0  0  0
  5  6  1  0  0  0  0
  5  7  1  0  0  0  0
  7  8  1  0  0  0  0
  7  9  1  0  0  0  0
  7 10  1  0  0  0  0
  5 11  1  0  0  0  0
 11 12  1  0  0  0  0
 11 13  1  0  0  0  0
 11 14  1  0  0  0  0
 14 15  1  0  0  0  0
 14 16  1  0  0  0  0
 14 17  1  0  0  0  0
 17 18  1  0  0  0  0
 17 19  1  0  0  0  0
 17 20  1  0  0  0  0
M  END
> <VConfSearch Rank>
47

> <Conf_Id>
3

> <Delta U+W>
3.093

> <U+W>
-33.184

> <U>
25.256

> <W>
-58.439

> <W(PB)>
-60.337

> <W(SA)>
1.898

> <Valence>
4.963

> <Coulomb>
19.511

> <VdW>
0.782

> <VdW6>
-5.429

> <VdW12>
6.211

> <Bond>
0.174

> <Angle>
1.377

> <Pdih>
3.412

> <Idih>
0.000

> <Tether>
0.000

$$$$
VeraChem MOL file


 20 19  0  0  0  0  0  0  0  0999 V2000     
   17.4879   18.8624   23.4014 N   0  3  0  0  0  0  0  0  0  0  0  0
   16.7391   19.3304   22.8839 H   0  0  0  0  0  0  0  0  0  0  0  0
   17.5017   19.2641   24.3428 H   0  0  0  0  0  0  0  0  0  0  0  0
   17.2251   17.8778   23.4923 H   0  0  0  0  0  0  0  0  0  0  0  0
   18.8153   19.0185   22.7115 C   0  0  2  0  0  0  0  0  0  0  0  0
   19.0079   20.0942   22.6573 H   0  0  0  0  0  0  0  0  0  0  0  0
   18.7416   18.4649   21.2768 C   0  0  0  0  0  0  0  0  0  0  0  0
   19.6536   18.6955   20.7142 H   0  0  0  0  0  0  0  0  0  0  0  0
   17.9021   18.9137   20.7318 H   0  0  0  0  0  0  0  0  0  0  0  0
   18.6038   17.3766   21.2777 H   0  0  0  0  0  0  0  0  0  0  0  0
   19.9526   18.3619   23.5299 C   0  0  0  0  0  0  0  0  0  0  0  0
   19.9040   18.7353   24.5613 H   0  0  0  0  0  0  0  0  0  0  0  0
   19.7788   17.2793   23.5898 H   0  0  0  0  0  0  0  0  0  0  0  0
   21.3820   18.6158   22.9864 C   0  0  0  0  0  0  0  0  0  0  0  0
   21.5081   18.1370   22.0060 H   0  0  0  0  0  0  0  0  0  0  0  0
   22.1045   18.1262   23.6543 H   0  0  0  0  0  0  0  0  0  0  0  0
   21.7332   20.1175   22.8836 C   0  0  0  0  0  0  0  0  0  0  0  0
   21.6116   20.6188   23.8527 H   0  0  0  0  0  0  0  0  0  0  0  0
   21.0992   20.6306   22.1495 H   0  0  0  0  0  0  0  0  0  0  0  0
   22.7764   20.2478   22.5678 H   0  0  0  0  0  0  0  0  0  0  0  0
  1  2  1  0  0  0  0
  1  3  1  0  0  0  0
  1  4  1  0  0  0  0
  1  5  1  0  0  0  0
  5  6  1  0  0  0  0
  5  7  1  0  0  0  0
  7  8  1  0  0  0  0
  7  9  1  0  0  0  0
  7 10  1  0  0  0  0
  5 11  1  0  0  0  0
 11 12  1  0  0  0  0
 11 13  1  0  0  0  0
 11 14  1  0  0  0  0
 14 15  1  0  0  0  0
 14 16  1  0  0  0  0
 14 17  1  0  0  0  0
 17 18  1  0  0  0  0
 17 19  1  0  0  0  0
 17 20  1  0  0  0  0
M  END
> <VConfSearch Rank>
48

> <Conf_Id>
64

> <Delta U+W>
0.544

> <U+W>
-35.732

> <U>
22.800

> <W>
-58.532

> <W(PB)>
-60.437

> <W(SA)>
1.905

> <Valence>
2.662

> <Coulomb>
19.485

> <VdW>
0.653

> <VdW6>
-5.460

> <VdW12>
6.113

> <Bond>
0.174

> <Angle>
1.378

> <Pdih>
1.109

> <Idih>
0.000

> <Tether>
0.000

$$$$
VeraChem MOL file


 20 19  0  0  0  0  0  0  0  0999 V2000     
   21.6604   18.9838   23.6680 N   0  3  0  0  0  0  0  0  0  0  0  0
   21.4011   19.9726   23.6471 H   0  0  0  0  0  0  0  0  0  0  0  0
   22.6293   18.9151   23.3454 H   0  0  0  0  0  0  0  0  0  0  0  0
   21.6442   18.6826   24.6461 H   0  0  0  0  0  0  0  0  0  0  0  0
   20.7370   18.1539   22.8176 C   0  0  2  0  0  0  0  0  0  0  0  0
   21.1014   17.1249   22.8967 H   0  0  0  0  0  0  0  0  0  0  0  0
   20.8367   18.5639   21.3392 C   0  0  0  0  0  0  0  0  0  0  0  0
   20.6145   19.6286   21.2019 H   0  0  0  0  0  0  0  0  0  0  0  0
   20.1419   17.9794   20.7236 H   0  0  0  0  0  0  0  0  0  0  0  0
   21.8498   18.3835   20.9595 H   0  0  0  0  0  0  0  0  0  0  0  0
   19.2816   18.1595   23.3494 C   0  0  0  0  0  0  0  0  0  0  0  0
   18.6923   17.4094   22.8057 H   0  0  0  0  0  0  0  0  0  0  0  0
   19.3107   17.8050   24.3881 H   0  0  0  0  0  0  0  0  0  0  0  0
   18.5457   19.5281   23.3226 C   0  0  0  0  0  0  0  0  0  0  0  0
   19.2540   20.3565   23.4548 H   0  0  0  0  0  0  0  0  0  0  0  0
   17.8681   19.5734   24.1868 H   0  0  0  0  0  0  0  0  0  0  0  0
   17.6991   19.7499   22.0472 C   0  0  0  0  0  0  0  0  0  0  0  0
   18.3131   19.7628   21.1401 H   0  0  0  0  0  0  0  0  0  0  0  0
   17.1693   20.7098   22.1011 H   0  0  0  0  0  0  0  0  0  0  0  0
   16.9446   18.9606   21.9342 H   0  0  0  0  0  0  0  0  0  0  0  0
  1  2  1  0  0  0  0
  1  3  1  0  0  0  0
  1  4  1  0  0  0  0
  1  5  1  0  0  0  0
  5  6  1  0  0  0  0
  5  7  1  0  0  0  0
  7  8  1  0  0  0  0
  7  9  1  0  0  0  0
  7 10  1  0  0  0  0
  5 11  1  0  0  0  0
 11 12  1  0  0  0  0
 11 13  1  0  0  0  0
 11 14  1  0  0  0  0
 14 15  1  0  0  0  0
 14 16  1  0  0  0  0
 14 17  1  0  0  0  0
 17 18  1  0  0  0  0
 17 19  1  0  0  0  0
 17 20  1  0  0  0  0
M  END
> <VConfSearch Rank>
49

> <Conf_Id>
35

> <Delta U+W>
3.004

> <U+W>
-33.272

> <U>
25.367

> <W>
-58.639

> <W(PB)>
-60.512

> <W(SA)>
1.873

> <Valence>
4.943

> <Coulomb>
19.661

> <VdW>
0.764

> <VdW6>
-5.871

> <VdW12>
6.636

> <Bond>
0.230

> <Angle>
1.857

> <Pdih>
2.855

> <Idih>
0.000

> <Tether>
0.000

$$$$
VeraChem MOL file


 20 19  0  0  0  0  0  0  0  0999 V2000     
   20.0746   17.8011   21.3792 N   0  3  0  0  0  0  0  0  0  0  0  0
   19.5188   17.2372   20.7305 H   0  0  0  0  0  0  0  0  0  0  0  0
   21.0178   17.4042   21.3967 H   0  0  0  0  0  0  0  0  0  0  0  0
   20.1460   18.7426   20.9886 H   0  0  0  0  0  0  0  0  0  0  0  0
   19.4621   17.8266   22.7528 C   0  0  2  0  0  0  0  0  0  0  0  0
   19.4560   16.7840   23.0860 H   0  0  0  0  0  0  0  0  0  0  0  0
   17.9989   18.3012   22.7064 C   0  0  0  0  0  0  0  0  0  0  0  0
   17.9141   19.3125   22.2912 H   0  0  0  0  0  0  0  0  0  0  0  0
   17.5588   18.3035   23.7113 H   0  0  0  0  0  0  0  0  0  0  0  0
   17.3970   17.6304   22.0813 H   0  0  0  0  0  0  0  0  0  0  0  0
   20.3086   18.6206   23.7805 C   0  0  0  0  0  0  0  0  0  0  0  0
   19.9716   18.3296   24.7841 H   0  0  0  0  0  0  0  0  0  0  0  0
   21.3521   18.2857   23.7159 H   0  0  0  0  0  0  0  0  0  0  0  0
   20.2623   20.1721   23.6955 C   0  0  0  0  0  0  0  0  0  0  0  0
   20.8742   20.5751   24.5147 H   0  0  0  0  0  0  0  0  0  0  0  0
   19.2424   20.5337   23.8846 H   0  0  0  0  0  0  0  0  0  0  0  0
   20.7844   20.7615   22.3655 C   0  0  0  0  0  0  0  0  0  0  0  0
   21.7690   20.3504   22.1069 H   0  0  0  0  0  0  0  0  0  0  0  0
   20.8905   21.8510   22.4486 H   0  0  0  0  0  0  0  0  0  0  0  0
   20.0912   20.5686   21.5387 H   0  0  0  0  0  0  0  0  0  0  0  0
  1  2  1  0  0  0  0
  1  3  1  0  0  0  0
  1  4  1  0  0  0  0
  1  5  1  0  0  0  0
  5  6  1  0  0  0  0
  5  7  1  0  0  0  0
  7  8  1  0  0  0  0
  7  9  1  0  0  0  0
  7 10  1  0  0  0  0
  5 11  1  0  0  0  0
 11 12  1  0  0  0  0
 11 13  1  0  0  0  0
 11 14  1  0  0  0  0
 14 15  1  0  0  0  0
 14 16  1  0  0  0  0
 14 17  1  0  0  0  0
 17 18  1  0  0  0  0
 17 19  1  0  0  0  0
 17 20  1  0  0  0  0
M  END
> <VConfSearch Rank>
50

> <Conf_Id>
55

> <Delta U+W>
2.767

> <U+W>
-33.509

> <U>
24.552

> <W>
-58.061

> <W(PB)>
-59.930

> <W(SA)>
1.869

> <Valence>
3.726

> <Coulomb>
20.219

> <VdW>
0.606

> <VdW6>
-6.395

> <VdW12>
7.001

> <Bond>
0.241

> <Angle>
2.098

> <Pdih>
1.387

> <Idih>
0.000

> <Tether>
0.000

$$$$
VeraChem MOL file


 20 19  0  0  0  0  0  0  0  0999 V2000     
   20.9838   19.0112   21.1848 N   0  3  0  0  0  0  0  0  0  0  0  0
   20.7812   19.9678   20.8842 H   0  0  0  0  0  0  0  0  0  0  0  0
   21.3400   18.5043   20.3700 H   0  0  0  0  0  0  0  0  0  0  0  0
   21.7429   19.0579   21.8690 H   0  0  0  0  0  0  0  0  0  0  0  0
   19.7632   18.3433   21.7586 C   0  0  2  0  0  0  0  0  0  0  0  0
   20.0668   17.3347   22.0560 H   0  0  0  0  0  0  0  0  0  0  0  0
   18.6633   18.2196   20.6914 C   0  0  0  0  0  0  0  0  0  0  0  0
   19.0310   17.6695   19.8165 H   0  0  0  0  0  0  0  0  0  0  0  0
   18.3223   19.2070   20.3558 H   0  0  0  0  0  0  0  0  0  0  0  0
   17.7965   17.6749   21.0859 H   0  0  0  0  0  0  0  0  0  0  0  0
   19.2199   19.0718   23.0076 C   0  0  0  0  0  0  0  0  0  0  0  0
   18.9296   20.0968   22.7409 H   0  0  0  0  0  0  0  0  0  0  0  0
   18.3053   18.5651   23.3434 H   0  0  0  0  0  0  0  0  0  0  0  0
   20.2315   19.1027   24.1787 C   0  0  0  0  0  0  0  0  0  0  0  0
   21.1348   19.6547   23.8859 H   0  0  0  0  0  0  0  0  0  0  0  0
   20.5487   18.0786   24.4211 H   0  0  0  0  0  0  0  0  0  0  0  0
   19.6266   19.7616   25.4370 C   0  0  0  0  0  0  0  0  0  0  0  0
   19.3270   20.7982   25.2348 H   0  0  0  0  0  0  0  0  0  0  0  0
   20.3572   19.7763   26.2562 H   0  0  0  0  0  0  0  0  0  0  0  0
   18.7423   19.2120   25.7852 H   0  0  0  0  0  0  0  0  0  0  0  0
  1  2  1  0  0  0  0
  1  3  1  0  0  0  0
  1  4  1  0  0  0  0
  1  5  1  0  0  0  0
  5  6  1  0  0  0  0
  5  7  1  0  0  0  0
  7  8  1  0  0  0  0
  7  9  1  0  0  0  0
  7 10  1  0  0  0  0
  5 11  1  0  0  0  0
 11 12  1  0  0  0  0
 11 13  1  0  0  0  0
 11 14  1  0  0  0  0
 14 15  1  0  0  0  0
 14 16  1  0  0  0  0
 14 17  1  0  0  0  0
 17 18  1  0  0  0  0
 17 19  1  0  0  0  0
 17 20  1  0  0  0  0
M  END
> <VConfSearch Rank>
51

> <Conf_Id>
74

> <Delta U+W>
0.000

> <U+W>
-36.276

> <U>
22.080

> <W>
-58.356

> <W(PB)>
-60.289

> <W(SA)>
1.932

> <Valence>
1.885

> <Coulomb>
19.559

> <VdW>
0.637

> <VdW6>
-4.482

> <VdW12>
5.119

> <Bond>
0.136

> <Angle>
0.867

> <Pdih>
0.882

> <Idih>
0.000

> <Tether>
0.000

$$$$
VeraChem MOL file


 20 19  0  0  0  0  0  0  0  0999 V2000     
   17.8086   17.9915   23.7703 N   0  3  0  0  0  0  0  0  0  0  0  0
   18.1828   17.1179   24.1505 H   0  0  0  0  0  0  0  0  0  0  0  0
   17.2845   17.7573   22.9234 H   0  0  0  0  0  0  0  0  0  0  0  0
   17.1375   18.3549   24.4524 H   0  0  0  0  0  0  0  0  0  0  0  0
   18.9000   18.9871   23.4873 C   0  0  2  0  0  0  0  0  0  0  0  0
   19.3989   19.1771   24.4427 H   0  0  0  0  0  0  0  0  0  0  0  0
   18.2973   20.3108   22.9820 C   0  0  0  0  0  0  0  0  0  0  0  0
   17.5248   20.6719   23.6720 H   0  0  0  0  0  0  0  0  0  0  0  0
   17.8384   20.1865   21.9933 H   0  0  0  0  0  0  0  0  0  0  0  0
   19.0594   21.0953   22.9113 H   0  0  0  0  0  0  0  0  0  0  0  0
   19.9435   18.4086   22.5036 C   0  0  0  0  0  0  0  0  0  0  0  0
   20.2518   17.4191   22.8664 H   0  0  0  0  0  0  0  0  0  0  0  0
   19.4775   18.2481   21.5223 H   0  0  0  0  0  0  0  0  0  0  0  0
   21.2072   19.2886   22.3433 C   0  0  0  0  0  0  0  0  0  0  0  0
   21.6383   19.5019   23.3316 H   0  0  0  0  0  0  0  0  0  0  0  0
   20.9439   20.2559   21.8951 H   0  0  0  0  0  0  0  0  0  0  0  0
   22.2707   18.6028   21.4587 C   0  0  0  0  0  0  0  0  0  0  0  0
   22.5939   17.6490   21.8958 H   0  0  0  0  0  0  0  0  0  0  0  0
   23.1573   19.2414   21.3528 H   0  0  0  0  0  0  0  0  0  0  0  0
   21.8782   18.4024   20.4532 H   0  0  0  0  0  0  0  0  0  0  0  0
  1  2  1  0  0  0  0
  1  3  1  0  0  0  0
  1  4  1  0  0  0  0
  1  5  1  0  0  0  0
  5  6  1  0  0  0  0
  5  7  1  0  0  0  0
  7  8  1  0  0  0  0
  7  9  1  0  0  0  0
  7 10  1  0  0  0  0
  5 11  1  0  0  0  0
 11 12  1  0  0  0  0
 11 13  1  0  0  0  0
 11 14  1  0  0  0  0
 14 15  1  0  0  0  0
 14 16  1  0  0  0  0
 14 17  1  0  0  0  0
 17 18  1  0  0  0  0
 17 19  1  0  0  0  0
 17 20  1  0  0  0  0
M  END
> <VConfSearch Rank>
52

> <Conf_Id>
80

> <Delta U+W>
0.460

> <U+W>
-35.817

> <U>
22.495

> <W>
-58.311

> <W(PB)>
-60.259

> <W(SA)>
1.948

> <Valence>
2.419

> <Coulomb>
19.304

> <VdW>
0.772

> <VdW6>
-4.635

> <VdW12>
5.407

> <Bond>
0.149

> <Angle>
1.142

> <Pdih>
1.129

> <Idih>
0.000

> <Tether>
0.000

$$$$
VeraChem MOL file


 20 19  0  0  0  0  0  0  0  0999 V2000     
   17.7395   17.5780   22.7594 N   0  3  0  0  0  0  0  0  0  0  0  0
   17.4585   17.3082   21.8128 H   0  0  0  0  0  0  0  0  0  0  0  0
   17.1369   18.3523   23.0490 H   0  0  0  0  0  0  0  0  0  0  0  0
   17.5327   16.7856   23.3734 H   0  0  0  0  0  0  0  0  0  0  0  0
   19.1939   17.9573   22.8208 C   0  0  2  0  0  0  0  0  0  0  0  0
   19.7547   17.0730   22.5025 H   0  0  0  0  0  0  0  0  0  0  0  0
   19.5981   18.2840   24.2686 C   0  0  0  0  0  0  0  0  0  0  0  0
   19.2795   17.4852   24.9495 H   0  0  0  0  0  0  0  0  0  0  0  0
   19.1423   19.2226   24.6073 H   0  0  0  0  0  0  0  0  0  0  0  0
   20.6866   18.3705   24.3623 H   0  0  0  0  0  0  0  0  0  0  0  0
   19.5103   19.1075   21.8338 C   0  0  0  0  0  0  0  0  0  0  0  0
   19.1549   18.7975   20.8422 H   0  0  0  0  0  0  0  0  0  0  0  0
   18.9278   20.0013   22.0934 H   0  0  0  0  0  0  0  0  0  0  0  0
   21.0146   19.4658   21.7052 C   0  0  0  0  0  0  0  0  0  0  0  0
   21.2251   19.7229   20.6575 H   0  0  0  0  0  0  0  0  0  0  0  0
   21.6370   18.5884   21.9304 H   0  0  0  0  0  0  0  0  0  0  0  0
   21.4379   20.6667   22.5836 C   0  0  0  0  0  0  0  0  0  0  0  0
   20.8731   21.5684   22.3132 H   0  0  0  0  0  0  0  0  0  0  0  0
   22.5038   20.8882   22.4432 H   0  0  0  0  0  0  0  0  0  0  0  0
   21.2767   20.4758   23.6504 H   0  0  0  0  0  0  0  0  0  0  0  0
  1  2  1  0  0  0  0
  1  3  1  0  0  0  0
  1  4  1  0  0  0  0
  1  5  1  0  0  0  0
  5  6  1  0  0  0  0
  5  7  1  0  0  0  0
  7  8  1  0  0  0  0
  7  9  1  0  0  0  0
  7 10  1  0  0  0  0
  5 11  1  0  0  0  0
 11 12  1  0  0  0  0
 11 13  1  0  0  0  0
 11 14  1  0  0  0  0
 14 15  1  0  0  0  0
 14 16  1  0  0  0  0
 14 17  1  0  0  0  0
 17 18  1  0  0  0  0
 17 19  1  0  0  0  0
 17 20  1  0  0  0  0
M  END
> <VConfSearch Rank>
53

> <Conf_Id>
52

> <Delta U+W>
2.995

> <U+W>
-33.282

> <U>
25.224

> <W>
-58.506

> <W(PB)>
-60.411

> <W(SA)>
1.905

> <Valence>
4.945

> <Coulomb>
19.467

> <VdW>
0.813

> <VdW6>
-5.458

> <VdW12>
6.270

> <Bond>
0.200

> <Angle>
1.675

> <Pdih>
3.070

> <Idih>
0.000

> <Tether>
0.000

$$$$
VeraChem MOL file


 20 19  0  0  0  0  0  0  0  0999 V2000     
   18.6866   18.1933   21.8342 N   0  3  0  0  0  0  0  0  0  0  0  0
   18.0853   18.9126   21.4251 H   0  0  0  0  0  0  0  0  0  0  0  0
   18.1728   17.3088   21.7998 H   0  0  0  0  0  0  0  0  0  0  0  0
   19.5054   18.0988   21.2295 H   0  0  0  0  0  0  0  0  0  0  0  0
   19.0849   18.5467   23.2413 C   0  0  2  0  0  0  0  0  0  0  0  0
   19.6818   17.7139   23.6260 H   0  0  0  0  0  0  0  0  0  0  0  0
   17.8297   18.6845   24.1195 C   0  0  0  0  0  0  0  0  0  0  0  0
   17.2009   19.5192   23.7853 H   0  0  0  0  0  0  0  0  0  0  0  0
   18.1028   18.8605   25.1674 H   0  0  0  0  0  0  0  0  0  0  0  0
   17.2281   17.7678   24.0845 H   0  0  0  0  0  0  0  0  0  0  0  0
   19.9404   19.8338   23.3172 C   0  0  0  0  0  0  0  0  0  0  0  0
   19.4784   20.6266   22.7142 H   0  0  0  0  0  0  0  0  0  0  0  0
   19.9301   20.2002   24.3525 H   0  0  0  0  0  0  0  0  0  0  0  0
   21.4267   19.6516   22.9119 C   0  0  0  0  0  0  0  0  0  0  0  0
   21.8942   18.8900   23.5517 H   0  0  0  0  0  0  0  0  0  0  0  0
   21.9566   20.5909   23.1236 H   0  0  0  0  0  0  0  0  0  0  0  0
   21.6550   19.2886   21.4268 C   0  0  0  0  0  0  0  0  0  0  0  0
   22.7199   19.3762   21.1749 H   0  0  0  0  0  0  0  0  0  0  0  0
   21.0999   19.9621   20.7609 H   0  0  0  0  0  0  0  0  0  0  0  0
   21.3610   18.2543   21.2136 H   0  0  0  0  0  0  0  0  0  0  0  0
  1  2  1  0  0  0  0
  1  3  1  0  0  0  0
  1  4  1  0  0  0  0
  1  5  1  0  0  0  0
  5  6  1  0  0  0  0
  5  7  1  0  0  0  0
  7  8  1  0  0  0  0
  7  9  1  0  0  0  0
  7 10  1  0  0  0  0
  5 11  1  0  0  0  0
 11 12  1  0  0  0  0
 11 13  1  0  0  0  0
 11 14  1  0  0  0  0
 14 15  1  0  0  0  0
 14 16  1  0  0  0  0
 14 17  1  0  0  0  0
 17 18  1  0  0  0  0
 17 19  1  0  0  0  0
 17 20  1  0  0  0  0
M  END
> <VConfSearch Rank>
54

> <Conf_Id>
54

> <Delta U+W>
2.752

> <U+W>
-33.525

> <U>
24.337

> <W>
-57.862

> <W(PB)>
-59.764

> <W(SA)>
1.901

> <Valence>
3.593

> <Coulomb>
20.067

> <VdW>
0.677

> <VdW6>
-5.466

> <VdW12>
6.144

> <Bond>
0.191

> <Angle>
1.557

> <Pdih>
1.845

> <Idih>
0.000

> <Tether>
0.000

$$$$
VeraChem MOL file


 20 19  0  0  0  0  0  0  0  0999 V2000     
   21.7667   19.1088   22.2450 N   0  3  0  0  0  0  0  0  0  0  0  0
   22.4633   19.6573   21.7336 H   0  0  0  0  0  0  0  0  0  0  0  0
   22.1023   18.1422   22.2733 H   0  0  0  0  0  0  0  0  0  0  0  0
   21.7498   19.4567   23.2063 H   0  0  0  0  0  0  0  0  0  0  0  0
   20.4100   19.2046   21.6015 C   0  0  2  0  0  0  0  0  0  0  0  0
   20.5320   18.8293   20.5806 H   0  0  0  0  0  0  0  0  0  0  0  0
   19.9460   20.6689   21.5046 C   0  0  0  0  0  0  0  0  0  0  0  0
   18.9560   20.7344   21.0367 H   0  0  0  0  0  0  0  0  0  0  0  0
   20.6427   21.2520   20.8901 H   0  0  0  0  0  0  0  0  0  0  0  0
   19.8922   21.1441   22.4912 H   0  0  0  0  0  0  0  0  0  0  0  0
   19.3592   18.3061   22.2969 C   0  0  0  0  0  0  0  0  0  0  0  0
   18.4219   18.3532   21.7268 H   0  0  0  0  0  0  0  0  0  0  0  0
   19.6977   17.2636   22.2338 H   0  0  0  0  0  0  0  0  0  0  0  0
   19.0744   18.6593   23.7797 C   0  0  0  0  0  0  0  0  0  0  0  0
   18.6850   19.6831   23.8586 H   0  0  0  0  0  0  0  0  0  0  0  0
   20.0045   18.6260   24.3629 H   0  0  0  0  0  0  0  0  0  0  0  0
   18.0525   17.6872   24.4072 C   0  0  0  0  0  0  0  0  0  0  0  0
   17.8595   17.9508   25.4553 H   0  0  0  0  0  0  0  0  0  0  0  0
   18.4230   16.6541   24.3832 H   0  0  0  0  0  0  0  0  0  0  0  0
   17.0953   17.7195   23.8706 H   0  0  0  0  0  0  0  0  0  0  0  0
  1  2  1  0  0  0  0
  1  3  1  0  0  0  0
  1  4  1  0  0  0  0
  1  5  1  0  0  0  0
  5  6  1  0  0  0  0
  5  7  1  0  0  0  0
  7  8  1  0  0  0  0
  7  9  1  0  0  0  0
  7 10  1  0  0  0  0
  5 11  1  0  0  0  0
 11 12  1  0  0  0  0
 11 13  1  0  0  0  0
 11 14  1  0  0  0  0
 14 15  1  0  0  0  0
 14 16  1  0  0  0  0
 14 17  1  0  0  0  0
 17 18  1  0  0  0  0
 17 19  1  0  0  0  0
 17 20  1  0  0  0  0
M  END
> <VConfSearch Rank>
55

> <Conf_Id>
63

> <Delta U+W>
0.420

> <U+W>
-35.856

> <U>
22.625

> <W>
-58.481

> <W(PB)>
-60.400

> <W(SA)>
1.919

> <Valence>
2.404

> <Coulomb>
19.464

> <VdW>
0.757

> <VdW6>
-5.074

> <VdW12>
5.830

> <Bond>
0.172

> <Angle>
1.207

> <Pdih>
1.025

> <Idih>
0.000

> <Tether>
0.000

$$$$
VeraChem MOL file


 20 19  0  0  0  0  0  0  0  0999 V2000     
   21.2669   18.1814   22.7859 N   0  3  0  0  0  0  0  0  0  0  0  0
   20.8074   17.4562   22.2293 H   0  0  0  0  0  0  0  0  0  0  0  0
   21.4529   17.7877   23.7115 H   0  0  0  0  0  0  0  0  0  0  0  0
   22.1716   18.3753   22.3484 H   0  0  0  0  0  0  0  0  0  0  0  0
   20.4195   19.4217   22.8746 C   0  0  2  0  0  0  0  0  0  0  0  0
   20.2722   19.7762   21.8501 H   0  0  0  0  0  0  0  0  0  0  0  0
   21.1491   20.5227   23.6614 C   0  0  0  0  0  0  0  0  0  0  0  0
   22.1181   20.7517   23.2012 H   0  0  0  0  0  0  0  0  0  0  0  0
   21.3276   20.2176   24.7000 H   0  0  0  0  0  0  0  0  0  0  0  0
   20.5601   21.4483   23.6738 H   0  0  0  0  0  0  0  0  0  0  0  0
   19.0315   19.1460   23.4962 C   0  0  0  0  0  0  0  0  0  0  0  0
   19.1576   18.8042   24.5321 H   0  0  0  0  0  0  0  0  0  0  0  0
   18.4709   20.0887   23.5507 H   0  0  0  0  0  0  0  0  0  0  0  0
   18.1827   18.1075   22.7197 C   0  0  0  0  0  0  0  0  0  0  0  0
   17.2227   17.9778   23.2388 H   0  0  0  0  0  0  0  0  0  0  0  0
   18.6722   17.1243   22.7411 H   0  0  0  0  0  0  0  0  0  0  0  0
   17.9085   18.5219   21.2560 C   0  0  0  0  0  0  0  0  0  0  0  0
   17.4187   19.5032   21.2090 H   0  0  0  0  0  0  0  0  0  0  0  0
   17.2470   17.7944   20.7679 H   0  0  0  0  0  0  0  0  0  0  0  0
   18.8342   18.5724   20.6691 H   0  0  0  0  0  0  0  0  0  0  0  0
  1  2  1  0  0  0  0
  1  3  1  0  0  0  0
  1  4  1  0  0  0  0
  1  5  1  0  0  0  0
  5  6  1  0  0  0  0
  5  7  1  0  0  0  0
  7  8  1  0  0  0  0
  7  9  1  0  0  0  0
  7 10  1  0  0  0  0
  5 11  1  0  0  0  0
 11 12  1  0  0  0  0
 11 13  1  0  0  0  0
 11 14  1  0  0  0  0
 14 15  1  0  0  0  0
 14 16  1  0  0  0  0
 14 17  1  0  0  0  0
 17 18  1  0  0  0  0
 17 19  1  0  0  0  0
 17 20  1  0  0  0  0
M  END
> <VConfSearch Rank>
56

> <Conf_Id>
50

> <Delta U+W>
0.466

> <U+W>
-35.811

> <U>
22.369

> <W>
-58.180

> <W(PB)>
-60.103

> <W(SA)>
1.923

> <Valence>
2.168

> <Coulomb>
19.636

> <VdW>
0.566

> <VdW6>
-5.263

> <VdW12>
5.829

> <Bond>
0.162

> <Angle>
1.066

> <Pdih>
0.939

> <Idih>
0.000

> <Tether>
0.000

$$$$
VeraChem MOL file


 20 19  0  0  0  0  0  0  0  0999 V2000     
   21.0934   20.1336   24.1178 N   0  3  0  0  0  0  0  0  0  0  0  0
   21.8536   19.4925   24.3609 H   0  0  0  0  0  0  0  0  0  0  0  0
   20.5720   20.3313   24.9756 H   0  0  0  0  0  0  0  0  0  0  0  0
   21.5238   21.0113   23.8143 H   0  0  0  0  0  0  0  0  0  0  0  0
   20.2029   19.5588   23.0496 C   0  0  2  0  0  0  0  0  0  0  0  0
   20.8449   19.3796   22.1815 H   0  0  0  0  0  0  0  0  0  0  0  0
   19.1198   20.5820   22.6597 C   0  0  0  0  0  0  0  0  0  0  0  0
   18.4806   20.8269   23.5171 H   0  0  0  0  0  0  0  0  0  0  0  0
   18.4766   20.2024   21.8585 H   0  0  0  0  0  0  0  0  0  0  0  0
   19.5781   21.5123   22.3024 H   0  0  0  0  0  0  0  0  0  0  0  0
   19.5843   18.2055   23.4789 C   0  0  0  0  0  0  0  0  0  0  0  0
   20.1526   17.8040   24.3283 H   0  0  0  0  0  0  0  0  0  0  0  0
   18.5615   18.3520   23.8507 H   0  0  0  0  0  0  0  0  0  0  0  0
   19.5973   17.1281   22.3650 C   0  0  0  0  0  0  0  0  0  0  0  0
   19.2138   16.1868   22.7831 H   0  0  0  0  0  0  0  0  0  0  0  0
   20.6341   16.9267   22.0609 H   0  0  0  0  0  0  0  0  0  0  0  0
   18.7604   17.4960   21.1199 C   0  0  0  0  0  0  0  0  0  0  0  0
   17.7275   17.7449   21.3959 H   0  0  0  0  0  0  0  0  0  0  0  0
   18.7250   16.6521   20.4187 H   0  0  0  0  0  0  0  0  0  0  0  0
   19.1936   18.3493   20.5834 H   0  0  0  0  0  0  0  0  0  0  0  0
  1  2  1  0  0  0  0
  1  3  1  0  0  0  0
  1  4  1  0  0  0  0
  1  5  1  0  0  0  0
  5  6  1  0  0  0  0
  5  7  1  0  0  0  0
  7  8  1  0  0  0  0
  7  9  1  0  0  0  0
  7 10  1  0  0  0  0
  5 11  1  0  0  0  0
 11 12  1  0  0  0  0
 11 13  1  0  0  0  0
 11 14  1  0  0  0  0
 14 15  1  0  0  0  0
 14 16  1  0  0  0  0
 14 17  1  0  0  0  0
 17 18  1  0  0  0  0
 17 19  1  0  0  0  0
 17 20  1  0  0  0  0
M  END
> <VConfSearch Rank>
57

> <Conf_Id>
3

> <Delta U+W>
3.093

> <U+W>
-33.184

> <U>
25.256

> <W>
-58.439

> <W(PB)>
-60.337

> <W(SA)>
1.898

> <Valence>
4.963

> <Coulomb>
19.511

> <VdW>
0.782

> <VdW6>
-5.429

> <VdW12>
6.211

> <Bond>
0.174

> <Angle>
1.377

> <Pdih>
3.412

> <Idih>
0.000

> <Tether>
0.000

$$$$
VeraChem MOL file


 20 19  0  0  0  0  0  0  0  0999 V2000     
   18.2291   18.7183   21.0146 N   0  3  0  0  0  0  0  0  0  0  0  0
   17.2142   18.6598   21.1339 H   0  0  0  0  0  0  0  0  0  0  0  0
   18.5312   17.8497   20.5652 H   0  0  0  0  0  0  0  0  0  0  0  0
   18.4145   19.4825   20.3601 H   0  0  0  0  0  0  0  0  0  0  0  0
   18.9267   18.9353   22.3294 C   0  0  2  0  0  0  0  0  0  0  0  0
   18.6684   18.0782   22.9585 H   0  0  0  0  0  0  0  0  0  0  0  0
   18.4023   20.2130   23.0094 C   0  0  0  0  0  0  0  0  0  0  0  0
   18.7960   20.3119   24.0276 H   0  0  0  0  0  0  0  0  0  0  0  0
   17.3083   20.1894   23.0856 H   0  0  0  0  0  0  0  0  0  0  0  0
   18.6847   21.1090   22.4429 H   0  0  0  0  0  0  0  0  0  0  0  0
   20.4635   18.9612   22.1503 C   0  0  0  0  0  0  0  0  0  0  0  0
   20.7671   18.0666   21.5909 H   0  0  0  0  0  0  0  0  0  0  0  0
   20.7420   19.8200   21.5253 H   0  0  0  0  0  0  0  0  0  0  0  0
   21.2761   19.0104   23.4695 C   0  0  0  0  0  0  0  0  0  0  0  0
   21.0969   19.9591   23.9930 H   0  0  0  0  0  0  0  0  0  0  0  0
   22.3472   19.0014   23.2234 H   0  0  0  0  0  0  0  0  0  0  0  0
   20.9696   17.8262   24.4144 C   0  0  0  0  0  0  0  0  0  0  0  0
   21.1391   16.8653   23.9113 H   0  0  0  0  0  0  0  0  0  0  0  0
   19.9310   17.8505   24.7677 H   0  0  0  0  0  0  0  0  0  0  0  0
   21.6201   17.8609   25.2980 H   0  0  0  0  0  0  0  0  0  0  0  0
  1  2  1  0  0  0  0
  1  3  1  0  0  0  0
  1  4  1  0  0  0  0
  1  5  1  0  0  0  0
  5  6  1  0  0  0  0
  5  7  1  0  0  0  0
  7  8  1  0  0  0  0
  7  9  1  0  0  0  0
  7 10  1  0  0  0  0
  5 11  1  0  0  0  0
 11 12  1  0  0  0  0
 11 13  1  0  0  0  0
 11 14  1  0  0  0  0
 14 15  1  0  0  0  0
 14 16  1  0  0  0  0
 14 17  1  0  0  0  0
 17 18  1  0  0  0  0
 17 19  1  0  0  0  0
 17 20  1  0  0  0  0
M  END
> <VConfSearch Rank>
58

> <Conf_Id>
64

> <Delta U+W>
0.544

> <U+W>
-35.732

> <U>
22.800

> <W>
-58.532

> <W(PB)>
-60.437

> <W(SA)>
1.905

> <Valence>
2.662

> <Coulomb>
19.485

> <VdW>
0.653

> <VdW6>
-5.460

> <VdW12>
6.113

> <Bond>
0.174

> <Angle>
1.378

> <Pdih>
1.109

> <Idih>
0.000

> <Tether>
0.000

$$$$
VeraChem MOL file


 20 19  0  0  0  0  0  0  0  0999 V2000     
   20.6851   18.8717   20.7886 N   0  3  0  0  0  0  0  0  0  0  0  0
   21.1628   18.1038   21.2655 H   0  0  0  0  0  0  0  0  0  0  0  0
   21.4020   19.4377   20.3268 H   0  0  0  0  0  0  0  0  0  0  0  0
   20.1022   18.4619   20.0539 H   0  0  0  0  0  0  0  0  0  0  0  0
   19.8688   19.6940   21.7490 C   0  0  2  0  0  0  0  0  0  0  0  0
   19.4118   20.4877   21.1497 H   0  0  0  0  0  0  0  0  0  0  0  0
   20.7701   20.3699   22.7953 C   0  0  0  0  0  0  0  0  0  0  0  0
   21.3662   19.6339   23.3472 H   0  0  0  0  0  0  0  0  0  0  0  0
   20.1724   20.9451   23.5131 H   0  0  0  0  0  0  0  0  0  0  0  0
   21.4657   21.0649   22.3095 H   0  0  0  0  0  0  0  0  0  0  0  0
   18.7106   18.8829   22.3827 C   0  0  0  0  0  0  0  0  0  0  0  0
   18.0473   19.5637   22.9323 H   0  0  0  0  0  0  0  0  0  0  0  0
   18.0996   18.4870   21.5608 H   0  0  0  0  0  0  0  0  0  0  0  0
   19.1231   17.6964   23.2977 C   0  0  0  0  0  0  0  0  0  0  0  0
   20.0740   17.2586   22.9669 H   0  0  0  0  0  0  0  0  0  0  0  0
   18.3737   16.8997   23.1900 H   0  0  0  0  0  0  0  0  0  0  0  0
   19.2021   18.0702   24.7966 C   0  0  0  0  0  0  0  0  0  0  0  0
   19.9640   18.8323   24.9934 H   0  0  0  0  0  0  0  0  0  0  0  0
   19.4544   17.1878   25.3988 H   0  0  0  0  0  0  0  0  0  0  0  0
   18.2387   18.4534   25.1573 H   0  0  0  0  0  0  0  0  0  0  0  0
  1  2  1  0  0  0  0
  1  3  1  0  0  0  0
  1  4  1  0  0  0  0
  1  5  1  0  0  0  0
  5  6  1  0  0  0  0
  5  7  1  0  0  0  0
  7  8  1  0  0  0  0
  7  9  1  0  0  0  0
  7 10  1  0  0  0  0
  5 11  1  0  0  0  0
 11 12  1  0  0  0  0
 11 13  1  0  0  0  0
 11 14  1  0  0  0  0
 14 15  1  0  0  0  0
 14 16  1  0  0  0  0
 14 17  1  0  0  0  0
 17 18  1  0  0  0  0
 17 19  1  0  0  0  0
 17 20  1  0  0  0  0
M  END
> <VConfSearch Rank>
59

> <Conf_Id>
35

> <Delta U+W>
3.004

> <U+W>
-33.272

> <U>
25.367

> <W>
-58.639

> <W(PB)>
-60.512

> <W(SA)>
1.873

> <Valence>
4.943

> <Coulomb>
19.661

> <VdW>
0.764

> <VdW6>
-5.871

> <VdW12>
6.636

> <Bond>
0.230

> <Angle>
1.857

> <Pdih>
2.855

> <Idih>
0.000

> <Tether>
0.000

$$$$
VeraChem MOL file


 20 19  0  0  0  0  0  0  0  0999 V2000     
   19.3744   17.2437   22.8150 N   0  3  0  0  0  0  0  0  0  0  0  0
   18.5310   16.6640   22.8239 H   0  0  0  0  0  0  0  0  0  0  0  0
   20.1381   16.6761   23.1921 H   0  0  0  0  0  0  0  0  0  0  0  0
   19.5990   17.4494   21.8397 H   0  0  0  0  0  0  0  0  0  0  0  0
   19.1840   18.5075   23.6080 C   0  0  2  0  0  0  0  0  0  0  0  0
   18.9762   18.1785   24.6310 H   0  0  0  0  0  0  0  0  0  0  0  0
   17.9549   19.2957   23.1218 C   0  0  0  0  0  0  0  0  0  0  0  0
   18.0483   19.5815   22.0673 H   0  0  0  0  0  0  0  0  0  0  0  0
   17.8183   20.2082   23.7152 H   0  0  0  0  0  0  0  0  0  0  0  0
   17.0452   18.6919   23.2263 H   0  0  0  0  0  0  0  0  0  0  0  0
   20.4613   19.3839   23.6699 C   0  0  0  0  0  0  0  0  0  0  0  0
   20.3376   20.0935   24.4986 H   0  0  0  0  0  0  0  0  0  0  0  0
   21.3128   18.7515   23.9536 H   0  0  0  0  0  0  0  0  0  0  0  0
   20.8294   20.1986   22.3982 C   0  0  0  0  0  0  0  0  0  0  0  0
   21.7253   20.7937   22.6242 H   0  0  0  0  0  0  0  0  0  0  0  0
   20.0405   20.9287   22.1720 H   0  0  0  0  0  0  0  0  0  0  0  0
   21.1200   19.3422   21.1448 C   0  0  0  0  0  0  0  0  0  0  0  0
   21.8440   18.5468   21.3648 H   0  0  0  0  0  0  0  0  0  0  0  0
   21.5445   19.9669   20.3481 H   0  0  0  0  0  0  0  0  0  0  0  0
   20.2058   18.8891   20.7446 H   0  0  0  0  0  0  0  0  0  0  0  0
  1  2  1  0  0  0  0
  1  3  1  0  0  0  0
  1  4  1  0  0  0  0
  1  5  1  0  0  0  0
  5  6  1  0  0  0  0
  5  7  1  0  0  0  0
  7  8  1  0  0  0  0
  7  9  1  0  0  0  0
  7 10  1  0  0  0  0
  5 11  1  0  0  0  0
 11 12  1  0  0  0  0
 11 13  1  0  0  0  0
 11 14  1  0  0  0  0
 14 15  1  0  0  0  0
 14 16  1  0  0  0  0
 14 17  1  0  0  0  0
 17 18  1  0  0  0  0
 17 19  1  0  0  0  0
 17 20  1  0  0  0  0
M  END
> <VConfSearch Rank>
60

> <Conf_Id>
55

> <Delta U+W>
2.767

> <U+W>
-33.509

> <U>
24.552

> <W>
-58.061

> <W(PB)>
-59.930

> <W(SA)>
1.869

> <Valence>
3.726

> <Coulomb>
20.219

> <VdW>
0.606

> <VdW6>
-6.395

> <VdW12>
7.001

> <Bond>
0.241

> <Angle>
2.098

> <Pdih>
1.387

> <Idih>
0.000

> <Tether>
0.000

$$$$
VeraChem MOL file


 20 19  0  0  0  0  0  0  0  0999 V2000     
   19.1596   18.5332   24.5526 N   0  3  0  0  0  0  0  0  0  0  0  0
   19.7319   19.2278   25.0389 H   0  0  0  0  0  0  0  0  0  0  0  0
   18.9536   17.7857   25.2208 H   0  0  0  0  0  0  0  0  0  0  0  0
   18.2709   18.9799   24.3133 H   0  0  0  0  0  0  0  0  0  0  0  0
   19.8577   18.0019   23.3297 C   0  0  2  0  0  0  0  0  0  0  0  0
   19.1802   17.2746   22.8715 H   0  0  0  0  0  0  0  0  0  0  0  0
   21.1531   17.2723   23.7216 C   0  0  0  0  0  0  0  0  0  0  0  0
   20.9434   16.4622   24.4309 H   0  0  0  0  0  0  0  0  0  0  0  0
   21.8700   17.9587   24.1891 H   0  0  0  0  0  0  0  0  0  0  0  0
   21.6316   16.8266   22.8407 H   0  0  0  0  0  0  0  0  0  0  0  0
   20.1562   19.1050   22.2905 C   0  0  0  0  0  0  0  0  0  0  0  0
   20.8168   19.8619   22.7339 H   0  0  0  0  0  0  0  0  0  0  0  0
   20.7083   18.6610   21.4514 H   0  0  0  0  0  0  0  0  0  0  0  0
   18.8773   19.7832   21.7427 C   0  0  0  0  0  0  0  0  0  0  0  0
   18.3350   20.2842   22.5559 H   0  0  0  0  0  0  0  0  0  0  0  0
   18.2009   19.0206   21.3314 H   0  0  0  0  0  0  0  0  0  0  0  0
   19.2064   20.8191   20.6463 C   0  0  0  0  0  0  0  0  0  0  0  0
   19.8577   21.6126   21.0354 H   0  0  0  0  0  0  0  0  0  0  0  0
   18.2891   21.2907   20.2706 H   0  0  0  0  0  0  0  0  0  0  0  0
   19.7143   20.3467   19.7954 H   0  0  0  0  0  0  0  0  0  0  0  0
  1  2  1  0  0  0  0
  1  3  1  0  0  0  0
  1  4  1  0  0  0  0
  1  5  1  0  0  0  0
  5  6  1  0  0  0  0
  5  7  1  0  0  0  0
  7  8  1  0  0  0  0
  7  9  1  0  0  0  0
  7 10  1  0  0  0  0
  5 11  1  0  0  0  0
 11 12  1  0  0  0  0
 11 13  1  0  0  0  0
 11 14  1  0  0  0  0
 14 15  1  0  0  0  0
 14 16  1  0  0  0  0
 14 17  1  0  0  0  0
 17 18  1  0  0  0  0
 17 19  1  0  0  0  0
 17 20  1  0  0  0  0
M  END
> <VConfSearch Rank>
61

> <Conf_Id>
74

> <Delta U+W>
0.000

> <U+W>
-36.276

> <U>
22.080

> <W>
-58.356

> <W(PB)>
-60.289

> <W(SA)>
1.932

> <Valence>
1.885

> <Coulomb>
19.559

> <VdW>
0.637

> <VdW6>
-4.482

> <VdW12>
5.119

> <Bond>
0.136

> <Angle>
0.867

> <Pdih>
0.882

> <Idih>
0.000

> <Tether>
0.000

$$$$
VeraChem MOL file


 20 19  0  0  0  0  0  0  0  0999 V2000     
   18.2546   20.7767   23.0604 N   0  3  0  0  0  0  0  0  0  0  0  0
   17.9828   21.0055   22.1004 H   0  0  0  0  0  0  0  0  0  0  0  0
   18.9488   21.4679   23.3553 H   0  0  0  0  0  0  0  0  0  0  0  0
   17.4267   20.9072   23.6480 H   0  0  0  0  0  0  0  0  0  0  0  0
   18.7902   19.3752   23.1671 C   0  0  2  0  0  0  0  0  0  0  0  0
   17.9850   18.7116   22.8368 H   0  0  0  0  0  0  0  0  0  0  0  0
   19.1247   19.0416   24.6326 C   0  0  0  0  0  0  0  0  0  0  0  0
   18.2644   19.2466   25.2815 H   0  0  0  0  0  0  0  0  0  0  0  0
   19.9717   19.6388   24.9925 H   0  0  0  0  0  0  0  0  0  0  0  0
   19.3752   17.9815   24.7537 H   0  0  0  0  0  0  0  0  0  0  0  0
   20.0030   19.1671   22.2304 C   0  0  0  0  0  0  0  0  0  0  0  0
   19.7326   19.5234   21.2276 H   0  0  0  0  0  0  0  0  0  0  0  0
   20.8412   19.7918   22.5663 H   0  0  0  0  0  0  0  0  0  0  0  0
   20.4625   17.6927   22.1204 C   0  0  0  0  0  0  0  0  0  0  0  0
   19.6086   17.0577   21.8453 H   0  0  0  0  0  0  0  0  0  0  0  0
   20.8269   17.3334   23.0920 H   0  0  0  0  0  0  0  0  0  0  0  0
   21.5846   17.5223   21.0736 C   0  0  0  0  0  0  0  0  0  0  0  0
   21.2457   17.8308   20.0761 H   0  0  0  0  0  0  0  0  0  0  0  0
   21.9006   16.4728   21.0114 H   0  0  0  0  0  0  0  0  0  0  0  0
   22.4646   18.1236   21.3367 H   0  0  0  0  0  0  0  0  0  0  0  0
  1  2  1  0  0  0  0
  1  3  1  0  0  0  0
  1  4  1  0  0  0  0
  1  5  1  0  0  0  0
  5  6  1  0  0  0  0
  5  7  1  0  0  0  0
  7  8  1  0  0  0  0
  7  9  1  0  0  0  0
  7 10  1  0  0  0  0
  5 11  1  0  0  0  0
 11 12  1  0  0  0  0
 11 13  1  0  0  0  0
 11 14  1  0  0  0  0
 14 15  1  0  0  0  0
 14 16  1  0  0  0  0
 14 17  1  0  0  0  0
 17 18  1  0  0  0  0
 17 19  1  0  0  0  0
 17 20  1  0  0  0  0
M  END
> <VConfSearch Rank>
62

> <Conf_Id>
80

> <Delta U+W>
0.460

> <U+W>
-35.817

> <U>
22.495

> <W>
-58.311

> <W(PB)>
-60.259

> <W(SA)>
1.948

> <Valence>
2.419

> <Coulomb>
19.304

> <VdW>
0.772

> <VdW6>
-4.635

> <VdW12>
5.407

> <Bond>
0.149

> <Angle>
1.142

> <Pdih>
1.129

> <Idih>
0.000

> <Tether>
0.000

$$$$
VeraChem MOL file


 20 19  0  0  0  0  0  0  0  0999 V2000     
   17.4664   19.5871   22.5255 N   0  3  0  0  0  0  0  0  0  0  0  0
   16.9068   18.8870   22.0310 H   0  0  0  0  0  0  0  0  0  0  0  0
   17.6645   20.3431   21.8654 H   0  0  0  0  0  0  0  0  0  0  0  0
   16.8771   19.9767   23.2662 H   0  0  0  0  0  0  0  0  0  0  0  0
   18.7318   18.9948   23.0828 C   0  0  2  0  0  0  0  0  0  0  0  0
   18.4217   18.2068   23.7761 H   0  0  0  0  0  0  0  0  0  0  0  0
   19.5093   20.0552   23.8812 C   0  0  0  0  0  0  0  0  0  0  0  0
   18.8525   20.5549   24.6037 H   0  0  0  0  0  0  0  0  0  0  0  0
   19.9329   20.8207   23.2193 H   0  0  0  0  0  0  0  0  0  0  0  0
   20.3247   19.5969   24.4521 H   0  0  0  0  0  0  0  0  0  0  0  0
   19.5801   18.3429   21.9635 C   0  0  0  0  0  0  0  0  0  0  0  0
   18.9331   17.6334   21.4309 H   0  0  0  0  0  0  0  0  0  0  0  0
   19.8713   19.0968   21.2202 H   0  0  0  0  0  0  0  0  0  0  0  0
   20.8288   17.5646   22.4563 C   0  0  0  0  0  0  0  0  0  0  0  0
   20.9580   16.6740   21.8253 H   0  0  0  0  0  0  0  0  0  0  0  0
   20.6672   17.1894   23.4766 H   0  0  0  0  0  0  0  0  0  0  0  0
   22.1351   18.3902   22.3863 C   0  0  0  0  0  0  0  0  0  0  0  0
   22.3446   18.7058   21.3559 H   0  0  0  0  0  0  0  0  0  0  0  0
   22.9877   17.7898   22.7293 H   0  0  0  0  0  0  0  0  0  0  0  0
   22.0901   19.2892   23.0111 H   0  0  0  0  0  0  0  0  0  0  0  0
  1  2  1  0  0  0  0
  1  3  1  0  0  0  0
  1  4  1  0  0  0  0
  1  5  1  0  0  0  0
  5  6  1  0  0  0  0
  5  7  1  0  0  0  0
  7  8  1  0  0  0  0
  7  9  1  0  0  0  0
  7 10  1  0  0  0  0
  5 11  1  0  0  0  0
 11 12  1  0  0  0  0
 11 13  1  0  0  0  0
 11 14  1  0  0  0  0
 14 15  1  0  0  0  0
 14 16  1  0  0  0  0
 14 17  1  0  0  0  0
 17 18  1  0  0  0  0
 17 19  1  0  0  0  0
 17 20  1  0  0  0  0
M  END
> <VConfSearch Rank>
63

> <Conf_Id>
52

> <Delta U+W>
2.995

> <U+W>
-33.282

> <U>
25.224

> <W>
-58.506

> <W(PB)>
-60.411

> <W(SA)>
1.905

> <Valence>
4.945

> <Coulomb>
19.467

> <VdW>
0.813

> <VdW6>
-5.458

> <VdW12>
6.270

> <Bond>
0.200

> <Angle>
1.675

> <Pdih>
3.070

> <Idih>
0.000

> <Tether>
0.000

$$$$
VeraChem MOL file


 20 19  0  0  0  0  0  0  0  0999 V2000     
   19.0857   18.2551   24.0136 N   0  3  0  0  0  0  0  0  0  0  0  0
   19.8592   17.7448   24.4467 H   0  0  0  0  0  0  0  0  0  0  0  0
   18.2162   17.8091   24.3181 H   0  0  0  0  0  0  0  0  0  0  0  0
   19.0953   19.2044   24.3927 H   0  0  0  0  0  0  0  0  0  0  0  0
   19.2063   18.2646   22.5141 C   0  0  2  0  0  0  0  0  0  0  0  0
   18.3248   18.7823   22.1232 H   0  0  0  0  0  0  0  0  0  0  0  0
   19.1926   16.8221   21.9806 C   0  0  0  0  0  0  0  0  0  0  0  0
   20.0677   16.2607   22.3314 H   0  0  0  0  0  0  0  0  0  0  0  0
   19.1963   16.8106   20.8836 H   0  0  0  0  0  0  0  0  0  0  0  0
   18.2911   16.2930   22.3134 H   0  0  0  0  0  0  0  0  0  0  0  0
   20.4678   19.0111   22.0185 C   0  0  0  0  0  0  0  0  0  0  0  0
   21.3462   18.6813   22.5887 H   0  0  0  0  0  0  0  0  0  0  0  0
   20.6601   18.7202   20.9771 H   0  0  0  0  0  0  0  0  0  0  0  0
   20.3615   20.5585   22.0484 C   0  0  0  0  0  0  0  0  0  0  0  0
   19.5079   20.8829   21.4368 H   0  0  0  0  0  0  0  0  0  0  0  0
   21.2562   20.9723   21.5621 H   0  0  0  0  0  0  0  0  0  0  0  0
   20.2472   21.1744   23.4614 C   0  0  0  0  0  0  0  0  0  0  0  0
   20.3800   22.2631   23.4120 H   0  0  0  0  0  0  0  0  0  0  0  0
   21.0179   20.7764   24.1345 H   0  0  0  0  0  0  0  0  0  0  0  0
   19.2603   20.9935   23.9028 H   0  0  0  0  0  0  0  0  0  0  0  0
  1  2  1  0  0  0  0
  1  3  1  0  0  0  0
  1  4  1  0  0  0  0
  1  5  1  0  0  0  0
  5  6  1  0  0  0  0
  5  7  1  0  0  0  0
  7  8  1  0  0  0  0
  7  9  1  0  0  0  0
  7 10  1  0  0  0  0
  5 11  1  0  0  0  0
 11 12  1  0  0  0  0
 11 13  1  0  0  0  0
 11 14  1  0  0  0  0
 14 15  1  0  0  0  0
 14 16  1  0  0  0  0
 14 17  1  0  0  0  0
 17 18  1  0  0  0  0
 17 19  1  0  0  0  0
 17 20  1  0  0  0  0
M  END
> <VConfSearch Rank>
64

> <Conf_Id>
54

> <Delta U+W>
2.752

> <U+W>
-33.525

> <U>
24.337

> <W>
-57.862

> <W(PB)>
-59.764

> <W(SA)>
1.901

> <Valence>
3.593

> <Coulomb>
20.067

> <VdW>
0.677

> <VdW6>
-5.466

> <VdW12>
6.144

> <Bond>
0.191

> <Angle>
1.557

> <Pdih>
1.845

> <Idih>
0.000

> <Tether>
0.000

$$$$
VeraChem MOL file


 20 19  0  0  0  0  0  0  0  0999 V2000     
   19.4727   20.9316   22.1672 N   0  3  0  0  0  0  0  0  0  0  0  0
   18.8116   21.7125   22.1965 H   0  0  0  0  0  0  0  0  0  0  0  0
   20.0423   21.0473   21.3247 H   0  0  0  0  0  0  0  0  0  0  0  0
   20.0939   21.0271   22.9738 H   0  0  0  0  0  0  0  0  0  0  0  0
   18.7602   19.6064   22.1756 C   0  0  2  0  0  0  0  0  0  0  0  0
   18.1130   19.6052   21.2929 H   0  0  0  0  0  0  0  0  0  0  0  0
   17.8559   19.4725   23.4137 C   0  0  0  0  0  0  0  0  0  0  0  0
   17.3397   18.5045   23.4170 H   0  0  0  0  0  0  0  0  0  0  0  0
   17.0895   20.2572   23.4155 H   0  0  0  0  0  0  0  0  0  0  0  0
   18.4270   19.5609   24.3454 H   0  0  0  0  0  0  0  0  0  0  0  0
   19.7316   18.4101   22.0324 C   0  0  0  0  0  0  0  0  0  0  0  0
   19.1440   17.4858   21.9548 H   0  0  0  0  0  0  0  0  0  0  0  0
   20.2651   18.5086   21.0779 H   0  0  0  0  0  0  0  0  0  0  0  0
   20.7647   18.2649   23.1796 C   0  0  0  0  0  0  0  0  0  0  0  0
   20.2499   18.1132   24.1378 H   0  0  0  0  0  0  0  0  0  0  0  0
   21.3552   19.1857   23.2771 H   0  0  0  0  0  0  0  0  0  0  0  0
   21.7208   17.0780   22.9338 C   0  0  0  0  0  0  0  0  0  0  0  0
   22.4443   16.9865   23.7544 H   0  0  0  0  0  0  0  0  0  0  0  0
   22.2850   17.2112   22.0015 H   0  0  0  0  0  0  0  0  0  0  0  0
   21.1675   16.1322   22.8662 H   0  0  0  0  0  0  0  0  0  0  0  0
  1  2  1  0  0  0  0
  1  3  1  0  0  0  0
  1  4  1  0  0  0  0
  1  5  1  0  0  0  0
  5  6  1  0  0  0  0
  5  7  1  0  0  0  0
  7  8  1  0  0  0  0
  7  9  1  0  0  0  0
  7 10  1  0  0  0  0
  5 11  1  0  0  0  0
 11 12  1  0  0  0  0
 11 13  1  0  0  0  0
 11 14  1  0  0  0  0
 14 15  1  0  0  0  0
 14 16  1  0  0  0  0
 14 17  1  0  0  0  0
 17 18  1  0  0  0  0
 17 19  1  0  0  0  0
 17 20  1  0  0  0  0
M  END
> <VConfSearch Rank>
65

> <Conf_Id>
63

> <Delta U+W>
0.420

> <U+W>
-35.856

> <U>
22.625

> <W>
-58.481

> <W(PB)>
-60.400

> <W(SA)>
1.919

> <Valence>
2.404

> <Coulomb>
19.464

> <VdW>
0.757

> <VdW6>
-5.074

> <VdW12>
5.830

> <Bond>
0.172

> <Angle>
1.207

> <Pdih>
1.025

> <Idih>
0.000

> <Tether>
0.000

$$$$
VeraChem MOL file


 20 19  0  0  0  0  0  0  0  0999 V2000     
   19.8262   17.4338   23.6169 N   0  3  0  0  0  0  0  0  0  0  0  0
   20.7422   17.3727   23.1651 H   0  0  0  0  0  0  0  0  0  0  0  0
   19.2221   16.7303   23.1849 H   0  0  0  0  0  0  0  0  0  0  0  0
   19.9509   17.1693   24.5977 H   0  0  0  0  0  0  0  0  0  0  0  0
   19.2436   18.8151   23.4874 C   0  0  2  0  0  0  0  0  0  0  0  0
   19.9451   19.4994   23.9740 H   0  0  0  0  0  0  0  0  0  0  0  0
   17.8970   18.9078   24.2232 C   0  0  0  0  0  0  0  0  0  0  0  0
   18.0125   18.6371   25.2800 H   0  0  0  0  0  0  0  0  0  0  0  0
   17.1533   18.2355   23.7776 H   0  0  0  0  0  0  0  0  0  0  0  0
   17.5007   19.9300   24.1834 H   0  0  0  0  0  0  0  0  0  0  0  0
   19.0828   19.2530   22.0138 C   0  0  0  0  0  0  0  0  0  0  0  0
   18.3686   18.5870   21.5117 H   0  0  0  0  0  0  0  0  0  0  0  0
   18.6378   20.2565   21.9859 H   0  0  0  0  0  0  0  0  0  0  0  0
   20.4074   19.2745   21.2094 C   0  0  0  0  0  0  0  0  0  0  0  0
   20.1896   19.5920   20.1800 H   0  0  0  0  0  0  0  0  0  0  0  0
   20.8208   18.2598   21.1309 H   0  0  0  0  0  0  0  0  0  0  0  0
   21.4673   20.2243   21.8126 C   0  0  0  0  0  0  0  0  0  0  0  0
   21.0763   21.2464   21.9010 H   0  0  0  0  0  0  0  0  0  0  0  0
   22.3587   20.2615   21.1731 H   0  0  0  0  0  0  0  0  0  0  0  0
   21.7884   19.8930   22.8081 H   0  0  0  0  0  0  0  0  0  0  0  0
  1  2  1  0  0  0  0
  1  3  1  0  0  0  0
  1  4  1  0  0  0  0
  1  5  1  0  0  0  0
  5  6  1  0  0  0  0
  5  7  1  0  0  0  0
  7  8  1  0  0  0  0
  7  9  1  0  0  0  0
  7 10  1  0  0  0  0
  5 11  1  0  0  0  0
 11 12  1  0  0  0  0
 11 13  1  0  0  0  0
 11 14  1  0  0  0  0
 14 15  1  0  0  0  0
 14 16  1  0  0  0  0
 14 17  1  0  0  0  0
 17 18  1  0  0  0  0
 17 19  1  0  0  0  0
 17 20  1  0  0  0  0
M  END
> <VConfSearch Rank>
66

> <Conf_Id>
50

> <Delta U+W>
0.466

> <U+W>
-35.811

> <U>
22.369

> <W>
-58.180

> <W(PB)>
-60.103

> <W(SA)>
1.923

> <Valence>
2.168

> <Coulomb>
19.636

> <VdW>
0.566

> <VdW6>
-5.263

> <VdW12>
5.829

> <Bond>
0.162

> <Angle>
1.066

> <Pdih>
0.939

> <Idih>
0.000

> <Tether>
0.000

$$$$
VeraChem MOL file


 20 19  0  0  0  0  0  0  0  0999 V2000     
   17.9590   17.6587   21.8693 N   0  3  0  0  0  0  0  0  0  0  0  0
   18.4152   16.8692   21.4040 H   0  0  0  0  0  0  0  0  0  0  0  0
   17.5293   18.2369   21.1427 H   0  0  0  0  0  0  0  0  0  0  0  0
   17.2012   17.2758   22.4410 H   0  0  0  0  0  0  0  0  0  0  0  0
   18.9315   18.4495   22.7021 C   0  0  2  0  0  0  0  0  0  0  0  0
   19.3371   17.7519   23.4413 H   0  0  0  0  0  0  0  0  0  0  0  0
   18.1930   19.5799   23.4430 C   0  0  0  0  0  0  0  0  0  0  0  0
   17.7291   20.2787   22.7359 H   0  0  0  0  0  0  0  0  0  0  0  0
   18.8720   20.1520   24.0844 H   0  0  0  0  0  0  0  0  0  0  0  0
   17.4017   19.1700   24.0824 H   0  0  0  0  0  0  0  0  0  0  0  0
   20.1089   18.9931   21.8557 C   0  0  0  0  0  0  0  0  0  0  0  0
   20.1529   18.4433   20.9062 H   0  0  0  0  0  0  0  0  0  0  0  0
   19.9324   20.0418   21.5817 H   0  0  0  0  0  0  0  0  0  0  0  0
   21.4926   18.8461   22.5381 C   0  0  0  0  0  0  0  0  0  0  0  0
   22.2677   19.1839   21.8359 H   0  0  0  0  0  0  0  0  0  0  0  0
   21.6968   17.7832   22.7294 H   0  0  0  0  0  0  0  0  0  0  0  0
   21.6354   19.6405   23.8552 C   0  0  0  0  0  0  0  0  0  0  0  0
   21.3958   20.7013   23.7063 H   0  0  0  0  0  0  0  0  0  0  0  0
   22.6655   19.5796   24.2297 H   0  0  0  0  0  0  0  0  0  0  0  0
   20.9785   19.2408   24.6378 H   0  0  0  0  0  0  0  0  0  0  0  0
  1  2  1  0  0  0  0
  1  3  1  0  0  0  0
  1  4  1  0  0  0  0
  1  5  1  0  0  0  0
  5  6  1  0  0  0  0
  5  7  1  0  0  0  0
  7  8  1  0  0  0  0
  7  9  1  0  0  0  0
  7 10  1  0  0  0  0
  5 11  1  0  0  0  0
 11 12  1  0  0  0  0
 11 13  1  0  0  0  0
 11 14  1  0  0  0  0
 14 15  1  0  0  0  0
 14 16  1  0  0  0  0
 14 17  1  0  0  0  0
 17 18  1  0  0  0  0
 17 19  1  0  0  0  0
 17 20  1  0  0  0  0
M  END
> <VConfSearch Rank>
67

> <Conf_Id>
3

> <Delta U+W>
3.093

> <U+W>
-33.184

> <U>
25.256

> <W>
-58.439

> <W(PB)>
-60.337

> <W(SA)>
1.898

> <Valence>
4.963

> <Coulomb>
19.511

> <VdW>
0.782

> <VdW6>
-5.429

> <VdW12>
6.211

> <Bond>
0.174

> <Angle>
1.377

> <Pdih>
3.412

> <Idih>
0.000

> <Tether>
0.000

$$$$
VeraChem MOL file


 20 19  0  0  0  0  0  0  0  0999 V2000     
   17.7218   17.8824   22.2473 N   0  3  0  0  0  0  0  0  0  0  0  0
   17.6276   16.8636   22.2220 H   0  0  0  0  0  0  0  0  0  0  0  0
   17.5061   18.2294   21.3087 H   0  0  0  0  0  0  0  0  0  0  0  0
   17.0002   18.2388   22.8789 H   0  0  0  0  0  0  0  0  0  0  0  0
   19.0980   18.2976   22.6902 C   0  0  2  0  0  0  0  0  0  0  0  0
   19.7957   17.8710   21.9633 H   0  0  0  0  0  0  0  0  0  0  0  0
   19.4162   17.7053   24.0751 C   0  0  0  0  0  0  0  0  0  0  0  0
   20.4624   17.8803   24.3516 H   0  0  0  0  0  0  0  0  0  0  0  0
   19.2575   16.6199   24.0773 H   0  0  0  0  0  0  0  0  0  0  0  0
   18.7772   18.1443   24.8512 H   0  0  0  0  0  0  0  0  0  0  0  0
   19.2531   19.8370   22.6671 C   0  0  0  0  0  0  0  0  0  0  0  0
   18.9365   20.2073   21.6831 H   0  0  0  0  0  0  0  0  0  0  0  0
   18.5635   20.2827   23.3961 H   0  0  0  0  0  0  0  0  0  0  0  0
   20.6875   20.3553   22.9445 C   0  0  0  0  0  0  0  0  0  0  0  0
   20.9870   20.1169   23.9739 H   0  0  0  0  0  0  0  0  0  0  0  0
   20.6837   21.4524   22.8799 H   0  0  0  0  0  0  0  0  0  0  0  0
   21.7350   19.7991   21.9534 C   0  0  0  0  0  0  0  0  0  0  0  0
   21.4551   20.0232   20.9158 H   0  0  0  0  0  0  0  0  0  0  0  0
   21.8461   18.7119   22.0520 H   0  0  0  0  0  0  0  0  0  0  0  0
   22.7183   20.2500   22.1398 H   0  0  0  0  0  0  0  0  0  0  0  0
  1  2  1  0  0  0  0
  1  3  1  0  0  0  0
  1  4  1  0  0  0  0
  1  5  1  0  0  0  0
  5  6  1  0  0  0  0
  5  7  1  0  0  0  0
  7  8  1  0  0  0  0
  7  9  1  0  0  0  0
  7 10  1  0  0  0  0
  5 11  1  0  0  0  0
 11 12  1  0  0  0  0
 11 13  1  0  0  0  0
 11 14  1  0  0  0  0
 14 15  1  0  0  0  0
 14 16  1  0  0  0  0
 14 17  1  0  0  0  0
 17 18  1  0  0  0  0
 17 19  1  0  0  0  0
 17 20  1  0  0  0  0
M  END
> <VConfSearch Rank>
68

> <Conf_Id>
64

> <Delta U+W>
0.544

> <U+W>
-35.732

> <U>
22.800

> <W>
-58.532

> <W(PB)>
-60.437

> <W(SA)>
1.905

> <Valence>
2.662

> <Coulomb>
19.485

> <VdW>
0.653

> <VdW6>
-5.460

> <VdW12>
6.113

> <Bond>
0.174

> <Angle>
1.378

> <Pdih>
1.109

> <Idih>
0.000

> <Tether>
0.000

$$$$
VeraChem MOL file


 20 19  0  0  0  0  0  0  0  0999 V2000     
   19.5780   19.5591   24.7014 N   0  3  0  0  0  0  0  0  0  0  0  0
   20.4743   19.0681   24.7291 H   0  0  0  0  0  0  0  0  0  0  0  0
   19.0253   19.2312   25.4981 H   0  0  0  0  0  0  0  0  0  0  0  0
   19.7675   20.5535   24.8523 H   0  0  0  0  0  0  0  0  0  0  0  0
   18.8605   19.3235   23.3996 C   0  0  2  0  0  0  0  0  0  0  0  0
   17.9183   19.8755   23.4731 H   0  0  0  0  0  0  0  0  0  0  0  0
   18.5093   17.8365   23.2287 C   0  0  0  0  0  0  0  0  0  0  0  0
   19.4031   17.2040   23.2821 H   0  0  0  0  0  0  0  0  0  0  0  0
   18.0129   17.6601   22.2665 H   0  0  0  0  0  0  0  0  0  0  0  0
   17.8238   17.5116   24.0209 H   0  0  0  0  0  0  0  0  0  0  0  0
   19.6314   19.9054   22.1880 C   0  0  0  0  0  0  0  0  0  0  0  0
   18.9924   19.8647   21.2961 H   0  0  0  0  0  0  0  0  0  0  0  0
   19.7875   20.9748   22.3817 H   0  0  0  0  0  0  0  0  0  0  0  0
   21.0110   19.2606   21.8776 C   0  0  0  0  0  0  0  0  0  0  0  0
   21.4895   18.8974   22.7966 H   0  0  0  0  0  0  0  0  0  0  0  0
   21.6765   20.0410   21.4824 H   0  0  0  0  0  0  0  0  0  0  0  0
   20.9408   18.1253   20.8294 C   0  0  0  0  0  0  0  0  0  0  0  0
   20.3274   17.2843   21.1708 H   0  0  0  0  0  0  0  0  0  0  0  0
   21.9453   17.7368   20.6175 H   0  0  0  0  0  0  0  0  0  0  0  0
   20.5197   18.4894   19.8833 H   0  0  0  0  0  0  0  0  0  0  0  0
  1  2  1  0  0  0  0
  1  3  1  0  0  0  0
  1  4  1  0  0  0  0
  1  5  1  0  0  0  0
  5  6  1  0  0  0  0
  5  7  1  0  0  0  0
  7  8  1  0  0  0  0
  7  9  1  0  0  0  0
  7 10  1  0  0  0  0
  5 11  1  0  0  0  0
 11 12  1  0  0  0  0
 11 13  1  0  0  0  0
 11 14  1  0  0  0  0
 14 15  1  0  0  0  0
 14 16  1  0  0  0  0
 14 17  1  0  0  0  0
 17 18  1  0  0  0  0
 17 19  1  0  0  0  0
 17 20  1  0  0  0  0
M  END
> <VConfSearch Rank>
69

> <Conf_Id>
35

> <Delta U+W>
3.004

> <U+W>
-33.272

> <U>
25.367

> <W>
-58.639

> <W(PB)>
-60.512

> <W(SA)>
1.873

> <Valence>
4.943

> <Coulomb>
19.661

> <VdW>
0.764

> <VdW6>
-5.871

> <VdW12>
6.636

> <Bond>
0.230

> <Angle>
1.857

> <Pdih>
2.855

> <Idih>
0.000

> <Tether>
0.000

$$$$
VeraChem MOL file


 20 19  0  0  0  0  0  0  0  0999 V2000     
   19.0345   18.6156   24.2661 N   0  3  0  0  0  0  0  0  0  0  0  0
   18.1229   18.7361   24.7157 H   0  0  0  0  0  0  0  0  0  0  0  0
   19.7194   18.4445   25.0072 H   0  0  0  0  0  0  0  0  0  0  0  0
   18.9879   17.7717   23.6919 H   0  0  0  0  0  0  0  0  0  0  0  0
   19.4055   19.8164   23.4398 C   0  0  2  0  0  0  0  0  0  0  0  0
   19.4529   20.6505   24.1469 H   0  0  0  0  0  0  0  0  0  0  0  0
   18.3107   20.1500   22.4109 C   0  0  0  0  0  0  0  0  0  0  0  0
   18.1379   19.3170   21.7191 H   0  0  0  0  0  0  0  0  0  0  0  0
   18.5859   21.0344   21.8231 H   0  0  0  0  0  0  0  0  0  0  0  0
   17.3621   20.3685   22.9163 H   0  0  0  0  0  0  0  0  0  0  0  0
   20.8089   19.6977   22.7920 C   0  0  0  0  0  0  0  0  0  0  0  0
   21.1205   20.7055   22.4872 H   0  0  0  0  0  0  0  0  0  0  0  0
   21.5302   19.3905   23.5604 H   0  0  0  0  0  0  0  0  0  0  0  0
   20.9473   18.7642   21.5567 C   0  0  0  0  0  0  0  0  0  0  0  0
   21.9836   18.8298   21.1965 H   0  0  0  0  0  0  0  0  0  0  0  0
   20.3246   19.1318   20.7297 H   0  0  0  0  0  0  0  0  0  0  0  0
   20.6228   17.2782   21.8311 C   0  0  0  0  0  0  0  0  0  0  0  0
   21.1683   16.9067   22.7083 H   0  0  0  0  0  0  0  0  0  0  0  0
   20.9152   16.6607   20.9719 H   0  0  0  0  0  0  0  0  0  0  0  0
   19.5494   17.1218   21.9883 H   0  0  0  0  0  0  0  0  0  0  0  0
  1  2  1  0  0  0  0
  1  3  1  0  0  0  0
  1  4  1  0  0  0  0
  1  5  1  0  0  0  0
  5  6  1  0  0  0  0
  5  7  1  0  0  0  0
  7  8  1  0  0  0  0
  7  9  1  0  0  0  0
  7 10  1  0  0  0  0
  5 11  1  0  0  0  0
 11 12  1  0  0  0  0
 11 13  1  0  0  0  0
 11 14  1  0  0  0  0
 14 15  1  0  0  0  0
 14 16  1  0  0  0  0
 14 17  1  0  0  0  0
 17 18  1  0  0  0  0
 17 19  1  0  0  0  0
 17 20  1  0  0  0  0
M  END
> <VConfSearch Rank>
70

> <Conf_Id>
55

> <Delta U+W>
2.767

> <U+W>
-33.509

> <U>
24.552

> <W>
-58.061

> <W(PB)>
-59.930

> <W(SA)>
1.869

> <Valence>
3.726

> <Coulomb>
20.219

> <VdW>
0.606

> <VdW6>
-6.395

> <VdW12>
7.001

> <Bond>
0.241

> <Angle>
2.098

> <Pdih>
1.387

> <Idih>
0.000

> <Tether>
0.000

$$$$
VeraChem MOL file


 20 19  0  0  0  0  0  0  0  0999 V2000     
   18.5663   18.2446   21.3071 N   0  3  0  0  0  0  0  0  0  0  0  0
   19.2991   17.9245   20.6691 H   0  0  0  0  0  0  0  0  0  0  0  0
   17.7260   18.4120   20.7472 H   0  0  0  0  0  0  0  0  0  0  0  0
   18.3566   17.4738   21.9463 H   0  0  0  0  0  0  0  0  0  0  0  0
   18.9866   19.4822   22.0533 C   0  0  2  0  0  0  0  0  0  0  0  0
   18.1538   19.7517   22.7104 H   0  0  0  0  0  0  0  0  0  0  0  0
   19.2256   20.6461   21.0775 C   0  0  0  0  0  0  0  0  0  0  0  0
   18.3279   20.8410   20.4780 H   0  0  0  0  0  0  0  0  0  0  0  0
   20.0534   20.4262   20.3918 H   0  0  0  0  0  0  0  0  0  0  0  0
   19.4682   21.5675   21.6213 H   0  0  0  0  0  0  0  0  0  0  0  0
   20.2375   19.2508   22.9296 C   0  0  0  0  0  0  0  0  0  0  0  0
   21.0838   18.9553   22.2953 H   0  0  0  0  0  0  0  0  0  0  0  0
   20.5185   20.2008   23.4035 H   0  0  0  0  0  0  0  0  0  0  0  0
   20.0155   18.1891   24.0338 C   0  0  0  0  0  0  0  0  0  0  0  0
   19.7878   17.2139   23.5827 H   0  0  0  0  0  0  0  0  0  0  0  0
   19.1460   18.4676   24.6459 H   0  0  0  0  0  0  0  0  0  0  0  0
   21.2550   18.0445   24.9427 C   0  0  0  0  0  0  0  0  0  0  0  0
   22.1355   17.7368   24.3638 H   0  0  0  0  0  0  0  0  0  0  0  0
   21.0808   17.2874   25.7183 H   0  0  0  0  0  0  0  0  0  0  0  0
   21.4902   18.9921   25.4448 H   0  0  0  0  0  0  0  0  0  0  0  0
  1  2  1  0  0  0  0
  1  3  1  0  0  0  0
  1  4  1  0  0  0  0
  1  5  1  0  0  0  0
  5  6  1  0  0  0  0
  5  7  1  0  0  0  0
  7  8  1  0  0  0  0
  7  9  1  0  0  0  0
  7 10  1  0  0  0  0
  5 11  1  0  0  0  0
 11 12  1  0  0  0  0
 11 13  1  0  0  0  0
 11 14  1  0  0  0  0
 14 15  1  0  0  0  0
 14 16  1  0  0  0  0
 14 17  1  0  0  0  0
 17 18  1  0  0  0  0
 17 19  1  0  0  0  0
 17 20  1  0  0  0  0
M  END
> <VConfSearch Rank>
71

> <Conf_Id>
74

> <Delta U+W>
0.000

> <U+W>
-36.276

> <U>
22.080

> <W>
-58.356

> <W(PB)>
-60.289

> <W(SA)>
1.932

> <Valence>
1.885

> <Coulomb>
19.559

> <VdW>
0.637

> <VdW6>
-4.482

> <VdW12>
5.119

> <Bond>
0.136

> <Angle>
0.867

> <Pdih>
0.882

> <Idih>
0.000

> <Tether>
0.000

$$$$
VeraChem MOL file


 20 19  0  0  0  0  0  0  0  0999 V2000     
   21.3581   20.6928   22.7831 N   0  3  0  0  0  0  0  0  0  0  0  0
   20.9152   21.4049   22.1962 H   0  0  0  0  0  0  0  0  0  0  0  0
   22.0837   20.2406   22.2212 H   0  0  0  0  0  0  0  0  0  0  0  0
   21.8279   21.1825   23.5494 H   0  0  0  0  0  0  0  0  0  0  0  0
   20.3566   19.6959   23.2985 C   0  0  2  0  0  0  0  0  0  0  0  0
   19.6286   20.2654   23.8846 H   0  0  0  0  0  0  0  0  0  0  0  0
   21.0443   18.6815   24.2307 C   0  0  0  0  0  0  0  0  0  0  0  0
   21.6102   19.1994   25.0149 H   0  0  0  0  0  0  0  0  0  0  0  0
   21.7408   18.0408   23.6759 H   0  0  0  0  0  0  0  0  0  0  0  0
   20.3112   18.0393   24.7321 H   0  0  0  0  0  0  0  0  0  0  0  0
   19.6068   19.0044   22.1362 C   0  0  0  0  0  0  0  0  0  0  0  0
   19.2342   19.7793   21.4533 H   0  0  0  0  0  0  0  0  0  0  0  0
   20.3090   18.3910   21.5561 H   0  0  0  0  0  0  0  0  0  0  0  0
   18.4096   18.1355   22.5933 C   0  0  0  0  0  0  0  0  0  0  0  0
   17.7385   18.7327   23.2266 H   0  0  0  0  0  0  0  0  0  0  0  0
   18.7609   17.2944   23.2057 H   0  0  0  0  0  0  0  0  0  0  0  0
   17.6173   17.5793   21.3906 C   0  0  0  0  0  0  0  0  0  0  0  0
   17.2107   18.3918   20.7744 H   0  0  0  0  0  0  0  0  0  0  0  0
   16.7754   16.9633   21.7324 H   0  0  0  0  0  0  0  0  0  0  0  0
   18.2552   16.9533   20.7530 H   0  0  0  0  0  0  0  0  0  0  0  0
  1  2  1  0  0  0  0
  1  3  1  0  0  0  0
  1  4  1  0  0  0  0
  1  5  1  0  0  0  0
  5  6  1  0  0  0  0
  5  7  1  0  0  0  0
  7  8  1  0  0  0  0
  7  9  1  0  0  0  0
  7 10  1  0  0  0  0
  5 11  1  0  0  0  0
 11 12  1  0  0  0  0
 11 13  1  0  0  0  0
 11 14  1  0  0  0  0
 14 15  1  0  0  0  0
 14 16  1  0  0  0  0
 14 17  1  0  0  0  0
 17 18  1  0  0  0  0
 17 19  1  0  0  0  0
 17 20  1  0  0  0  0
M  END
> <VConfSearch Rank>
72

> <Conf_Id>
80

> <Delta U+W>
0.460

> <U+W>
-35.817

> <U>
22.495

> <W>
-58.311

> <W(PB)>
-60.259

> <W(SA)>
1.948

> <Valence>
2.419

> <Coulomb>
19.304

> <VdW>
0.772

> <VdW6>
-4.635

> <VdW12>
5.407

> <Bond>
0.149

> <Angle>
1.142

> <Pdih>
1.129

> <Idih>
0.000

> <Tether>
0.000

$$$$
VeraChem MOL file


 20 19  0  0  0  0  0  0  0  0999 V2000     
   19.6223   20.9518   23.9441 N   0  3  0  0  0  0  0  0  0  0  0  0
   20.5434   21.3899   24.0303 H   0  0  0  0  0  0  0  0  0  0  0  0
   19.4068   20.5117   24.8422 H   0  0  0  0  0  0  0  0  0  0  0  0
   18.9421   21.7035   23.8028 H   0  0  0  0  0  0  0  0  0  0  0  0
   19.5837   19.9555   22.8177 C   0  0  2  0  0  0  0  0  0  0  0  0
   19.8183   20.5144   21.9064 H   0  0  0  0  0  0  0  0  0  0  0  0
   18.1675   19.3734   22.6701 C   0  0  0  0  0  0  0  0  0  0  0  0
   17.4210   20.1760   22.6290 H   0  0  0  0  0  0  0  0  0  0  0  0
   17.9168   18.7174   23.5129 H   0  0  0  0  0  0  0  0  0  0  0  0
   18.0737   18.7998   21.7410 H   0  0  0  0  0  0  0  0  0  0  0  0
   20.6663   18.8643   23.0037 C   0  0  0  0  0  0  0  0  0  0  0  0
   21.6293   19.3750   23.1364 H   0  0  0  0  0  0  0  0  0  0  0  0
   20.4912   18.3111   23.9360 H   0  0  0  0  0  0  0  0  0  0  0  0
   20.8148   17.8787   21.8146 C   0  0  0  0  0  0  0  0  0  0  0  0
   21.8796   17.6345   21.6928 H   0  0  0  0  0  0  0  0  0  0  0  0
   20.5082   18.3625   20.8765 H   0  0  0  0  0  0  0  0  0  0  0  0
   20.0431   16.5530   22.0145 C   0  0  0  0  0  0  0  0  0  0  0  0
   20.3964   16.0250   22.9098 H   0  0  0  0  0  0  0  0  0  0  0  0
   20.1945   15.8871   21.1551 H   0  0  0  0  0  0  0  0  0  0  0  0
   18.9648   16.7146   22.1227 H   0  0  0  0  0  0  0  0  0  0  0  0
  1  2  1  0  0  0  0
  1  3  1  0  0  0  0
  1  4  1  0  0  0  0
  1  5  1  0  0  0  0
  5  6  1  0  0  0  0
  5  7  1  0  0  0  0
  7  8  1  0  0  0  0
  7  9  1  0  0  0  0
  7 10  1  0  0  0  0
  5 11  1  0  0  0  0
 11 12  1  0  0  0  0
 11 13  1  0  0  0  0
 11 14  1  0  0  0  0
 14 15  1  0  0  0  0
 14 16  1  0  0  0  0
 14 17  1  0  0  0  0
 17 18  1  0  0  0  0
 17 19  1  0  0  0  0
 17 20  1  0  0  0  0
M  END
> <VConfSearch Rank>
73

> <Conf_Id>
52

> <Delta U+W>
2.995

> <U+W>
-33.282

> <U>
25.224

> <W>
-58.506

> <W(PB)>
-60.411

> <W(SA)>
1.905

> <Valence>
4.945

> <Coulomb>
19.467

> <VdW>
0.813

> <VdW6>
-5.458

> <VdW12>
6.270

> <Bond>
0.200

> <Angle>
1.675

> <Pdih>
3.070

> <Idih>
0.000

> <Tether>
0.000

$$$$
VeraChem MOL file


 20 19  0  0  0  0  0  0  0  0999 V2000     
   19.9462   20.0285   21.4910 N   0  3  0  0  0  0  0  0  0  0  0  0
   20.4370   19.4769   20.7829 H   0  0  0  0  0  0  0  0  0  0  0  0
   20.1048   21.0160   21.2736 H   0  0  0  0  0  0  0  0  0  0  0  0
   18.9464   19.8449   21.3829 H   0  0  0  0  0  0  0  0  0  0  0  0
   20.4178   19.6852   22.8777 C   0  0  2  0  0  0  0  0  0  0  0  0
   19.8868   20.3448   23.5711 H   0  0  0  0  0  0  0  0  0  0  0  0
   21.9242   19.9697   23.0016 C   0  0  0  0  0  0  0  0  0  0  0  0
   22.5070   19.3209   22.3358 H   0  0  0  0  0  0  0  0  0  0  0  0
   22.2704   19.8040   24.0294 H   0  0  0  0  0  0  0  0  0  0  0  0
   22.1455   21.0124   22.7427 H   0  0  0  0  0  0  0  0  0  0  0  0
   20.1115   18.2200   23.2698 C   0  0  0  0  0  0  0  0  0  0  0  0
   20.4118   17.5445   22.4580 H   0  0  0  0  0  0  0  0  0  0  0  0
   20.7372   17.9501   24.1311 H   0  0  0  0  0  0  0  0  0  0  0  0
   18.6381   17.9491   23.6728 C   0  0  0  0  0  0  0  0  0  0  0  0
   18.3602   18.5960   24.5168 H   0  0  0  0  0  0  0  0  0  0  0  0
   18.5699   16.9179   24.0472 H   0  0  0  0  0  0  0  0  0  0  0  0
   17.6105   18.1209   22.5311 C   0  0  0  0  0  0  0  0  0  0  0  0
   16.6347   17.7209   22.8363 H   0  0  0  0  0  0  0  0  0  0  0  0
   17.9227   17.5808   21.6277 H   0  0  0  0  0  0  0  0  0  0  0  0
   17.4576   19.1769   22.2802 H   0  0  0  0  0  0  0  0  0  0  0  0
  1  2  1  0  0  0  0
  1  3  1  0  0  0  0
  1  4  1  0  0  0  0
  1  5  1  0  0  0  0
  5  6  1  0  0  0  0
  5  7  1  0  0  0  0
  7  8  1  0  0  0  0
  7  9  1  0  0  0  0
  7 10  1  0  0  0  0
  5 11  1  0  0  0  0
 11 12  1  0  0  0  0
 11 13  1  0  0  0  0
 11 14  1  0  0  0  0
 14 15  1  0  0  0  0
 14 16  1  0  0  0  0
 14 17  1  0  0  0  0
 17 18  1  0  0  0  0
 17 19  1  0  0  0  0
 17 20  1  0  0  0  0
M  END
> <VConfSearch Rank>
74

> <Conf_Id>
54

> <Delta U+W>
2.752

> <U+W>
-33.525

> <U>
24.337

> <W>
-57.862

> <W(PB)>
-59.764

> <W(SA)>
1.901

> <Valence>
3.593

> <Coulomb>
20.067

> <VdW>
0.677

> <VdW6>
-5.466

> <VdW12>
6.144

> <Bond>
0.191

> <Angle>
1.557

> <Pdih>
1.845

> <Idih>
0.000

> <Tether>
0.000

$$$$
VeraChem MOL file


 20 19  0  0  0  0  0  0  0  0999 V2000     
   20.8970   17.9517   24.0972 N   0  3  0  0  0  0  0  0  0  0  0  0
   21.3878   17.0755   24.2950 H   0  0  0  0  0  0  0  0  0  0  0  0
   20.5806   18.3316   24.9935 H   0  0  0  0  0  0  0  0  0  0  0  0
   21.5822   18.6050   23.7111 H   0  0  0  0  0  0  0  0  0  0  0  0
   19.7473   17.7373   23.1506 C   0  0  2  0  0  0  0  0  0  0  0  0
   19.0830   17.0176   23.6393 H   0  0  0  0  0  0  0  0  0  0  0  0
   20.2271   17.1041   21.8323 C   0  0  0  0  0  0  0  0  0  0  0  0
   19.3864   16.9511   21.1443 H   0  0  0  0  0  0  0  0  0  0  0  0
   20.6838   16.1249   22.0212 H   0  0  0  0  0  0  0  0  0  0  0  0
   20.9737   17.7298   21.3292 H   0  0  0  0  0  0  0  0  0  0  0  0
   18.9274   19.0279   22.9116 C   0  0  0  0  0  0  0  0  0  0  0  0
   18.0571   18.7829   22.2885 H   0  0  0  0  0  0  0  0  0  0  0  0
   18.5225   19.3651   23.8748 H   0  0  0  0  0  0  0  0  0  0  0  0
   19.7149   20.1916   22.2558 C   0  0  0  0  0  0  0  0  0  0  0  0
   20.0848   19.8903   21.2666 H   0  0  0  0  0  0  0  0  0  0  0  0
   20.5951   20.4433   22.8624 H   0  0  0  0  0  0  0  0  0  0  0  0
   18.8366   21.4513   22.0974 C   0  0  0  0  0  0  0  0  0  0  0  0
   19.4064   22.2651   21.6302 H   0  0  0  0  0  0  0  0  0  0  0  0
   18.4778   21.8083   23.0716 H   0  0  0  0  0  0  0  0  0  0  0  0
   17.9626   21.2468   21.4653 H   0  0  0  0  0  0  0  0  0  0  0  0
  1  2  1  0  0  0  0
  1  3  1  0  0  0  0
  1  4  1  0  0  0  0
  1  5  1  0  0  0  0
  5  6  1  0  0  0  0
  5  7  1  0  0  0  0
  7  8  1  0  0  0  0
  7  9  1  0  0  0  0
  7 10  1  0  0  0  0
  5 11  1  0  0  0  0
 11 12  1  0  0  0  0
 11 13  1  0  0  0  0
 11 14  1  0  0  0  0
 14 15  1  0  0  0  0
 14 16  1  0  0  0  0
 14 17  1  0  0  0  0
 17 18  1  0  0  0  0
 17 19  1  0  0  0  0
 17 20  1  0  0  0  0
M  END
> <VConfSearch Rank>
75

> <Conf_Id>
63

> <Delta U+W>
0.420

> <U+W>
-35.856

> <U>
22.625

> <W>
-58.481

> <W(PB)>
-60.400

> <W(SA)>
1.919

> <Valence>
2.404

> <Coulomb>
19.464

> <VdW>
0.757

> <VdW6>
-5.074

> <VdW12>
5.830

> <Bond>
0.172

> <Angle>
1.207

> <Pdih>
1.025

> <Idih>
0.000

> <Tether>
0.000

$$$$
VeraChem MOL file


 20 19  0  0  0  0  0  0  0  0999 V2000     
   20.7144   20.4164   22.6437 N   0  3  0  0  0  0  0  0  0  0  0  0
   21.3422   19.8099   22.1100 H   0  0  0  0  0  0  0  0  0  0  0  0
   21.1623   20.6082   23.5431 H   0  0  0  0  0  0  0  0  0  0  0  0
   20.6463   21.3048   22.1402 H   0  0  0  0  0  0  0  0  0  0  0  0
   19.3631   19.7799   22.8255 C   0  0  2  0  0  0  0  0  0  0  0  0
   18.9565   19.6128   21.8235 H   0  0  0  0  0  0  0  0  0  0  0  0
   18.4127   20.7278   23.5751 C   0  0  0  0  0  0  0  0  0  0  0  0
   18.3190   21.6833   23.0446 H   0  0  0  0  0  0  0  0  0  0  0  0
   18.7757   20.9344   24.5896 H   0  0  0  0  0  0  0  0  0  0  0  0
   17.4092   20.2915   23.6537 H   0  0  0  0  0  0  0  0  0  0  0  0
   19.4444   18.4165   23.5490 C   0  0  0  0  0  0  0  0  0  0  0  0
   19.8355   18.5656   24.5642 H   0  0  0  0  0  0  0  0  0  0  0  0
   18.4296   18.0140   23.6676 H   0  0  0  0  0  0  0  0  0  0  0  0
   20.3151   17.3617   22.8202 C   0  0  0  0  0  0  0  0  0  0  0  0
   20.3140   16.4348   23.4108 H   0  0  0  0  0  0  0  0  0  0  0  0
   21.3615   17.6935   22.7820 H   0  0  0  0  0  0  0  0  0  0  0  0
   19.8155   17.0458   21.3919 C   0  0  0  0  0  0  0  0  0  0  0  0
   18.7700   16.7114   21.4047 H   0  0  0  0  0  0  0  0  0  0  0  0
   20.4172   16.2452   20.9425 H   0  0  0  0  0  0  0  0  0  0  0  0
   19.8873   17.9216   20.7348 H   0  0  0  0  0  0  0  0  0  0  0  0
  1  2  1  0  0  0  0
  1  3  1  0  0  0  0
  1  4  1  0  0  0  0
  1  5  1  0  0  0  0
  5  6  1  0  0  0  0
  5  7  1  0  0  0  0
  7  8  1  0  0  0  0
  7  9  1  0  0  0  0
  7 10  1  0  0  0  0
  5 11  1  0  0  0  0
 11 12  1  0  0  0  0
 11 13  1  0  0  0  0
 11 14  1  0  0  0  0
 14 15  1  0  0  0  0
 14 16  1  0  0  0  0
 14 17  1  0  0  0  0
 17 18  1  0  0  0  0
 17 19  1  0  0  0  0
 17 20  1  0  0  0  0
M  END
> <VConfSearch Rank>
76

> <Conf_Id>
50

> <Delta U+W>
0.466

> <U+W>
-35.811

> <U>
22.369

> <W>
-58.180

> <W(PB)>
-60.103

> <W(SA)>
1.923

> <Valence>
2.168

> <Coulomb>
19.636

> <VdW>
0.566

> <VdW6>
-5.263

> <VdW12>
5.829

> <Bond>
0.162

> <Angle>
1.066

> <Pdih>
0.939

> <Idih>
0.000

> <Tether>
0.000

$$$$
VeraChem MOL file


 20 19  0  0  0  0  0  0  0  0999 V2000     
   19.9298   20.9816   23.7201 N   0  3  0  0  0  0  0  0  0  0  0  0
   20.9279   21.0573   23.9345 H   0  0  0  0  0  0  0  0  0  0  0  0
   19.4256   20.9551   24.6101 H   0  0  0  0  0  0  0  0  0  0  0  0
   19.6572   21.8444   23.2417 H   0  0  0  0  0  0  0  0  0  0  0  0
   19.6330   19.7688   22.8802 C   0  0  2  0  0  0  0  0  0  0  0  0
   20.2143   19.8855   21.9603 H   0  0  0  0  0  0  0  0  0  0  0  0
   18.1366   19.7326   22.5173 C   0  0  0  0  0  0  0  0  0  0  0  0
   17.5132   19.6636   23.4175 H   0  0  0  0  0  0  0  0  0  0  0  0
   17.8979   18.8768   21.8768 H   0  0  0  0  0  0  0  0  0  0  0  0
   17.8487   20.6415   21.9749 H   0  0  0  0  0  0  0  0  0  0  0  0
   20.0859   18.4603   23.5736 C   0  0  0  0  0  0  0  0  0  0  0  0
   20.7922   18.7056   24.3778 H   0  0  0  0  0  0  0  0  0  0  0  0
   19.2344   17.9729   24.0669 H   0  0  0  0  0  0  0  0  0  0  0  0
   20.7959   17.4609   22.6255 C   0  0  0  0  0  0  0  0  0  0  0  0
   21.1480   16.6048   23.2180 H   0  0  0  0  0  0  0  0  0  0  0  0
   21.6958   17.9306   22.2039 H   0  0  0  0  0  0  0  0  0  0  0  0
   19.9053   16.9374   21.4770 C   0  0  0  0  0  0  0  0  0  0  0  0
   18.9761   16.4995   21.8641 H   0  0  0  0  0  0  0  0  0  0  0  0
   20.4308   16.1588   20.9089 H   0  0  0  0  0  0  0  0  0  0  0  0
   19.6470   17.7382   20.7730 H   0  0  0  0  0  0  0  0  0  0  0  0
  1  2  1  0  0  0  0
  1  3  1  0  0  0  0
  1  4  1  0  0  0  0
  1  5  1  0  0  0  0
  5  6  1  0  0  0  0
  5  7  1  0  0  0  0
  7  8  1  0  0  0  0
  7  9  1  0  0  0  0
  7 10  1  0  0  0  0
  5 11  1  0  0  0  0
 11 12  1  0  0  0  0
 11 13  1  0  0  0  0
 11 14  1  0  0  0  0
 14 15  1  0  0  0  0
 14 16  1  0  0  0  0
 14 17  1  0  0  0  0
 17 18  1  0  0  0  0
 17 19  1  0  0  0  0
 17 20  1  0  0  0  0
M  END
> <VConfSearch Rank>
77

> <Conf_Id>
3

> <Delta U+W>
3.093

> <U+W>
-33.184

> <U>
25.256

> <W>
-58.439

> <W(PB)>
-60.337

> <W(SA)>
1.898

> <Valence>
4.963

> <Coulomb>
19.511

> <VdW>
0.782

> <VdW6>
-5.429

> <VdW12>
6.211

> <Bond>
0.174

> <Angle>
1.377

> <Pdih>
3.412

> <Idih>
0.000

> <Tether>
0.000

$$$$
VeraChem MOL file


 20 19  0  0  0  0  0  0  0  0999 V2000     
   20.8033   16.9618   22.9223 N   0  3  0  0  0  0  0  0  0  0  0  0
   21.4774   16.7618   23.6661 H   0  0  0  0  0  0  0  0  0  0  0  0
   21.3079   16.9050   22.0336 H   0  0  0  0  0  0  0  0  0  0  0  0
   20.1104   16.2092   22.9298 H   0  0  0  0  0  0  0  0  0  0  0  0
   20.1591   18.3079   23.1102 C   0  0  2  0  0  0  0  0  0  0  0  0
   20.9707   19.0414   23.0924 H   0  0  0  0  0  0  0  0  0  0  0  0
   19.4659   18.3830   24.4828 C   0  0  0  0  0  0  0  0  0  0  0  0
   19.1123   19.3987   24.6947 H   0  0  0  0  0  0  0  0  0  0  0  0
   20.1633   18.1087   25.2837 H   0  0  0  0  0  0  0  0  0  0  0  0
   18.6069   17.7025   24.5316 H   0  0  0  0  0  0  0  0  0  0  0  0
   19.1872   18.6304   21.9500 C   0  0  0  0  0  0  0  0  0  0  0  0
   19.7146   18.4824   20.9985 H   0  0  0  0  0  0  0  0  0  0  0  0
   18.3614   17.9067   21.9560 H   0  0  0  0  0  0  0  0  0  0  0  0
   18.6023   20.0660   21.9650 C   0  0  0  0  0  0  0  0  0  0  0  0
   17.9562   20.2057   22.8421 H   0  0  0  0  0  0  0  0  0  0  0  0
   17.9499   20.1892   21.0893 H   0  0  0  0  0  0  0  0  0  0  0  0
   19.6902   21.1637   21.9372 C   0  0  0  0  0  0  0  0  0  0  0  0
   20.3512   21.0428   21.0691 H   0  0  0  0  0  0  0  0  0  0  0  0
   20.3072   21.1431   22.8444 H   0  0  0  0  0  0  0  0  0  0  0  0
   19.2309   22.1586   21.8724 H   0  0  0  0  0  0  0  0  0  0  0  0
  1  2  1  0  0  0  0
  1  3  1  0  0  0  0
  1  4  1  0  0  0  0
  1  5  1  0  0  0  0
  5  6  1  0  0  0  0
  5  7  1  0  0  0  0
  7  8  1  0  0  0  0
  7  9  1  0  0  0  0
  7 10  1  0  0  0  0
  5 11  1  0  0  0  0
 11 12  1  0  0  0  0
 11 13  1  0  0  0  0
 11 14  1  0  0  0  0
 14 15  1  0  0  0  0
 14 16  1  0  0  0  0
 14 17  1  0  0  0  0
 17 18  1  0  0  0  0
 17 19  1  0  0  0  0
 17 20  1  0  0  0  0
M  END
> <VConfSearch Rank>
78

> <Conf_Id>
64

> <Delta U+W>
0.544

> <U+W>
-35.732

> <U>
22.800

> <W>
-58.532

> <W(PB)>
-60.437

> <W(SA)>
1.905

> <Valence>
2.662

> <Coulomb>
19.485

> <VdW>
0.653

> <VdW6>
-5.460

> <VdW12>
6.113

> <Bond>
0.174

> <Angle>
1.378

> <Pdih>
1.109

> <Idih>
0.000

> <Tether>
0.000

$$$$
VeraChem MOL file


 20 19  0  0  0  0  0  0  0  0999 V2000     
   20.0830   20.8057   23.6028 N   0  3  0  0  0  0  0  0  0  0  0  0
   20.1255   20.1775   24.4083 H   0  0  0  0  0  0  0  0  0  0  0  0
   19.4619   21.5803   23.8517 H   0  0  0  0  0  0  0  0  0  0  0  0
   21.0189   21.1981   23.4695 H   0  0  0  0  0  0  0  0  0  0  0  0
   19.6022   20.0891   22.3699 C   0  0  2  0  0  0  0  0  0  0  0  0
   19.5811   20.8418   21.5755 H   0  0  0  0  0  0  0  0  0  0  0  0
   18.1639   19.5796   22.5578 C   0  0  0  0  0  0  0  0  0  0  0  0
   18.0825   18.9192   23.4290 H   0  0  0  0  0  0  0  0  0  0  0  0
   17.8241   19.0315   21.6705 H   0  0  0  0  0  0  0  0  0  0  0  0
   17.4770   20.4207   22.7123 H   0  0  0  0  0  0  0  0  0  0  0  0
   20.5819   18.9787   21.9138 C   0  0  0  0  0  0  0  0  0  0  0  0
   20.2792   18.6096   20.9250 H   0  0  0  0  0  0  0  0  0  0  0  0
   21.5614   19.4494   21.7578 H   0  0  0  0  0  0  0  0  0  0  0  0
   20.7664   17.7826   22.8887 C   0  0  0  0  0  0  0  0  0  0  0  0
   20.6396   18.1034   23.9310 H   0  0  0  0  0  0  0  0  0  0  0  0
   21.8038   17.4283   22.8091 H   0  0  0  0  0  0  0  0  0  0  0  0
   19.8347   16.5863   22.5827 C   0  0  0  0  0  0  0  0  0  0  0  0
   18.7763   16.8494   22.6854 H   0  0  0  0  0  0  0  0  0  0  0  0
   20.0372   15.7567   23.2725 H   0  0  0  0  0  0  0  0  0  0  0  0
   19.9940   16.2152   21.5619 H   0  0  0  0  0  0  0  0  0  0  0  0
  1  2  1  0  0  0  0
  1  3  1  0  0  0  0
  1  4  1  0  0  0  0
  1  5  1  0  0  0  0
  5  6  1  0  0  0  0
  5  7  1  0  0  0  0
  7  8  1  0  0  0  0
  7  9  1  0  0  0  0
  7 10  1  0  0  0  0
  5 11  1  0  0  0  0
 11 12  1  0  0  0  0
 11 13  1  0  0  0  0
 11 14  1  0  0  0  0
 14 15  1  0  0  0  0
 14 16  1  0  0  0  0
 14 17  1  0  0  0  0
 17 18  1  0  0  0  0
 17 19  1  0  0  0  0
 17 20  1  0  0  0  0
M  END
> <VConfSearch Rank>
79

> <Conf_Id>
35

> <Delta U+W>
3.004

> <U+W>
-33.272

> <U>
25.367

> <W>
-58.639

> <W(PB)>
-60.512

> <W(SA)>
1.873

> <Valence>
4.943

> <Coulomb>
19.661

> <VdW>
0.764

> <VdW6>
-5.871

> <VdW12>
6.636

> <Bond>
0.230

> <Angle>
1.857

> <Pdih>
2.855

> <Idih>
0.000

> <Tether>
0.000

$$$$
VeraChem MOL file


 20 19  0  0  0  0  0  0  0  0999 V2000     
   21.2523   18.8497   21.6651 N   0  3  0  0  0  0  0  0  0  0  0  0
   22.2161   18.5122   21.7343 H   0  0  0  0  0  0  0  0  0  0  0  0
   21.2048   19.4711   20.8532 H   0  0  0  0  0  0  0  0  0  0  0  0
   20.6551   18.0442   21.4691 H   0  0  0  0  0  0  0  0  0  0  0  0
   20.8221   19.5533   22.9230 C   0  0  2  0  0  0  0  0  0  0  0  0
   21.5021   20.4047   23.0252 H   0  0  0  0  0  0  0  0  0  0  0  0
   21.0175   18.6599   24.1609 C   0  0  0  0  0  0  0  0  0  0  0  0
   20.4350   17.7338   24.0879 H   0  0  0  0  0  0  0  0  0  0  0  0
   20.7128   19.1875   25.0731 H   0  0  0  0  0  0  0  0  0  0  0  0
   22.0731   18.3842   24.2730 H   0  0  0  0  0  0  0  0  0  0  0  0
   19.3874   20.1338   22.8337 C   0  0  0  0  0  0  0  0  0  0  0  0
   19.2787   20.8758   23.6357 H   0  0  0  0  0  0  0  0  0  0  0  0
   19.2908   20.7004   21.8984 H   0  0  0  0  0  0  0  0  0  0  0  0
   18.2044   19.1321   22.9504 C   0  0  0  0  0  0  0  0  0  0  0  0
   17.2684   19.7069   22.9136 H   0  0  0  0  0  0  0  0  0  0  0  0
   18.2125   18.6460   23.9355 H   0  0  0  0  0  0  0  0  0  0  0  0
   18.1570   18.0572   21.8408 C   0  0  0  0  0  0  0  0  0  0  0  0
   18.2341   18.5103   20.8438 H   0  0  0  0  0  0  0  0  0  0  0  0
   17.2071   17.5085   21.8839 H   0  0  0  0  0  0  0  0  0  0  0  0
   18.9592   17.3198   21.9584 H   0  0  0  0  0  0  0  0  0  0  0  0
  1  2  1  0  0  0  0
  1  3  1  0  0  0  0
  1  4  1  0  0  0  0
  1  5  1  0  0  0  0
  5  6  1  0  0  0  0
  5  7  1  0  0  0  0
  7  8  1  0  0  0  0
  7  9  1  0  0  0  0
  7 10  1  0  0  0  0
  5 11  1  0  0  0  0
 11 12  1  0  0  0  0
 11 13  1  0  0  0  0
 11 14  1  0  0  0  0
 14 15  1  0  0  0  0
 14 16  1  0  0  0  0
 14 17  1  0  0  0  0
 17 18  1  0  0  0  0
 17 19  1  0  0  0  0
 17 20  1  0  0  0  0
M  END
> <VConfSearch Rank>
80

> <Conf_Id>
55

> <Delta U+W>
2.767

> <U+W>
-33.509

> <U>
24.552

> <W>
-58.061

> <W(PB)>
-59.930

> <W(SA)>
1.869

> <Valence>
3.726

> <Coulomb>
20.219

> <VdW>
0.606

> <VdW6>
-6.395

> <VdW12>
7.001

> <Bond>
0.241

> <Angle>
2.098

> <Pdih>
1.387

> <Idih>
0.000

> <Tether>
0.000

$$$$
VeraChem MOL file


 20 19  0  0  0  0  0  0  0  0999 V2000     
   20.2813   19.6589   24.4804 N   0  3  0  0  0  0  0  0  0  0  0  0
   19.3637   19.6064   24.9297 H   0  0  0  0  0  0  0  0  0  0  0  0
   20.8221   20.3744   24.9736 H   0  0  0  0  0  0  0  0  0  0  0  0
   20.7510   18.7632   24.6346 H   0  0  0  0  0  0  0  0  0  0  0  0
   20.1600   19.9736   23.0137 C   0  0  2  0  0  0  0  0  0  0  0  0
   21.1781   20.0068   22.6135 H   0  0  0  0  0  0  0  0  0  0  0  0
   19.5175   21.3554   22.8092 C   0  0  0  0  0  0  0  0  0  0  0  0
   20.0942   22.1323   23.3260 H   0  0  0  0  0  0  0  0  0  0  0  0
   18.4910   21.3776   23.1960 H   0  0  0  0  0  0  0  0  0  0  0  0
   19.4868   21.6178   21.7444 H   0  0  0  0  0  0  0  0  0  0  0  0
   19.3716   18.8950   22.2384 C   0  0  0  0  0  0  0  0  0  0  0  0
   18.3508   18.8248   22.6372 H   0  0  0  0  0  0  0  0  0  0  0  0
   19.2770   19.2101   21.1906 H   0  0  0  0  0  0  0  0  0  0  0  0
   20.0469   17.5030   22.2814 C   0  0  0  0  0  0  0  0  0  0  0  0
   20.1025   17.1397   23.3165 H   0  0  0  0  0  0  0  0  0  0  0  0
   21.0805   17.5814   21.9156 H   0  0  0  0  0  0  0  0  0  0  0  0
   19.2796   16.4706   21.4278 C   0  0  0  0  0  0  0  0  0  0  0  0
   18.2501   16.3471   21.7883 H   0  0  0  0  0  0  0  0  0  0  0  0
   19.7711   15.4900   21.4708 H   0  0  0  0  0  0  0  0  0  0  0  0
   19.2384   16.7799   20.3752 H   0  0  0  0  0  0  0  0  0  0  0  0
  1  2  1  0  0  0  0
  1  3  1  0  0  0  0
  1  4  1  0  0  0  0
  1  5  1  0  0  0  0
  5  6  1  0  0  0  0
  5  7  1  0  0  0  0
  7  8  1  0  0  0  0
  7  9  1  0  0  0  0
  7 10  1  0  0  0  0
  5 11  1  0  0  0  0
 11 12  1  0  0  0  0
 11 13  1  0  0  0  0
 11 14  1  0  0  0  0
 14 15  1  0  0  0  0
 14 16  1  0  0  0  0
 14 17  1  0  0  0  0
 17 18  1  0  0  0  0
 17 19  1  0  0  0  0
 17 20  1  0  0  0  0
M  END
> <VConfSearch Rank>
81

> <Conf_Id>
74

> <Delta U+W>
0.000

> <U+W>
-36.276

> <U>
22.080

> <W>
-58.356

> <W(PB)>
-60.289

> <W(SA)>
1.932

> <Valence>
1.885

> <Coulomb>
19.559

> <VdW>
0.637

> <VdW6>
-4.482

> <VdW12>
5.119

> <Bond>
0.136

> <Angle>
0.867

> <Pdih>
0.882

> <Idih>
0.000

> <Tether>
0.000

$$$$
VeraChem MOL file


 20 19  0  0  0  0  0  0  0  0999 V2000     
   18.4972   18.3437   24.6767 N   0  3  0  0  0  0  0  0  0  0  0  0
   17.6002   18.8048   24.5012 H   0  0  0  0  0  0  0  0  0  0  0  0
   19.0099   18.9176   25.3509 H   0  0  0  0  0  0  0  0  0  0  0  0
   18.2933   17.4496   25.1313 H   0  0  0  0  0  0  0  0  0  0  0  0
   19.2803   18.1501   23.4072 C   0  0  2  0  0  0  0  0  0  0  0  0
   18.6601   17.5280   22.7544 H   0  0  0  0  0  0  0  0  0  0  0  0
   20.5900   17.3945   23.6977 C   0  0  0  0  0  0  0  0  0  0  0  0
   20.3874   16.4679   24.2487 H   0  0  0  0  0  0  0  0  0  0  0  0
   21.2755   18.0045   24.2992 H   0  0  0  0  0  0  0  0  0  0  0  0
   21.1030   17.1135   22.7709 H   0  0  0  0  0  0  0  0  0  0  0  0
   19.5314   19.4990   22.6937 C   0  0  0  0  0  0  0  0  0  0  0  0
   18.5754   20.0332   22.6143 H   0  0  0  0  0  0  0  0  0  0  0  0
   20.1877   20.1271   23.3106 H   0  0  0  0  0  0  0  0  0  0  0  0
   20.1321   19.3534   21.2741 C   0  0  0  0  0  0  0  0  0  0  0  0
   19.5088   18.6741   20.6757 H   0  0  0  0  0  0  0  0  0  0  0  0
   21.1325   18.9038   21.3278 H   0  0  0  0  0  0  0  0  0  0  0  0
   20.2365   20.7168   20.5571 C   0  0  0  0  0  0  0  0  0  0  0  0
   19.2482   21.1814   20.4442 H   0  0  0  0  0  0  0  0  0  0  0  0
   20.6673   20.5956   19.5547 H   0  0  0  0  0  0  0  0  0  0  0  0
   20.8778   21.4095   21.1176 H   0  0  0  0  0  0  0  0  0  0  0  0
  1  2  1  0  0  0  0
  1  3  1  0  0  0  0
  1  4  1  0  0  0  0
  1  5  1  0  0  0  0
  5  6  1  0  0  0  0
  5  7  1  0  0  0  0
  7  8  1  0  0  0  0
  7  9  1  0  0  0  0
  7 10  1  0  0  0  0
  5 11  1  0  0  0  0
 11 12  1  0  0  0  0
 11 13  1  0  0  0  0
 11 14  1  0  0  0  0
 14 15  1  0  0  0  0
 14 16  1  0  0  0  0
 14 17  1  0  0  0  0
 17 18  1  0  0  0  0
 17 19  1  0  0  0  0
 17 20  1  0  0  0  0
M  END
> <VConfSearch Rank>
82

> <Conf_Id>
80

> <Delta U+W>
0.460

> <U+W>
-35.817

> <U>
22.495

> <W>
-58.311

> <W(PB)>
-60.259

> <W(SA)>
1.948

> <Valence>
2.419

> <Coulomb>
19.304

> <VdW>
0.772

> <VdW6>
-4.635

> <VdW12>
5.407

> <Bond>
0.149

> <Angle>
1.142

> <Pdih>
1.129

> <Idih>
0.000

> <Tether>
0.000

$$$$
VeraChem MOL file


 20 19  0  0  0  0  0  0  0  0999 V2000     
   19.6700   21.0602   21.7134 N   0  3  0  0  0  0  0  0  0  0  0  0
   19.8795   21.7948   22.3948 H   0  0  0  0  0  0  0  0  0  0  0  0
   18.6567   21.0525   21.5729 H   0  0  0  0  0  0  0  0  0  0  0  0
   20.0979   21.3397   20.8266 H   0  0  0  0  0  0  0  0  0  0  0  0
   20.1744   19.7184   22.1695 C   0  0  2  0  0  0  0  0  0  0  0  0
   21.2577   19.8220   22.2858 H   0  0  0  0  0  0  0  0  0  0  0  0
   19.9091   18.6550   21.0901 C   0  0  0  0  0  0  0  0  0  0  0  0
   20.2685   18.9976   20.1120 H   0  0  0  0  0  0  0  0  0  0  0  0
   18.8379   18.4356   21.0020 H   0  0  0  0  0  0  0  0  0  0  0  0
   20.4390   17.7233   21.3184 H   0  0  0  0  0  0  0  0  0  0  0  0
   19.5776   19.3394   23.5470 C   0  0  0  0  0  0  0  0  0  0  0  0
   19.7848   20.1695   24.2352 H   0  0  0  0  0  0  0  0  0  0  0  0
   18.4836   19.2725   23.4811 H   0  0  0  0  0  0  0  0  0  0  0  0
   20.1573   18.0463   24.1791 C   0  0  0  0  0  0  0  0  0  0  0  0
   20.2337   18.1915   25.2659 H   0  0  0  0  0  0  0  0  0  0  0  0
   21.1839   17.8751   23.8258 H   0  0  0  0  0  0  0  0  0  0  0  0
   19.2848   16.7940   23.9271 C   0  0  0  0  0  0  0  0  0  0  0  0
   18.2782   16.9272   24.3446 H   0  0  0  0  0  0  0  0  0  0  0  0
   19.7296   15.9131   24.4078 H   0  0  0  0  0  0  0  0  0  0  0  0
   19.1796   16.5714   22.8595 H   0  0  0  0  0  0  0  0  0  0  0  0
  1  2  1  0  0  0  0
  1  3  1  0  0  0  0
  1  4  1  0  0  0  0
  1  5  1  0  0  0  0
  5  6  1  0  0  0  0
  5  7  1  0  0  0  0
  7  8  1  0  0  0  0
  7  9  1  0  0  0  0
  7 10  1  0  0  0  0
  5 11  1  0  0  0  0
 11 12  1  0  0  0  0
 11 13  1  0  0  0  0
 11 14  1  0  0  0  0
 14 15  1  0  0  0  0
 14 16  1  0  0  0  0
 14 17  1  0  0  0  0
 17 18  1  0  0  0  0
 17 19  1  0  0  0  0
 17 20  1  0  0  0  0
M  END
> <VConfSearch Rank>
83

> <Conf_Id>
52

> <Delta U+W>
2.995

> <U+W>
-33.282

> <U>
25.224

> <W>
-58.506

> <W(PB)>
-60.411

> <W(SA)>
1.905

> <Valence>
4.945

> <Coulomb>
19.467

> <VdW>
0.813

> <VdW6>
-5.458

> <VdW12>
6.270

> <Bond>
0.200

> <Angle>
1.675

> <Pdih>
3.070

> <Idih>
0.000

> <Tether>
0.000

$$$$
VeraChem MOL file


 20 19  0  0  0  0  0  0  0  0999 V2000     
   19.4446   19.6241   24.2153 N   0  3  0  0  0  0  0  0  0  0  0  0
   18.6800   20.2874   24.0676 H   0  0  0  0  0  0  0  0  0  0  0  0
   19.9069   19.8801   25.0919 H   0  0  0  0  0  0  0  0  0  0  0  0
   19.0271   18.6999   24.3446 H   0  0  0  0  0  0  0  0  0  0  0  0
   20.4080   19.6314   23.0598 C   0  0  2  0  0  0  0  0  0  0  0  0
   21.2172   18.9386   23.3106 H   0  0  0  0  0  0  0  0  0  0  0  0
   21.0119   21.0361   22.8933 C   0  0  0  0  0  0  0  0  0  0  0  0
   20.2419   21.7701   22.6245 H   0  0  0  0  0  0  0  0  0  0  0  0
   21.7785   21.0418   22.1084 H   0  0  0  0  0  0  0  0  0  0  0  0
   21.4895   21.3668   23.8238 H   0  0  0  0  0  0  0  0  0  0  0  0
   19.7597   19.1624   21.7354 C   0  0  0  0  0  0  0  0  0  0  0  0
   18.7983   19.6719   21.5882 H   0  0  0  0  0  0  0  0  0  0  0  0
   20.3986   19.4811   20.9010 H   0  0  0  0  0  0  0  0  0  0  0  0
   19.5756   17.6272   21.6094 C   0  0  0  0  0  0  0  0  0  0  0  0
   20.5495   17.1280   21.7109 H   0  0  0  0  0  0  0  0  0  0  0  0
   19.2279   17.4069   20.5903 H   0  0  0  0  0  0  0  0  0  0  0  0
   18.5725   17.0091   22.6098 C   0  0  0  0  0  0  0  0  0  0  0  0
   18.3474   15.9720   22.3286 H   0  0  0  0  0  0  0  0  0  0  0  0
   17.6248   17.5634   22.6195 H   0  0  0  0  0  0  0  0  0  0  0  0
   18.9803   16.9822   23.6269 H   0  0  0  0  0  0  0  0  0  0  0  0
  1  2  1  0  0  0  0
  1  3  1  0  0  0  0
  1  4  1  0  0  0  0
  1  5  1  0  0  0  0
  5  6  1  0  0  0  0
  5  7  1  0  0  0  0
  7  8  1  0  0  0  0
  7  9  1  0  0  0  0
  7 10  1  0  0  0  0
  5 11  1  0  0  0  0
 11 12  1  0  0  0  0
 11 13  1  0  0  0  0
 11 14  1  0  0  0  0
 14 15  1  0  0  0  0
 14 16  1  0  0  0  0
 14 17  1  0  0  0  0
 17 18  1  0  0  0  0
 17 19  1  0  0  0  0
 17 20  1  0  0  0  0
M  END
> <VConfSearch Rank>
84

> <Conf_Id>
54

> <Delta U+W>
2.752

> <U+W>
-33.525

> <U>
24.337

> <W>
-57.862

> <W(PB)>
-59.764

> <W(SA)>
1.901

> <Valence>
3.593

> <Coulomb>
20.067

> <VdW>
0.677

> <VdW6>
-5.466

> <VdW12>
6.144

> <Bond>
0.191

> <Angle>
1.557

> <Pdih>
1.845

> <Idih>
0.000

> <Tether>
0.000

$$$$
VeraChem MOL file


 20 19  0  0  0  0  0  0  0  0999 V2000     
   19.1769   20.8206   23.3689 N   0  3  0  0  0  0  0  0  0  0  0  0
   18.3860   21.3689   23.7174 H   0  0  0  0  0  0  0  0  0  0  0  0
   19.8019   21.4664   22.8790 H   0  0  0  0  0  0  0  0  0  0  0  0
   19.6819   20.4620   24.1825 H   0  0  0  0  0  0  0  0  0  0  0  0
   18.7194   19.7043   22.4697 C   0  0  2  0  0  0  0  0  0  0  0  0
   18.1799   20.1815   21.6455 H   0  0  0  0  0  0  0  0  0  0  0  0
   17.7288   18.7784   23.1978 C   0  0  0  0  0  0  0  0  0  0  0  0
   17.3990   17.9651   22.5396 H   0  0  0  0  0  0  0  0  0  0  0  0
   16.8371   19.3377   23.5064 H   0  0  0  0  0  0  0  0  0  0  0  0
   18.1729   18.3348   24.0967 H   0  0  0  0  0  0  0  0  0  0  0  0
   19.9010   18.9201   21.8501 C   0  0  0  0  0  0  0  0  0  0  0  0
   19.5021   18.1842   21.1394 H   0  0  0  0  0  0  0  0  0  0  0  0
   20.5055   19.6166   21.2545 H   0  0  0  0  0  0  0  0  0  0  0  0
   20.8163   18.1991   22.8732 C   0  0  0  0  0  0  0  0  0  0  0  0
   20.2393   17.4596   23.4444 H   0  0  0  0  0  0  0  0  0  0  0  0
   21.2167   18.9204   23.5982 H   0  0  0  0  0  0  0  0  0  0  0  0
   21.9921   17.4828   22.1748 C   0  0  0  0  0  0  0  0  0  0  0  0
   22.6295   16.9757   22.9108 H   0  0  0  0  0  0  0  0  0  0  0  0
   22.6181   18.1961   21.6229 H   0  0  0  0  0  0  0  0  0  0  0  0
   21.6295   16.7268   21.4662 H   0  0  0  0  0  0  0  0  0  0  0  0
  1  2  1  0  0  0  0
  1  3  1  0  0  0  0
  1  4  1  0  0  0  0
  1  5  1  0  0  0  0
  5  6  1  0  0  0  0
  5  7  1  0  0  0  0
  7  8  1  0  0  0  0
  7  9  1  0  0  0  0
  7 10  1  0  0  0  0
  5 11  1  0  0  0  0
 11 12  1  0  0  0  0
 11 13  1  0  0  0  0
 11 14  1  0  0  0  0
 14 15  1  0  0  0  0
 14 16  1  0  0  0  0
 14 17  1  0  0  0  0
 17 18  1  0  0  0  0
 17 19  1  0  0  0  0
 17 20  1  0  0  0  0
M  END
> <VConfSearch Rank>
85

> <Conf_Id>
63

> <Delta U+W>
0.420

> <U+W>
-35.856

> <U>
22.625

> <W>
-58.481

> <W(PB)>
-60.400

> <W(SA)>
1.919

> <Valence>
2.404

> <Coulomb>
19.464

> <VdW>
0.757

> <VdW6>
-5.074

> <VdW12>
5.830

> <Bond>
0.172

> <Angle>
1.207

> <Pdih>
1.025

> <Idih>
0.000

> <Tether>
0.000

$$$$
VeraChem MOL file


 20 19  0  0  0  0  0  0  0  0999 V2000     
   18.5274   19.7818   23.8364 N   0  3  0  0  0  0  0  0  0  0  0  0
   18.0054   19.9764   22.9782 H   0  0  0  0  0  0  0  0  0  0  0  0
   18.9096   20.6692   24.1724 H   0  0  0  0  0  0  0  0  0  0  0  0
   17.8555   19.4538   24.5353 H   0  0  0  0  0  0  0  0  0  0  0  0
   19.6142   18.7688   23.5975 C   0  0  2  0  0  0  0  0  0  0  0  0
   19.1225   17.8568   23.2459 H   0  0  0  0  0  0  0  0  0  0  0  0
   20.3489   18.4413   24.9076 C   0  0  0  0  0  0  0  0  0  0  0  0
   19.6455   18.0782   25.6670 H   0  0  0  0  0  0  0  0  0  0  0  0
   20.8589   19.3258   25.3093 H   0  0  0  0  0  0  0  0  0  0  0  0
   21.0995   17.6573   24.7480 H   0  0  0  0  0  0  0  0  0  0  0  0
   20.6199   19.2249   22.5160 C   0  0  0  0  0  0  0  0  0  0  0  0
   21.1364   20.1316   22.8581 H   0  0  0  0  0  0  0  0  0  0  0  0
   21.3950   18.4554   22.4018 H   0  0  0  0  0  0  0  0  0  0  0  0
   19.9822   19.4972   21.1300 C   0  0  0  0  0  0  0  0  0  0  0  0
   20.7714   19.8179   20.4357 H   0  0  0  0  0  0  0  0  0  0  0  0
   19.2776   20.3375   21.1943 H   0  0  0  0  0  0  0  0  0  0  0  0
   19.2671   18.2610   20.5386 C   0  0  0  0  0  0  0  0  0  0  0  0
   19.9527   17.4067   20.4644 H   0  0  0  0  0  0  0  0  0  0  0  0
   18.8940   18.4788   19.5295 H   0  0  0  0  0  0  0  0  0  0  0  0
   18.4079   17.9588   21.1504 H   0  0  0  0  0  0  0  0  0  0  0  0
  1  2  1  0  0  0  0
  1  3  1  0  0  0  0
  1  4  1  0  0  0  0
  1  5  1  0  0  0  0
  5  6  1  0  0  0  0
  5  7  1  0  0  0  0
  7  8  1  0  0  0  0
  7  9  1  0  0  0  0
  7 10  1  0  0  0  0
  5 11  1  0  0  0  0
 11 12  1  0  0  0  0
 11 13  1  0  0  0  0
 11 14  1  0  0  0  0
 14 15  1  0  0  0  0
 14 16  1  0  0  0  0
 14 17  1  0  0  0  0
 17 18  1  0  0  0  0
 17 19  1  0  0  0  0
 17 20  1  0  0  0  0
M  END
> <VConfSearch Rank>
86

> <Conf_Id>
50

> <Delta U+W>
0.466

> <U+W>
-35.811

> <U>
22.369

> <W>
-58.180

> <W(PB)>
-60.103

> <W(SA)>
1.923

> <Valence>
2.168

> <Coulomb>
19.636

> <VdW>
0.566

> <VdW6>
-5.263

> <VdW12>
5.829

> <Bond>
0.162

> <Angle>
1.066

> <Pdih>
0.939

> <Idih>
0.000

> <Tether>
0.000

$$$$
VeraChem MOL file


 20 19  0  0  0  0  0  0  0  0999 V2000     
   21.0713   20.7229   22.4558 N   0  3  0  0  0  0  0  0  0  0  0  0
   20.4416   21.4750   22.1629 H   0  0  0  0  0  0  0  0  0  0  0  0
   21.6791   20.5046   21.6622 H   0  0  0  0  0  0  0  0  0  0  0  0
   21.6655   21.0989   23.1997 H   0  0  0  0  0  0  0  0  0  0  0  0
   20.3100   19.5104   22.9191 C   0  0  2  0  0  0  0  0  0  0  0  0
   19.6920   19.8413   23.7595 H   0  0  0  0  0  0  0  0  0  0  0  0
   21.2896   18.4331   23.4207 C   0  0  0  0  0  0  0  0  0  0  0  0
   21.9623   18.1060   22.6180 H   0  0  0  0  0  0  0  0  0  0  0  0
   20.7604   17.5506   23.7961 H   0  0  0  0  0  0  0  0  0  0  0  0
   21.9053   18.8226   24.2406 H   0  0  0  0  0  0  0  0  0  0  0  0
   19.3705   18.9617   21.8170 C   0  0  0  0  0  0  0  0  0  0  0  0
   19.2270   19.7341   21.0498 H   0  0  0  0  0  0  0  0  0  0  0  0
   19.8401   18.1148   21.2992 H   0  0  0  0  0  0  0  0  0  0  0  0
   17.9661   18.5582   22.3333 C   0  0  0  0  0  0  0  0  0  0  0  0
   17.3496   18.2576   21.4745 H   0  0  0  0  0  0  0  0  0  0  0  0
   17.4702   19.4354   22.7724 H   0  0  0  0  0  0  0  0  0  0  0  0
   17.9779   17.4072   23.3635 C   0  0  0  0  0  0  0  0  0  0  0  0
   18.5050   16.5284   22.9700 H   0  0  0  0  0  0  0  0  0  0  0  0
   16.9524   17.1006   23.6074 H   0  0  0  0  0  0  0  0  0  0  0  0
   18.4598   17.7127   24.3005 H   0  0  0  0  0  0  0  0  0  0  0  0
  1  2  1  0  0  0  0
  1  3  1  0  0  0  0
  1  4  1  0  0  0  0
  1  5  1  0  0  0  0
  5  6  1  0  0  0  0
  5  7  1  0  0  0  0
  7  8  1  0  0  0  0
  7  9  1  0  0  0  0
  7 10  1  0  0  0  0
  5 11  1  0  0  0  0
 11 12  1  0  0  0  0
 11 13  1  0  0  0  0
 11 14  1  0  0  0  0
 14 15  1  0  0  0  0
 14 16  1  0  0  0  0
 14 17  1  0  0  0  0
 17 18  1  0  0  0  0
 17 19  1  0  0  0  0
 17 20  1  0  0  0  0
M  END
> <VConfSearch Rank>
87

> <Conf_Id>
3

> <Delta U+W>
3.093

> <U+W>
-33.184

> <U>
25.256

> <W>
-58.439

> <W(PB)>
-60.337

> <W(SA)>
1.898

> <Valence>
4.963

> <Coulomb>
19.511

> <VdW>
0.782

> <VdW6>
-5.429

> <VdW12>
6.211

> <Bond>
0.174

> <Angle>
1.377

> <Pdih>
3.412

> <Idih>
0.000

> <Tether>
0.000

$$$$
VeraChem MOL file


 20 19  0  0  0  0  0  0  0  0999 V2000     
   21.8383   19.1557   22.0700 N   0  3  0  0  0  0  0  0  0  0  0  0
   22.6359   19.1248   22.7108 H   0  0  0  0  0  0  0  0  0  0  0  0
   21.8503   20.0732   21.6163 H   0  0  0  0  0  0  0  0  0  0  0  0
   22.0038   18.4532   21.3449 H   0  0  0  0  0  0  0  0  0  0  0  0
   20.5419   18.9099   22.7919 C   0  0  2  0  0  0  0  0  0  0  0  0
   20.4546   19.7007   23.5430 H   0  0  0  0  0  0  0  0  0  0  0  0
   20.5818   17.5526   23.5173 C   0  0  0  0  0  0  0  0  0  0  0  0
   19.7041   17.4193   24.1603 H   0  0  0  0  0  0  0  0  0  0  0  0
   21.4681   17.4835   24.1599 H   0  0  0  0  0  0  0  0  0  0  0  0
   20.6141   16.7210   22.8025 H   0  0  0  0  0  0  0  0  0  0  0  0
   19.3354   19.0188   21.8291 C   0  0  0  0  0  0  0  0  0  0  0  0
   19.4055   19.9695   21.2843 H   0  0  0  0  0  0  0  0  0  0  0  0
   19.4033   18.2277   21.0706 H   0  0  0  0  0  0  0  0  0  0  0  0
   17.9448   18.9488   22.5105 C   0  0  0  0  0  0  0  0  0  0  0  0
   17.7867   17.9566   22.9542 H   0  0  0  0  0  0  0  0  0  0  0  0
   17.1693   19.0596   21.7397 H   0  0  0  0  0  0  0  0  0  0  0  0
   17.7414   20.0405   23.5857 C   0  0  0  0  0  0  0  0  0  0  0  0
   17.8972   21.0426   23.1656 H   0  0  0  0  0  0  0  0  0  0  0  0
   18.4319   19.9101   24.4285 H   0  0  0  0  0  0  0  0  0  0  0  0
   16.7200   20.0003   23.9861 H   0  0  0  0  0  0  0  0  0  0  0  0
  1  2  1  0  0  0  0
  1  3  1  0  0  0  0
  1  4  1  0  0  0  0
  1  5  1  0  0  0  0
  5  6  1  0  0  0  0
  5  7  1  0  0  0  0
  7  8  1  0  0  0  0
  7  9  1  0  0  0  0
  7 10  1  0  0  0  0
  5 11  1  0  0  0  0
 11 12  1  0  0  0  0
 11 13  1  0  0  0  0
 11 14  1  0  0  0  0
 14 15  1  0  0  0  0
 14 16  1  0  0  0  0
 14 17  1  0  0  0  0
 17 18  1  0  0  0  0
 17 19  1  0  0  0  0
 17 20  1  0  0  0  0
M  END
> <VConfSearch Rank>
88

> <Conf_Id>
64

> <Delta U+W>
0.544

> <U+W>
-35.732

> <U>
22.800

> <W>
-58.532

> <W(PB)>
-60.437

> <W(SA)>
1.905

> <Valence>
2.662

> <Coulomb>
19.485

> <VdW>
0.653

> <VdW6>
-5.460

> <VdW12>
6.113

> <Bond>
0.174

> <Angle>
1.378

> <Pdih>
1.109

> <Idih>
0.000

> <Tether>
0.000

$$$$
VeraChem MOL file


 20 19  0  0  0  0  0  0  0  0999 V2000     
   18.3886   17.3991   23.1448 N   0  3  0  0  0  0  0  0  0  0  0  0
   18.7979   17.5844   24.0632 H   0  0  0  0  0  0  0  0  0  0  0  0
   18.3781   16.3841   23.0140 H   0  0  0  0  0  0  0  0  0  0  0  0
   17.4142   17.7114   23.1740 H   0  0  0  0  0  0  0  0  0  0  0  0
   19.1580   18.0872   22.0496 C   0  0  2  0  0  0  0  0  0  0  0  0
   18.6529   17.8203   21.1160 H   0  0  0  0  0  0  0  0  0  0  0  0
   20.5945   17.5459   21.9655 C   0  0  0  0  0  0  0  0  0  0  0  0
   21.1223   17.6580   22.9197 H   0  0  0  0  0  0  0  0  0  0  0  0
   21.1642   18.0682   21.1871 H   0  0  0  0  0  0  0  0  0  0  0  0
   20.5872   16.4787   21.7125 H   0  0  0  0  0  0  0  0  0  0  0  0
   19.1000   19.6310   22.1688 C   0  0  0  0  0  0  0  0  0  0  0  0
   19.5215   20.0825   21.2611 H   0  0  0  0  0  0  0  0  0  0  0  0
   18.0408   19.9203   22.1690 H   0  0  0  0  0  0  0  0  0  0  0  0
   19.7733   20.2487   23.4259 C   0  0  0  0  0  0  0  0  0  0  0  0
   19.7139   19.5613   24.2799 H   0  0  0  0  0  0  0  0  0  0  0  0
   19.2035   21.1412   23.7203 H   0  0  0  0  0  0  0  0  0  0  0  0
   21.2399   20.6815   23.1919 C   0  0  0  0  0  0  0  0  0  0  0  0
   21.8855   19.8342   22.9363 H   0  0  0  0  0  0  0  0  0  0  0  0
   21.6505   21.1485   24.0964 H   0  0  0  0  0  0  0  0  0  0  0  0
   21.3078   21.4163   22.3792 H   0  0  0  0  0  0  0  0  0  0  0  0
  1  2  1  0  0  0  0
  1  3  1  0  0  0  0
  1  4  1  0  0  0  0
  1  5  1  0  0  0  0
  5  6  1  0  0  0  0
  5  7  1  0  0  0  0
  7  8  1  0  0  0  0
  7  9  1  0  0  0  0
  7 10  1  0  0  0  0
  5 11  1  0  0  0  0
 11 12  1  0  0  0  0
 11 13  1  0  0  0  0
 11 14  1  0  0  0  0
 14 15  1  0  0  0  0
 14 16  1  0  0  0  0
 14 17  1  0  0  0  0
 17 18  1  0  0  0  0
 17 19  1  0  0  0  0
 17 20  1  0  0  0  0
M  END
> <VConfSearch Rank>
89

> <Conf_Id>
35

> <Delta U+W>
3.004

> <U+W>
-33.272

> <U>
25.367

> <W>
-58.639

> <W(PB)>
-60.512

> <W(SA)>
1.873

> <Valence>
4.943

> <Coulomb>
19.661

> <VdW>
0.764

> <VdW6>
-5.871

> <VdW12>
6.636

> <Bond>
0.230

> <Angle>
1.857

> <Pdih>
2.855

> <Idih>
0.000

> <Tether>
0.000

$$$$
VeraChem MOL file


 20 19  0  0  0  0  0  0  0  0999 V2000     
   20.4730   17.7245   23.7843 N   0  3  0  0  0  0  0  0  0  0  0  0
   20.6415   17.5925   24.7852 H   0  0  0  0  0  0  0  0  0  0  0  0
   21.0474   17.0395   23.2858 H   0  0  0  0  0  0  0  0  0  0  0  0
   19.4945   17.4940   23.6016 H   0  0  0  0  0  0  0  0  0  0  0  0
   20.7915   19.1294   23.3515 C   0  0  2  0  0  0  0  0  0  0  0  0
   21.8566   19.2632   23.5647 H   0  0  0  0  0  0  0  0  0  0  0  0
   20.0225   20.1639   24.1924 C   0  0  0  0  0  0  0  0  0  0  0  0
   18.9376   20.0318   24.1039 H   0  0  0  0  0  0  0  0  0  0  0  0
   20.2721   21.1844   23.8768 H   0  0  0  0  0  0  0  0  0  0  0  0
   20.2865   20.0698   25.2528 H   0  0  0  0  0  0  0  0  0  0  0  0
   20.6079   19.3519   21.8283 C   0  0  0  0  0  0  0  0  0  0  0  0
   21.1471   20.2697   21.5593 H   0  0  0  0  0  0  0  0  0  0  0  0
   21.1192   18.5452   21.2871 H   0  0  0  0  0  0  0  0  0  0  0  0
   19.1528   19.4833   21.2972 C   0  0  0  0  0  0  0  0  0  0  0  0
   19.2026   19.6808   20.2172 H   0  0  0  0  0  0  0  0  0  0  0  0
   18.6655   20.3648   21.7354 H   0  0  0  0  0  0  0  0  0  0  0  0
   18.2688   18.2354   21.5214 C   0  0  0  0  0  0  0  0  0  0  0  0
   18.7696   17.3241   21.1694 H   0  0  0  0  0  0  0  0  0  0  0  0
   17.3268   18.3326   20.9661 H   0  0  0  0  0  0  0  0  0  0  0  0
   18.0070   18.1107   22.5784 H   0  0  0  0  0  0  0  0  0  0  0  0
  1  2  1  0  0  0  0
  1  3  1  0  0  0  0
  1  4  1  0  0  0  0
  1  5  1  0  0  0  0
  5  6  1  0  0  0  0
  5  7  1  0  0  0  0
  7  8  1  0  0  0  0
  7  9  1  0  0  0  0
  7 10  1  0  0  0  0
  5 11  1  0  0  0  0
 11 12  1  0  0  0  0
 11 13  1  0  0  0  0
 11 14  1  0  0  0  0
 14 15  1  0  0  0  0
 14 16  1  0  0  0  0
 14 17  1  0  0  0  0
 17 18  1  0  0  0  0
 17 19  1  0  0  0  0
 17 20  1  0  0  0  0
M  END
> <VConfSearch Rank>
90

> <Conf_Id>
55

> <Delta U+W>
2.767

> <U+W>
-33.509

> <U>
24.552

> <W>
-58.061

> <W(PB)>
-59.930

> <W(SA)>
1.869

> <Valence>
3.726

> <Coulomb>
20.219

> <VdW>
0.606

> <VdW6>
-6.395

> <VdW12>
7.001

> <Bond>
0.241

> <Angle>
2.098

> <Pdih>
1.387

> <Idih>
0.000

> <Tether>
0.000

$$$$
VeraChem MOL file


 20 19  0  0  0  0  0  0  0  0999 V2000     
   20.9094   17.6262   21.8428 N   0  3  0  0  0  0  0  0  0  0  0  0
   21.1472   18.1804   21.0165 H   0  0  0  0  0  0  0  0  0  0  0  0
   21.0230   16.6403   21.5921 H   0  0  0  0  0  0  0  0  0  0  0  0
   21.6025   17.8376   22.5650 H   0  0  0  0  0  0  0  0  0  0  0  0
   19.5109   17.9161   22.3175 C   0  0  2  0  0  0  0  0  0  0  0  0
   19.3415   17.2900   23.1990 H   0  0  0  0  0  0  0  0  0  0  0  0
   18.4836   17.5227   21.2434 C   0  0  0  0  0  0  0  0  0  0  0  0
   18.5897   16.4649   20.9732 H   0  0  0  0  0  0  0  0  0  0  0  0
   18.6107   18.1222   20.3333 H   0  0  0  0  0  0  0  0  0  0  0  0
   17.4601   17.6707   21.6096 H   0  0  0  0  0  0  0  0  0  0  0  0
   19.3181   19.3923   22.7297 C   0  0  0  0  0  0  0  0  0  0  0  0
   19.5060   20.0448   21.8666 H   0  0  0  0  0  0  0  0  0  0  0  0
   18.2690   19.5461   23.0154 H   0  0  0  0  0  0  0  0  0  0  0  0
   20.2239   19.8144   23.9116 C   0  0  0  0  0  0  0  0  0  0  0  0
   21.2819   19.7231   23.6308 H   0  0  0  0  0  0  0  0  0  0  0  0
   20.0610   19.1383   24.7628 H   0  0  0  0  0  0  0  0  0  0  0  0
   19.9453   21.2674   24.3525 C   0  0  0  0  0  0  0  0  0  0  0  0
   20.1289   21.9717   23.5306 H   0  0  0  0  0  0  0  0  0  0  0  0
   20.5966   21.5502   25.1897 H   0  0  0  0  0  0  0  0  0  0  0  0
   18.9046   21.3887   24.6805 H   0  0  0  0  0  0  0  0  0  0  0  0
  1  2  1  0  0  0  0
  1  3  1  0  0  0  0
  1  4  1  0  0  0  0
  1  5  1  0  0  0  0
  5  6  1  0  0  0  0
  5  7  1  0  0  0  0
  7  8  1  0  0  0  0
  7  9  1  0  0  0  0
  7 10  1  0  0  0  0
  5 11  1  0  0  0  0
 11 12  1  0  0  0  0
 11 13  1  0  0  0  0
 11 14  1  0  0  0  0
 14 15  1  0  0  0  0
 14 16  1  0  0  0  0
 14 17  1  0  0  0  0
 17 18  1  0  0  0  0
 17 19  1  0  0  0  0
 17 20  1  0  0  0  0
M  END
> <VConfSearch Rank>
91

> <Conf_Id>
74

> <Delta U+W>
0.000

> <U+W>
-36.276

> <U>
22.080

> <W>
-58.356

> <W(PB)>
-60.289

> <W(SA)>
1.932

> <Valence>
1.885

> <Coulomb>
19.559

> <VdW>
0.637

> <VdW6>
-4.482

> <VdW12>
5.119

> <Bond>
0.136

> <Angle>
0.867

> <Pdih>
0.882

> <Idih>
0.000

> <Tether>
0.000

$$$$
VeraChem MOL file


 20 19  0  0  0  0  0  0  0  0999 V2000     
   18.2101   19.1765   24.5425 N   0  3  0  0  0  0  0  0  0  0  0  0
   17.8104   18.2363   24.6064 H   0  0  0  0  0  0  0  0  0  0  0  0
   17.5218   19.7708   24.0738 H   0  0  0  0  0  0  0  0  0  0  0  0
   18.3132   19.5265   25.4988 H   0  0  0  0  0  0  0  0  0  0  0  0
   19.5253   19.1728   23.8126 C   0  0  2  0  0  0  0  0  0  0  0  0
   20.1926   18.5194   24.3834 H   0  0  0  0  0  0  0  0  0  0  0  0
   20.1299   20.5887   23.7946 C   0  0  0  0  0  0  0  0  0  0  0  0
   20.1784   21.0010   24.8100 H   0  0  0  0  0  0  0  0  0  0  0  0
   19.5285   21.2697   23.1798 H   0  0  0  0  0  0  0  0  0  0  0  0
   21.1524   20.5814   23.3999 H   0  0  0  0  0  0  0  0  0  0  0  0
   19.3739   18.5854   22.3901 C   0  0  0  0  0  0  0  0  0  0  0  0
   18.8412   17.6281   22.4645 H   0  0  0  0  0  0  0  0  0  0  0  0
   18.7415   19.2463   21.7825 H   0  0  0  0  0  0  0  0  0  0  0  0
   20.7213   18.3429   21.6669 C   0  0  0  0  0  0  0  0  0  0  0  0
   21.3788   17.7334   22.3026 H   0  0  0  0  0  0  0  0  0  0  0  0
   21.2385   19.2962   21.4948 H   0  0  0  0  0  0  0  0  0  0  0  0
   20.5201   17.6334   20.3105 C   0  0  0  0  0  0  0  0  0  0  0  0
   20.0431   16.6536   20.4431 H   0  0  0  0  0  0  0  0  0  0  0  0
   21.4840   17.4729   19.8102 H   0  0  0  0  0  0  0  0  0  0  0  0
   19.8893   18.2328   19.6411 H   0  0  0  0  0  0  0  0  0  0  0  0
  1  2  1  0  0  0  0
  1  3  1  0  0  0  0
  1  4  1  0  0  0  0
  1  5  1  0  0  0  0
  5  6  1  0  0  0  0
  5  7  1  0  0  0  0
  7  8  1  0  0  0  0
  7  9  1  0  0  0  0
  7 10  1  0  0  0  0
  5 11  1  0  0  0  0
 11 12  1  0  0  0  0
 11 13  1  0  0  0  0
 11 14  1  0  0  0  0
 14 15  1  0  0  0  0
 14 16  1  0  0  0  0
 14 17  1  0  0  0  0
 17 18  1  0  0  0  0
 17 19  1  0  0  0  0
 17 20  1  0  0  0  0
M  END
> <VConfSearch Rank>
92

> <Conf_Id>
80

> <Delta U+W>
0.460

> <U+W>
-35.817

> <U>
22.495

> <W>
-58.311

> <W(PB)>
-60.259

> <W(SA)>
1.948

> <Valence>
2.419

> <Coulomb>
19.304

> <VdW>
0.772

> <VdW6>
-4.635

> <VdW12>
5.407

> <Bond>
0.149

> <Angle>
1.142

> <Pdih>
1.129

> <Idih>
0.000

> <Tether>
0.000

$$$$
VeraChem MOL file


 20 19  0  0  0  0  0  0  0  0999 V2000     
   18.3993   20.5834   21.7044 N   0  3  0  0  0  0  0  0  0  0  0  0
   18.9767   21.2715   21.2136 H   0  0  0  0  0  0  0  0  0  0  0  0
   18.1046   21.0054   22.5886 H   0  0  0  0  0  0  0  0  0  0  0  0
   17.5572   20.4386   21.1410 H   0  0  0  0  0  0  0  0  0  0  0  0
   19.1407   19.2938   21.9282 C   0  0  2  0  0  0  0  0  0  0  0  0
   19.4073   18.9177   20.9356 H   0  0  0  0  0  0  0  0  0  0  0  0
   18.2204   18.2603   22.5997 C   0  0  0  0  0  0  0  0  0  0  0  0
   17.2683   18.1812   22.0607 H   0  0  0  0  0  0  0  0  0  0  0  0
   18.0021   18.5369   23.6386 H   0  0  0  0  0  0  0  0  0  0  0  0
   18.6773   17.2642   22.5919 H   0  0  0  0  0  0  0  0  0  0  0  0
   20.4505   19.5357   22.7176 C   0  0  0  0  0  0  0  0  0  0  0  0
   21.0187   20.3090   22.1838 H   0  0  0  0  0  0  0  0  0  0  0  0
   20.2255   19.9594   23.7053 H   0  0  0  0  0  0  0  0  0  0  0  0
   21.3674   18.2924   22.8631 C   0  0  0  0  0  0  0  0  0  0  0  0
   22.4145   18.6193   22.7944 H   0  0  0  0  0  0  0  0  0  0  0  0
   21.2121   17.6024   22.0217 H   0  0  0  0  0  0  0  0  0  0  0  0
   21.1884   17.5504   24.2086 C   0  0  0  0  0  0  0  0  0  0  0  0
   21.4155   18.2123   25.0544 H   0  0  0  0  0  0  0  0  0  0  0  0
   21.8696   16.6915   24.2671 H   0  0  0  0  0  0  0  0  0  0  0  0
   20.1680   17.1737   24.3405 H   0  0  0  0  0  0  0  0  0  0  0  0
  1  2  1  0  0  0  0
  1  3  1  0  0  0  0
  1  4  1  0  0  0  0
  1  5  1  0  0  0  0
  5  6  1  0  0  0  0
  5  7  1  0  0  0  0
  7  8  1  0  0  0  0
  7  9  1  0  0  0  0
  7 10  1  0  0  0  0
  5 11  1  0  0  0  0
 11 12  1  0  0  0  0
 11 13  1  0  0  0  0
 11 14  1  0  0  0  0
 14 15  1  0  0  0  0
 14 16  1  0  0  0  0
 14 17  1  0  0  0  0
 17 18  1  0  0  0  0
 17 19  1  0  0  0  0
 17 20  1  0  0  0  0
M  END
> <VConfSearch Rank>
93

> <Conf_Id>
52

> <Delta U+W>
2.995

> <U+W>
-33.282

> <U>
25.224

> <W>
-58.506

> <W(PB)>
-60.411

> <W(SA)>
1.905

> <Valence>
4.945

> <Coulomb>
19.467

> <VdW>
0.813

> <VdW6>
-5.458

> <VdW12>
6.270

> <Bond>
0.200

> <Angle>
1.675

> <Pdih>
3.070

> <Idih>
0.000

> <Tether>
0.000

$$$$
VeraChem MOL file


 20 19  0  0  0  0  0  0  0  0999 V2000     
   20.1301   19.9266   24.0309 N   0  3  0  0  0  0  0  0  0  0  0  0
   19.6200   20.8017   23.8884 H   0  0  0  0  0  0  0  0  0  0  0  0
   20.8964   20.1214   24.6810 H   0  0  0  0  0  0  0  0  0  0  0  0
   19.4932   19.2727   24.4909 H   0  0  0  0  0  0  0  0  0  0  0  0
   20.6381   19.3696   22.7290 C   0  0  2  0  0  0  0  0  0  0  0  0
   21.2101   18.4672   22.9659 H   0  0  0  0  0  0  0  0  0  0  0  0
   21.5882   20.3804   22.0646 C   0  0  0  0  0  0  0  0  0  0  0  0
   21.0592   21.3020   21.7910 H   0  0  0  0  0  0  0  0  0  0  0  0
   22.0337   19.9590   21.1548 H   0  0  0  0  0  0  0  0  0  0  0  0
   22.4091   20.6457   22.7420 H   0  0  0  0  0  0  0  0  0  0  0  0
   19.4983   18.9814   21.7572 C   0  0  0  0  0  0  0  0  0  0  0  0
   18.7619   19.7939   21.7001 H   0  0  0  0  0  0  0  0  0  0  0  0
   19.9174   18.8854   20.7467 H   0  0  0  0  0  0  0  0  0  0  0  0
   18.7905   17.6410   22.0874 C   0  0  0  0  0  0  0  0  0  0  0  0
   19.5273   16.8256   22.0960 H   0  0  0  0  0  0  0  0  0  0  0  0
   18.0945   17.4108   21.2685 H   0  0  0  0  0  0  0  0  0  0  0  0
   17.9985   17.6346   23.4148 C   0  0  0  0  0  0  0  0  0  0  0  0
   17.3702   16.7365   23.4767 H   0  0  0  0  0  0  0  0  0  0  0  0
   17.3374   18.5079   23.4900 H   0  0  0  0  0  0  0  0  0  0  0  0
   18.6662   17.6170   24.2839 H   0  0  0  0  0  0  0  0  0  0  0  0
  1  2  1  0  0  0  0
  1  3  1  0  0  0  0
  1  4  1  0  0  0  0
  1  5  1  0  0  0  0
  5  6  1  0  0  0  0
  5  7  1  0  0  0  0
  7  8  1  0  0  0  0
  7  9  1  0  0  0  0
  7 10  1  0  0  0  0
  5 11  1  0  0  0  0
 11 12  1  0  0  0  0
 11 13  1  0  0  0  0
 11 14  1  0  0  0  0
 14 15  1  0  0  0  0
 14 16  1  0  0  0  0
 14 17  1  0  0  0  0
 17 18  1  0  0  0  0
 17 19  1  0  0  0  0
 17 20  1  0  0  0  0
M  END
> <VConfSearch Rank>
94

> <Conf_Id>
54

> <Delta U+W>
2.752

> <U+W>
-33.525

> <U>
24.337

> <W>
-57.862

> <W(PB)>
-59.764

> <W(SA)>
1.901

> <Valence>
3.593

> <Coulomb>
20.067

> <VdW>
0.677

> <VdW6>
-5.466

> <VdW12>
6.144

> <Bond>
0.191

> <Angle>
1.557

> <Pdih>
1.845

> <Idih>
0.000

> <Tether>
0.000

$$$$
VeraChem MOL file


 20 19  0  0  0  0  0  0  0  0999 V2000     
   19.0812   18.9304   20.7447 N   0  3  0  0  0  0  0  0  0  0  0  0
   18.9052   19.5097   19.9194 H   0  0  0  0  0  0  0  0  0  0  0  0
   18.4066   18.1608   20.7250 H   0  0  0  0  0  0  0  0  0  0  0  0
   20.0137   18.5245   20.6397 H   0  0  0  0  0  0  0  0  0  0  0  0
   18.9696   19.7313   22.0136 C   0  0  2  0  0  0  0  0  0  0  0  0
   17.9525   20.1354   22.0280 H   0  0  0  0  0  0  0  0  0  0  0  0
   19.9422   20.9241   22.0019 C   0  0  0  0  0  0  0  0  0  0  0  0
   19.8591   21.5044   22.9292 H   0  0  0  0  0  0  0  0  0  0  0  0
   19.7127   21.5978   21.1673 H   0  0  0  0  0  0  0  0  0  0  0  0
   20.9833   20.5984   21.8921 H   0  0  0  0  0  0  0  0  0  0  0  0
   19.1337   18.8592   23.2815 C   0  0  0  0  0  0  0  0  0  0  0  0
   18.9523   19.4845   24.1658 H   0  0  0  0  0  0  0  0  0  0  0  0
   18.3426   18.0980   23.2838 H   0  0  0  0  0  0  0  0  0  0  0  0
   20.5112   18.1614   23.4223 C   0  0  0  0  0  0  0  0  0  0  0  0
   21.3131   18.9100   23.4740 H   0  0  0  0  0  0  0  0  0  0  0  0
   20.7128   17.5385   22.5405 H   0  0  0  0  0  0  0  0  0  0  0  0
   20.5718   17.2775   24.6866 C   0  0  0  0  0  0  0  0  0  0  0  0
   21.5526   16.7922   24.7738 H   0  0  0  0  0  0  0  0  0  0  0  0
   19.8083   16.4892   24.6549 H   0  0  0  0  0  0  0  0  0  0  0  0
   20.4098   17.8740   25.5938 H   0  0  0  0  0  0  0  0  0  0  0  0
  1  2  1  0  0  0  0
  1  3  1  0  0  0  0
  1  4  1  0  0  0  0
  1  5  1  0  0  0  0
  5  6  1  0  0  0  0
  5  7  1  0  0  0  0
  7  8  1  0  0  0  0
  7  9  1  0  0  0  0
  7 10  1  0  0  0  0
  5 11  1  0  0  0  0
 11 12  1  0  0  0  0
 11 13  1  0  0  0  0
 11 14  1  0  0  0  0
 14 15  1  0  0  0  0
 14 16  1  0  0  0  0
 14 17  1  0  0  0  0
 17 18  1  0  0  0  0
 17 19  1  0  0  0  0
 17 20  1  0  0  0  0
M  END
> <VConfSearch Rank>
95

> <Conf_Id>
63

> <Delta U+W>
0.420

> <U+W>
-35.856

> <U>
22.625

> <W>
-58.481

> <W(PB)>
-60.400

> <W(SA)>
1.919

> <Valence>
2.404

> <Coulomb>
19.464

> <VdW>
0.757

> <VdW6>
-5.074

> <VdW12>
5.830

> <Bond>
0.172

> <Angle>
1.207

> <Pdih>
1.025

> <Idih>
0.000

> <Tether>
0.000

$$$$
VeraChem MOL file


 20 19  0  0  0  0  0  0  0  0999 V2000     
   19.0465   18.1028   24.1628 N   0  3  0  0  0  0  0  0  0  0  0  0
   19.7095   18.6667   24.7009 H   0  0  0  0  0  0  0  0  0  0  0  0
   19.3883   17.1386   24.1664 H   0  0  0  0  0  0  0  0  0  0  0  0
   18.1561   18.1136   24.6673 H   0  0  0  0  0  0  0  0  0  0  0  0
   18.8933   18.6282   22.7612 C   0  0  2  0  0  0  0  0  0  0  0  0
   18.5242   19.6545   22.8484 H   0  0  0  0  0  0  0  0  0  0  0  0
   17.8493   17.8089   21.9852 C   0  0  0  0  0  0  0  0  0  0  0  0
   16.8839   17.8169   22.5060 H   0  0  0  0  0  0  0  0  0  0  0  0
   18.1675   16.7651   21.8714 H   0  0  0  0  0  0  0  0  0  0  0  0
   17.6902   18.2285   20.9841 H   0  0  0  0  0  0  0  0  0  0  0  0
   20.2335   18.6590   21.9917 C   0  0  0  0  0  0  0  0  0  0  0  0
   20.6126   17.6345   21.8794 H   0  0  0  0  0  0  0  0  0  0  0  0
   20.0530   19.0321   20.9748 H   0  0  0  0  0  0  0  0  0  0  0  0
   21.3269   19.5342   22.6553 C   0  0  0  0  0  0  0  0  0  0  0  0
   22.2365   19.4883   22.0401 H   0  0  0  0  0  0  0  0  0  0  0  0
   21.6037   19.1194   23.6340 H   0  0  0  0  0  0  0  0  0  0  0  0
   20.9050   21.0125   22.8157 C   0  0  0  0  0  0  0  0  0  0  0  0
   20.6235   21.4496   21.8488 H   0  0  0  0  0  0  0  0  0  0  0  0
   21.7335   21.6068   23.2226 H   0  0  0  0  0  0  0  0  0  0  0  0
   20.0545   21.1190   23.5006 H   0  0  0  0  0  0  0  0  0  0  0  0
  1  2  1  0  0  0  0
  1  3  1  0  0  0  0
  1  4  1  0  0  0  0
  1  5  1  0  0  0  0
  5  6  1  0  0  0  0
  5  7  1  0  0  0  0
  7  8  1  0  0  0  0
  7  9  1  0  0  0  0
  7 10  1  0  0  0  0
  5 11  1  0  0  0  0
 11 12  1  0  0  0  0
 11 13  1  0  0  0  0
 11 14  1  0  0  0  0
 14 15  1  0  0  0  0
 14 16  1  0  0  0  0
 14 17  1  0  0  0  0
 17 18  1  0  0  0  0
 17 19  1  0  0  0  0
 17 20  1  0  0  0  0
M  END
> <VConfSearch Rank>
96

> <Conf_Id>
50

> <Delta U+W>
0.466

> <U+W>
-35.811

> <U>
22.369

> <W>
-58.180

> <W(PB)>
-60.103

> <W(SA)>
1.923

> <Valence>
2.168

> <Coulomb>
19.636

> <VdW>
0.566

> <VdW6>
-5.263

> <VdW12>
5.829

> <Bond>
0.162

> <Angle>
1.066

> <Pdih>
0.939

> <Idih>
0.000

> <Tether>
0.000

$$$$
VeraChem MOL file


 20 19  0  0  0  0  0  0  0  0999 V2000     
   21.8768   19.2814   23.4111 N   0  3  0  0  0  0  0  0  0  0  0  0
   22.3046   18.3522   23.4493 H   0  0  0  0  0  0  0  0  0  0  0  0
   21.8392   19.6419   24.3679 H   0  0  0  0  0  0  0  0  0  0  0  0
   22.5127   19.8853   22.8832 H   0  0  0  0  0  0  0  0  0  0  0  0
   20.5101   19.2378   22.7826 C   0  0  2  0  0  0  0  0  0  0  0  0
   20.6516   18.8396   21.7731 H   0  0  0  0  0  0  0  0  0  0  0  0
   19.9338   20.6620   22.6755 C   0  0  0  0  0  0  0  0  0  0  0  0
   19.8200   21.1179   23.6668 H   0  0  0  0  0  0  0  0  0  0  0  0
   18.9520   20.6639   22.1899 H   0  0  0  0  0  0  0  0  0  0  0  0
   20.5969   21.3032   22.0820 H   0  0  0  0  0  0  0  0  0  0  0  0
   19.5532   18.2885   23.5452 C   0  0  0  0  0  0  0  0  0  0  0  0
   20.1442   17.6229   24.1881 H   0  0  0  0  0  0  0  0  0  0  0  0
   18.9078   18.8599   24.2256 H   0  0  0  0  0  0  0  0  0  0  0  0
   18.6914   17.3913   22.6211 C   0  0  0  0  0  0  0  0  0  0  0  0
   18.1065   16.7026   23.2469 H   0  0  0  0  0  0  0  0  0  0  0  0
   19.3479   16.7606   22.0052 H   0  0  0  0  0  0  0  0  0  0  0  0
   17.7241   18.1725   21.7044 C   0  0  0  0  0  0  0  0  0  0  0  0
   17.0819   18.8452   22.2875 H   0  0  0  0  0  0  0  0  0  0  0  0
   17.0723   17.4799   21.1561 H   0  0  0  0  0  0  0  0  0  0  0  0
   18.2688   18.7674   20.9609 H   0  0  0  0  0  0  0  0  0  0  0  0
  1  2  1  0  0  0  0
  1  3  1  0  0  0  0
  1  4  1  0  0  0  0
  1  5  1  0  0  0  0
  5  6  1  0  0  0  0
  5  7  1  0  0  0  0
  7  8  1  0  0  0  0
  7  9  1  0  0  0  0
  7 10  1  0  0  0  0
  5 11  1  0  0  0  0
 11 12  1  0  0  0  0
 11 13  1  0  0  0  0
 11 14  1  0  0  0  0
 14 15  1  0  0  0  0
 14 16  1  0  0  0  0
 14 17  1  0  0  0  0
 17 18  1  0  0  0  0
 17 19  1  0  0  0  0
 17 20  1  0  0  0  0
M  END
> <VConfSearch Rank>
97

> <Conf_Id>
3

> <Delta U+W>
3.093

> <U+W>
-33.184

> <U>
25.256

> <W>
-58.439

> <W(PB)>
-60.337

> <W(SA)>
1.898

> <Valence>
4.963

> <Coulomb>
19.511

> <VdW>
0.782

> <VdW6>
-5.429

> <VdW12>
6.211

> <Bond>
0.174

> <Angle>
1.377

> <Pdih>
3.412

> <Idih>
0.000

> <Tether>
0.000

$$$$
VeraChem MOL file


 20 19  0  0  0  0  0  0  0  0999 V2000     
   19.8095   18.3674   24.9677 N   0  3  0  0  0  0  0  0  0  0  0  0
   18.9858   18.1968   25.5509 H   0  0  0  0  0  0  0  0  0  0  0  0
   20.3182   19.1516   25.3851 H   0  0  0  0  0  0  0  0  0  0  0  0
   20.4086   17.5411   25.0387 H   0  0  0  0  0  0  0  0  0  0  0  0
   19.4255   18.6507   23.5413 C   0  0  2  0  0  0  0  0  0  0  0  0
   18.7887   19.5400   23.5661 H   0  0  0  0  0  0  0  0  0  0  0  0
   18.6059   17.4817   22.9651 C   0  0  0  0  0  0  0  0  0  0  0  0
   18.2001   17.7293   21.9774 H   0  0  0  0  0  0  0  0  0  0  0  0
   17.7547   17.2483   23.6163 H   0  0  0  0  0  0  0  0  0  0  0  0
   19.2186   16.5769   22.8683 H   0  0  0  0  0  0  0  0  0  0  0  0
   20.6704   18.9683   22.6788 C   0  0  0  0  0  0  0  0  0  0  0  0
   21.2547   19.7511   23.1801 H   0  0  0  0  0  0  0  0  0  0  0  0
   21.3193   18.0834   22.6376 H   0  0  0  0  0  0  0  0  0  0  0  0
   20.3637   19.4388   21.2339 C   0  0  0  0  0  0  0  0  0  0  0  0
   19.8960   18.6278   20.6596 H   0  0  0  0  0  0  0  0  0  0  0  0
   21.3136   19.6567   20.7259 H   0  0  0  0  0  0  0  0  0  0  0  0
   19.4688   20.6981   21.1839 C   0  0  0  0  0  0  0  0  0  0  0  0
   19.9154   21.5229   21.7544 H   0  0  0  0  0  0  0  0  0  0  0  0
   18.4698   20.4994   21.5920 H   0  0  0  0  0  0  0  0  0  0  0  0
   19.3410   21.0382   20.1480 H   0  0  0  0  0  0  0  0  0  0  0  0
  1  2  1  0  0  0  0
  1  3  1  0  0  0  0
  1  4  1  0  0  0  0
  1  5  1  0  0  0  0
  5  6  1  0  0  0  0
  5  7  1  0  0  0  0
  7  8  1  0  0  0  0
  7  9  1  0  0  0  0
  7 10  1  0  0  0  0
  5 11  1  0  0  0  0
 11 12  1  0  0  0  0
 11 13  1  0  0  0  0
 11 14  1  0  0  0  0
 14 15  1  0  0  0  0
 14 16  1  0  0  0  0
 14 17  1  0  0  0  0
 17 18  1  0  0  0  0
 17 19  1  0  0  0  0
 17 20  1  0  0  0  0
M  END
> <VConfSearch Rank>
98

> <Conf_Id>
64

> <Delta U+W>
0.544

> <U+W>
-35.732

> <U>
22.800

> <W>
-58.532

> <W(PB)>
-60.437

> <W(SA)>
1.905

> <Valence>
2.662

> <Coulomb>
19.485

> <VdW>
0.653

> <VdW6>
-5.460

> <VdW12>
6.113

> <Bond>
0.174

> <Angle>
1.378

> <Pdih>
1.109

> <Idih>
0.000

> <Tether>
0.000

$$$$
VeraChem MOL file


 20 19  0  0  0  0  0  0  0  0999 V2000     
   21.4896   17.8022   22.1462 N   0  3  0  0  0  0  0  0  0  0  0  0
   21.8617   18.4004   22.8871 H   0  0  0  0  0  0  0  0  0  0  0  0
   22.1437   17.8464   21.3602 H   0  0  0  0  0  0  0  0  0  0  0  0
   21.4985   16.8399   22.4947 H   0  0  0  0  0  0  0  0  0  0  0  0
   20.1063   18.2296   21.7355 C   0  0  2  0  0  0  0  0  0  0  0  0
   19.8047   17.5420   20.9392 H   0  0  0  0  0  0  0  0  0  0  0  0
   20.1252   19.6456   21.1368 C   0  0  0  0  0  0  0  0  0  0  0  0
   20.5474   20.3731   21.8397 H   0  0  0  0  0  0  0  0  0  0  0  0
   19.1128   19.9687   20.8650 H   0  0  0  0  0  0  0  0  0  0  0  0
   20.7370   19.6681   20.2267 H   0  0  0  0  0  0  0  0  0  0  0  0
   19.0760   18.0721   22.8821 C   0  0  0  0  0  0  0  0  0  0  0  0
   18.0638   18.2271   22.4860 H   0  0  0  0  0  0  0  0  0  0  0  0
   19.1016   17.0227   23.2040 H   0  0  0  0  0  0  0  0  0  0  0  0
   19.2960   18.9699   24.1314 C   0  0  0  0  0  0  0  0  0  0  0  0
   20.3640   19.1724   24.2853 H   0  0  0  0  0  0  0  0  0  0  0  0
   18.9663   18.4131   25.0199 H   0  0  0  0  0  0  0  0  0  0  0  0
   18.5035   20.2975   24.0859 C   0  0  0  0  0  0  0  0  0  0  0  0
   18.8087   20.9329   23.2475 H   0  0  0  0  0  0  0  0  0  0  0  0
   18.6618   20.8701   25.0090 H   0  0  0  0  0  0  0  0  0  0  0  0
   17.4260   20.1090   23.9933 H   0  0  0  0  0  0  0  0  0  0  0  0
  1  2  1  0  0  0  0
  1  3  1  0  0  0  0
  1  4  1  0  0  0  0
  1  5  1  0  0  0  0
  5  6  1  0  0  0  0
  5  7  1  0  0  0  0
  7  8  1  0  0  0  0
  7  9  1  0  0  0  0
  7 10  1  0  0  0  0
  5 11  1  0  0  0  0
 11 12  1  0  0  0  0
 11 13  1  0  0  0  0
 11 14  1  0  0  0  0
 14 15  1  0  0  0  0
 14 16  1  0  0  0  0
 14 17  1  0  0  0  0
 17 18  1  0  0  0  0
 17 19  1  0  0  0  0
 17 20  1  0  0  0  0
M  END
> <VConfSearch Rank>
99

> <Conf_Id>
35

> <Delta U+W>
3.004

> <U+W>
-33.272

> <U>
25.367

> <W>
-58.639

> <W(PB)>
-60.512

> <W(SA)>
1.873

> <Valence>
4.943

> <Coulomb>
19.661

> <VdW>
0.764

> <VdW6>
-5.871

> <VdW12>
6.636

> <Bond>
0.230

> <Angle>
1.857

> <Pdih>
2.855

> <Idih>
0.000

> <Tether>
0.000

$$$$
VeraChem MOL file


 20 19  0  0  0  0  0  0  0  0999 V2000     
   20.8305   18.9274   24.1550 N   0  3  0  0  0  0  0  0  0  0  0  0
   21.3278   19.5862   24.7602 H   0  0  0  0  0  0  0  0  0  0  0  0
   21.2225   17.9982   24.3293 H   0  0  0  0  0  0  0  0  0  0  0  0
   19.8537   18.9084   24.4540 H   0  0  0  0  0  0  0  0  0  0  0  0
   20.9488   19.3121   22.7057 C   0  0  2  0  0  0  0  0  0  0  0  0
   22.0200   19.2770   22.4836 H   0  0  0  0  0  0  0  0  0  0  0  0
   20.4791   20.7583   22.4684 C   0  0  0  0  0  0  0  0  0  0  0  0
   19.4310   20.8966   22.7596 H   0  0  0  0  0  0  0  0  0  0  0  0
   20.5818   21.0320   21.4111 H   0  0  0  0  0  0  0  0  0  0  0  0
   21.0852   21.4602   23.0540 H   0  0  0  0  0  0  0  0  0  0  0  0
   20.2600   18.3030   21.7514 C   0  0  0  0  0  0  0  0  0  0  0  0
   20.6539   18.4786   20.7416 H   0  0  0  0  0  0  0  0  0  0  0  0
   20.5815   17.2872   22.0161 H   0  0  0  0  0  0  0  0  0  0  0  0
   18.7082   18.3443   21.6694 C   0  0  0  0  0  0  0  0  0  0  0  0
   18.3883   17.6047   20.9221 H   0  0  0  0  0  0  0  0  0  0  0  0
   18.3728   19.3165   21.2835 H   0  0  0  0  0  0  0  0  0  0  0  0
   17.9833   18.0347   22.9989 C   0  0  0  0  0  0  0  0  0  0  0  0
   18.3609   17.1089   23.4523 H   0  0  0  0  0  0  0  0  0  0  0  0
   16.9075   17.9040   22.8234 H   0  0  0  0  0  0  0  0  0  0  0  0
   18.0938   18.8533   23.7192 H   0  0  0  0  0  0  0  0  0  0  0  0
  1  2  1  0  0  0  0
  1  3  1  0  0  0  0
  1  4  1  0  0  0  0
  1  5  1  0  0  0  0
  5  6  1  0  0  0  0
  5  7  1  0  0  0  0
  7  8  1  0  0  0  0
  7  9  1  0  0  0  0
  7 10  1  0  0  0  0
  5 11  1  0  0  0  0
 11 12  1  0  0  0  0
 11 13  1  0  0  0  0
 11 14  1  0  0  0  0
 14 15  1  0  0  0  0
 14 16  1  0  0  0  0
 14 17  1  0  0  0  0
 17 18  1  0  0  0  0
 17 19  1  0  0  0  0
 17 20  1  0  0  0  0
M  END
> <VConfSearch Rank>
100

> <Conf_Id>
55

> <Delta U+W>
2.767

> <U+W>
-33.509

> <U>
24.552

> <W>
-58.061

> <W(PB)>
-59.930

> <W(SA)>
1.869

> <Valence>
3.726

> <Coulomb>
20.219

> <VdW>
0.606

> <VdW6>
-6.395

> <VdW12>
7.001

> <Bond>
0.241

> <Angle>
2.098

> <Pdih>
1.387

> <Idih>
0.000

> <Tether>
0.000

$$$$
VeraChem MOL file


 20 19  0  0  0  0  0  0  0  0999 V2000     
   18.4325   18.1975   23.9784 N   0  3  0  0  0  0  0  0  0  0  0  0
   18.8526   18.5549   24.8400 H   0  0  0  0  0  0  0  0  0  0  0  0
   17.8827   17.3708   24.2271 H   0  0  0  0  0  0  0  0  0  0  0  0
   17.7781   18.9063   23.6382 H   0  0  0  0  0  0  0  0  0  0  0  0
   19.4800   17.8726   22.9478 C   0  0  2  0  0  0  0  0  0  0  0  0
   18.9490   17.5040   22.0645 H   0  0  0  0  0  0  0  0  0  0  0  0
   20.4067   16.7547   23.4533 C   0  0  0  0  0  0  0  0  0  0  0  0
   19.8289   15.8595   23.7143 H   0  0  0  0  0  0  0  0  0  0  0  0
   20.9645   17.0727   24.3429 H   0  0  0  0  0  0  0  0  0  0  0  0
   21.1308   16.4687   22.6803 H   0  0  0  0  0  0  0  0  0  0  0  0
   20.3076   19.1091   22.5324 C   0  0  0  0  0  0  0  0  0  0  0  0
   20.8330   19.5135   23.4078 H   0  0  0  0  0  0  0  0  0  0  0  0
   21.0823   18.7939   21.8207 H   0  0  0  0  0  0  0  0  0  0  0  0
   19.4507   20.2193   21.8776 C   0  0  0  0  0  0  0  0  0  0  0  0
   18.7027   20.5918   22.5903 H   0  0  0  0  0  0  0  0  0  0  0  0
   18.8975   19.8045   21.0231 H   0  0  0  0  0  0  0  0  0  0  0  0
   20.3198   21.4017   21.3982 C   0  0  0  0  0  0  0  0  0  0  0  0
   20.8630   21.8578   22.2361 H   0  0  0  0  0  0  0  0  0  0  0  0
   19.6964   22.1795   20.9382 H   0  0  0  0  0  0  0  0  0  0  0  0
   21.0552   21.0751   20.6514 H   0  0  0  0  0  0  0  0  0  0  0  0
  1  2  1  0  0  0  0
  1  3  1  0  0  0  0
  1  4  1  0  0  0  0
  1  5  1  0  0  0  0
  5  6  1  0  0  0  0
  5  7  1  0  0  0  0
  7  8  1  0  0  0  0
  7  9  1  0  0  0  0
  7 10  1  0  0  0  0
  5 11  1  0  0  0  0
 11 12  1  0  0  0  0
 11 13  1  0  0  0  0
 11 14  1  0  0  0  0
 14 15  1  0  0  0  0
 14 16  1  0  0  0  0
 14 17  1  0  0  0  0
 17 18  1  0  0  0  0
 17 19  1  0  0  0  0
 17 20  1  0  0  0  0
M  END
> <VConfSearch Rank>
101

> <Conf_Id>
74

> <Delta U+W>
0.000

> <U+W>
-36.276

> <U>
22.080

> <W>
-58.356

> <W(PB)>
-60.289

> <W(SA)>
1.932

> <Valence>
1.885

> <Coulomb>
19.559

> <VdW>
0.637

> <VdW6>
-4.482

> <VdW12>
5.119

> <Bond>
0.136

> <Angle>
0.867

> <Pdih>
0.882

> <Idih>
0.000

> <Tether>
0.000

$$$$
VeraChem MOL file


 20 19  0  0  0  0  0  0  0  0999 V2000     
   21.6503   17.8124   23.6212 N   0  3  0  0  0  0  0  0  0  0  0  0
   21.4975   16.8513   23.3035 H   0  0  0  0  0  0  0  0  0  0  0  0
   21.3884   17.8536   24.6094 H   0  0  0  0  0  0  0  0  0  0  0  0
   22.6564   17.9926   23.5655 H   0  0  0  0  0  0  0  0  0  0  0  0
   20.8676   18.8001   22.8002 C   0  0  2  0  0  0  0  0  0  0  0  0
   21.2144   18.6865   21.7684 H   0  0  0  0  0  0  0  0  0  0  0  0
   21.1731   20.2375   23.2602 C   0  0  0  0  0  0  0  0  0  0  0  0
   22.2550   20.4176   23.2721 H   0  0  0  0  0  0  0  0  0  0  0  0
   20.7868   20.4219   24.2703 H   0  0  0  0  0  0  0  0  0  0  0  0
   20.7302   20.9762   22.5825 H   0  0  0  0  0  0  0  0  0  0  0  0
   19.3541   18.4848   22.8391 C   0  0  0  0  0  0  0  0  0  0  0  0
   19.2149   17.4207   22.6067 H   0  0  0  0  0  0  0  0  0  0  0  0
   18.9716   18.6328   23.8577 H   0  0  0  0  0  0  0  0  0  0  0  0
   18.5155   19.3195   21.8405 C   0  0  0  0  0  0  0  0  0  0  0  0
   18.9367   19.2215   20.8301 H   0  0  0  0  0  0  0  0  0  0  0  0
   18.5602   20.3850   22.1025 H   0  0  0  0  0  0  0  0  0  0  0  0
   17.0379   18.8722   21.8242 C   0  0  0  0  0  0  0  0  0  0  0  0
   16.9460   17.8203   21.5238 H   0  0  0  0  0  0  0  0  0  0  0  0
   16.4578   19.4762   21.1145 H   0  0  0  0  0  0  0  0  0  0  0  0
   16.5800   18.9857   22.8156 H   0  0  0  0  0  0  0  0  0  0  0  0
  1  2  1  0  0  0  0
  1  3  1  0  0  0  0
  1  4  1  0  0  0  0
  1  5  1  0  0  0  0
  5  6  1  0  0  0  0
  5  7  1  0  0  0  0
  7  8  1  0  0  0  0
  7  9  1  0  0  0  0
  7 10  1  0  0  0  0
  5 11  1  0  0  0  0
 11 12  1  0  0  0  0
 11 13  1  0  0  0  0
 11 14  1  0  0  0  0
 14 15  1  0  0  0  0
 14 16  1  0  0  0  0
 14 17  1  0  0  0  0
 17 18  1  0  0  0  0
 17 19  1  0  0  0  0
 17 20  1  0  0  0  0
M  END
> <VConfSearch Rank>
102

> <Conf_Id>
80

> <Delta U+W>
0.460

> <U+W>
-35.817

> <U>
22.495

> <W>
-58.311

> <W(PB)>
-60.259

> <W(SA)>
1.948

> <Valence>
2.419

> <Coulomb>
19.304

> <VdW>
0.772

> <VdW6>
-4.635

> <VdW12>
5.407

> <Bond>
0.149

> <Angle>
1.142

> <Pdih>
1.129

> <Idih>
0.000

> <Tether>
0.000

$$$$
VeraChem MOL file


 20 19  0  0  0  0  0  0  0  0999 V2000     
   18.4594   20.4522   21.4492 N   0  3  0  0  0  0  0  0  0  0  0  0
   17.4648   20.2104   21.4648 H   0  0  0  0  0  0  0  0  0  0  0  0
   18.8325   20.1563   20.5437 H   0  0  0  0  0  0  0  0  0  0  0  0
   18.5228   21.4731   21.4853 H   0  0  0  0  0  0  0  0  0  0  0  0
   19.2048   19.8134   22.5889 C   0  0  2  0  0  0  0  0  0  0  0  0
   18.7431   20.1908   23.5066 H   0  0  0  0  0  0  0  0  0  0  0  0
   20.6775   20.2576   22.5772 C   0  0  0  0  0  0  0  0  0  0  0  0
   20.7523   21.3495   22.5046 H   0  0  0  0  0  0  0  0  0  0  0  0
   21.2183   19.8216   21.7282 H   0  0  0  0  0  0  0  0  0  0  0  0
   21.1840   19.9620   23.5030 H   0  0  0  0  0  0  0  0  0  0  0  0
   19.0406   18.2740   22.5669 C   0  0  0  0  0  0  0  0  0  0  0  0
   17.9643   18.0580   22.5396 H   0  0  0  0  0  0  0  0  0  0  0  0
   19.4511   17.8619   21.6356 H   0  0  0  0  0  0  0  0  0  0  0  0
   19.6397   17.5332   23.7916 C   0  0  0  0  0  0  0  0  0  0  0  0
   18.9801   16.6927   24.0497 H   0  0  0  0  0  0  0  0  0  0  0  0
   19.6456   18.1919   24.6714 H   0  0  0  0  0  0  0  0  0  0  0  0
   21.0553   16.9647   23.5344 C   0  0  0  0  0  0  0  0  0  0  0  0
   21.0444   16.2468   22.7040 H   0  0  0  0  0  0  0  0  0  0  0  0
   21.4249   16.4380   24.4237 H   0  0  0  0  0  0  0  0  0  0  0  0
   21.7784   17.7509   23.2903 H   0  0  0  0  0  0  0  0  0  0  0  0
  1  2  1  0  0  0  0
  1  3  1  0  0  0  0
  1  4  1  0  0  0  0
  1  5  1  0  0  0  0
  5  6  1  0  0  0  0
  5  7  1  0  0  0  0
  7  8  1  0  0  0  0
  7  9  1  0  0  0  0
  7 10  1  0  0  0  0
  5 11  1  0  0  0  0
 11 12  1  0  0  0  0
 11 13  1  0  0  0  0
 11 14  1  0  0  0  0
 14 15  1  0  0  0  0
 14 16  1  0  0  0  0
 14 17  1  0  0  0  0
 17 18  1  0  0  0  0
 17 19  1  0  0  0  0
 17 20  1  0  0  0  0
M  END
> <VConfSearch Rank>
103

> <Conf_Id>
52

> <Delta U+W>
2.995

> <U+W>
-33.282

> <U>
25.224

> <W>
-58.506

> <W(PB)>
-60.411

> <W(SA)>
1.905

> <Valence>
4.945

> <Coulomb>
19.467

> <VdW>
0.813

> <VdW6>
-5.458

> <VdW12>
6.270

> <Bond>
0.200

> <Angle>
1.675

> <Pdih>
3.070

> <Idih>
0.000

> <Tether>
0.000

$$$$
VeraChem MOL file


 20 19  0  0  0  0  0  0  0  0999 V2000     
   18.8322   20.3362   22.5424 N   0  3  0  0  0  0  0  0  0  0  0  0
   19.4861   21.1202   22.6071 H   0  0  0  0  0  0  0  0  0  0  0  0
   17.8962   20.7014   22.7376 H   0  0  0  0  0  0  0  0  0  0  0  0
   18.8408   20.0099   21.5737 H   0  0  0  0  0  0  0  0  0  0  0  0
   19.2041   19.2320   23.4940 C   0  0  2  0  0  0  0  0  0  0  0  0
   18.4374   18.4563   23.4030 H   0  0  0  0  0  0  0  0  0  0  0  0
   19.1847   19.7599   24.9386 C   0  0  0  0  0  0  0  0  0  0  0  0
   19.9489   20.5326   25.0892 H   0  0  0  0  0  0  0  0  0  0  0  0
   19.3725   18.9494   25.6538 H   0  0  0  0  0  0  0  0  0  0  0  0
   18.2069   20.1941   25.1807 H   0  0  0  0  0  0  0  0  0  0  0  0
   20.5778   18.5980   23.1698 C   0  0  0  0  0  0  0  0  0  0  0  0
   21.3238   19.3861   23.0023 H   0  0  0  0  0  0  0  0  0  0  0  0
   20.9231   18.0412   24.0512 H   0  0  0  0  0  0  0  0  0  0  0  0
   20.5711   17.6064   21.9768 C   0  0  0  0  0  0  0  0  0  0  0  0
   19.8561   16.7951   22.1737 H   0  0  0  0  0  0  0  0  0  0  0  0
   21.5603   17.1306   21.9218 H   0  0  0  0  0  0  0  0  0  0  0  0
   20.2615   18.2447   20.6035 C   0  0  0  0  0  0  0  0  0  0  0  0
   20.4727   17.5300   19.7973 H   0  0  0  0  0  0  0  0  0  0  0  0
   20.8796   19.1349   20.4281 H   0  0  0  0  0  0  0  0  0  0  0  0
   19.2045   18.5214   20.5153 H   0  0  0  0  0  0  0  0  0  0  0  0
  1  2  1  0  0  0  0
  1  3  1  0  0  0  0
  1  4  1  0  0  0  0
  1  5  1  0  0  0  0
  5  6  1  0  0  0  0
  5  7  1  0  0  0  0
  7  8  1  0  0  0  0
  7  9  1  0  0  0  0
  7 10  1  0  0  0  0
  5 11  1  0  0  0  0
 11 12  1  0  0  0  0
 11 13  1  0  0  0  0
 11 14  1  0  0  0  0
 14 15  1  0  0  0  0
 14 16  1  0  0  0  0
 14 17  1  0  0  0  0
 17 18  1  0  0  0  0
 17 19  1  0  0  0  0
 17 20  1  0  0  0  0
M  END
> <VConfSearch Rank>
104

> <Conf_Id>
54

> <Delta U+W>
2.752

> <U+W>
-33.525

> <U>
24.337

> <W>
-57.862

> <W(PB)>
-59.764

> <W(SA)>
1.901

> <Valence>
3.593

> <Coulomb>
20.067

> <VdW>
0.677

> <VdW6>
-5.466

> <VdW12>
6.144

> <Bond>
0.191

> <Angle>
1.557

> <Pdih>
1.845

> <Idih>
0.000

> <Tether>
0.000

$$$$
VeraChem MOL file


 20 19  0  0  0  0  0  0  0  0999 V2000     
   18.0412   18.0673   21.9642 N   0  3  0  0  0  0  0  0  0  0  0  0
   17.1735   17.5932   22.2287 H   0  0  0  0  0  0  0  0  0  0  0  0
   18.3224   17.6990   21.0515 H   0  0  0  0  0  0  0  0  0  0  0  0
   17.8224   19.0585   21.8416 H   0  0  0  0  0  0  0  0  0  0  0  0
   19.1162   17.8650   22.9974 C   0  0  2  0  0  0  0  0  0  0  0  0
   19.2668   16.7833   23.0696 H   0  0  0  0  0  0  0  0  0  0  0  0
   18.6555   18.3621   24.3793 C   0  0  0  0  0  0  0  0  0  0  0  0
   19.4425   18.2145   25.1292 H   0  0  0  0  0  0  0  0  0  0  0  0
   17.7713   17.8049   24.7121 H   0  0  0  0  0  0  0  0  0  0  0  0
   18.3928   19.4264   24.3613 H   0  0  0  0  0  0  0  0  0  0  0  0
   20.4685   18.4883   22.5759 C   0  0  0  0  0  0  0  0  0  0  0  0
   21.2263   18.2281   23.3267 H   0  0  0  0  0  0  0  0  0  0  0  0
   20.7941   18.0118   21.6420 H   0  0  0  0  0  0  0  0  0  0  0  0
   20.4480   20.0266   22.3816 C   0  0  0  0  0  0  0  0  0  0  0  0
   20.1742   20.5248   23.3212 H   0  0  0  0  0  0  0  0  0  0  0  0
   19.6877   20.3051   21.6396 H   0  0  0  0  0  0  0  0  0  0  0  0
   21.8214   20.5572   21.9175 C   0  0  0  0  0  0  0  0  0  0  0  0
   21.7921   21.6467   21.7865 H   0  0  0  0  0  0  0  0  0  0  0  0
   22.1142   20.1109   20.9582 H   0  0  0  0  0  0  0  0  0  0  0  0
   22.6029   20.3279   22.6537 H   0  0  0  0  0  0  0  0  0  0  0  0
  1  2  1  0  0  0  0
  1  3  1  0  0  0  0
  1  4  1  0  0  0  0
  1  5  1  0  0  0  0
  5  6  1  0  0  0  0
  5  7  1  0  0  0  0
  7  8  1  0  0  0  0
  7  9  1  0  0  0  0
  7 10  1  0  0  0  0
  5 11  1  0  0  0  0
 11 12  1  0  0  0  0
 11 13  1  0  0  0  0
 11 14  1  0  0  0  0
 14 15  1  0  0  0  0
 14 16  1  0  0  0  0
 14 17  1  0  0  0  0
 17 18  1  0  0  0  0
 17 19  1  0  0  0  0
 17 20  1  0  0  0  0
M  END
> <VConfSearch Rank>
105

> <Conf_Id>
63

> <Delta U+W>
0.420

> <U+W>
-35.856

> <U>
22.625

> <W>
-58.481

> <W(PB)>
-60.400

> <W(SA)>
1.919

> <Valence>
2.404

> <Coulomb>
19.464

> <VdW>
0.757

> <VdW6>
-5.074

> <VdW12>
5.830

> <Bond>
0.172

> <Angle>
1.207

> <Pdih>
1.025

> <Idih>
0.000

> <Tether>
0.000

$$$$
VeraChem MOL file


 20 19  0  0  0  0  0  0  0  0999 V2000     
   20.0906   20.0300   24.1287 N   0  3  0  0  0  0  0  0  0  0  0  0
   20.6913   19.2567   24.4255 H   0  0  0  0  0  0  0  0  0  0  0  0
   19.3069   20.0805   24.7842 H   0  0  0  0  0  0  0  0  0  0  0  0
   20.6308   20.8933   24.2305 H   0  0  0  0  0  0  0  0  0  0  0  0
   19.6144   19.8403   22.7139 C   0  0  2  0  0  0  0  0  0  0  0  0
   20.5080   19.8000   22.0838 H   0  0  0  0  0  0  0  0  0  0  0  0
   18.7642   21.0388   22.2618 C   0  0  0  0  0  0  0  0  0  0  0  0
   19.3305   21.9737   22.3545 H   0  0  0  0  0  0  0  0  0  0  0  0
   17.8528   21.1302   22.8657 H   0  0  0  0  0  0  0  0  0  0  0  0
   18.4683   20.9323   21.2108 H   0  0  0  0  0  0  0  0  0  0  0  0
   18.8292   18.5223   22.5262 C   0  0  0  0  0  0  0  0  0  0  0  0
   17.9185   18.5503   23.1392 H   0  0  0  0  0  0  0  0  0  0  0  0
   18.4942   18.4516   21.4828 H   0  0  0  0  0  0  0  0  0  0  0  0
   19.6367   17.2466   22.8762 C   0  0  0  0  0  0  0  0  0  0  0  0
   18.9955   16.3685   22.7158 H   0  0  0  0  0  0  0  0  0  0  0  0
   19.8942   17.2408   23.9440 H   0  0  0  0  0  0  0  0  0  0  0  0
   20.9203   17.0906   22.0293 C   0  0  0  0  0  0  0  0  0  0  0  0
   20.6878   17.0936   20.9564 H   0  0  0  0  0  0  0  0  0  0  0  0
   21.4204   16.1411   22.2604 H   0  0  0  0  0  0  0  0  0  0  0  0
   21.6366   17.8980   22.2269 H   0  0  0  0  0  0  0  0  0  0  0  0
  1  2  1  0  0  0  0
  1  3  1  0  0  0  0
  1  4  1  0  0  0  0
  1  5  1  0  0  0  0
  5  6  1  0  0  0  0
  5  7  1  0  0  0  0
  7  8  1  0  0  0  0
  7  9  1  0  0  0  0
  7 10  1  0  0  0  0
  5 11  1  0  0  0  0
 11 12  1  0  0  0  0
 11 13  1  0  0  0  0
 11 14  1  0  0  0  0
 14 15  1  0  0  0  0
 14 16  1  0  0  0  0
 14 17  1  0  0  0  0
 17 18  1  0  0  0  0
 17 19  1  0  0  0  0
 17 20  1  0  0  0  0
M  END
> <VConfSearch Rank>
106

> <Conf_Id>
50

> <Delta U+W>
0.466

> <U+W>
-35.811

> <U>
22.369

> <W>
-58.180

> <W(PB)>
-60.103

> <W(SA)>
1.923

> <Valence>
2.168

> <Coulomb>
19.636

> <VdW>
0.566

> <VdW6>
-5.263

> <VdW12>
5.829

> <Bond>
0.162

> <Angle>
1.066

> <Pdih>
0.939

> <Idih>
0.000

> <Tether>
0.000

$$$$
VeraChem MOL file


 20 19  0  0  0  0  0  0  0  0999 V2000     
   18.0650   19.1783   24.3725 N   0  3  0  0  0  0  0  0  0  0  0  0
   18.0006   20.1920   24.4997 H   0  0  0  0  0  0  0  0  0  0  0  0
   18.4366   18.7828   25.2399 H   0  0  0  0  0  0  0  0  0  0  0  0
   17.1101   18.8263   24.2623 H   0  0  0  0  0  0  0  0  0  0  0  0
   18.9236   18.8207   23.1895 C   0  0  2  0  0  0  0  0  0  0  0  0
   18.4519   19.2866   22.3188 H   0  0  0  0  0  0  0  0  0  0  0  0
   18.9334   17.2939   22.9879 C   0  0  0  0  0  0  0  0  0  0  0  0
   19.3565   16.7826   23.8616 H   0  0  0  0  0  0  0  0  0  0  0  0
   19.5246   17.0069   22.1116 H   0  0  0  0  0  0  0  0  0  0  0  0
   17.9143   16.9178   22.8363 H   0  0  0  0  0  0  0  0  0  0  0  0
   20.3576   19.3901   23.3229 C   0  0  0  0  0  0  0  0  0  0  0  0
   20.3617   20.1782   24.0874 H   0  0  0  0  0  0  0  0  0  0  0  0
   21.0446   18.6169   23.6921 H   0  0  0  0  0  0  0  0  0  0  0  0
   20.9095   20.0130   22.0155 C   0  0  0  0  0  0  0  0  0  0  0  0
   21.8925   20.4571   22.2262 H   0  0  0  0  0  0  0  0  0  0  0  0
   20.2609   20.8431   21.7018 H   0  0  0  0  0  0  0  0  0  0  0  0
   21.0571   19.0097   20.8503 C   0  0  0  0  0  0  0  0  0  0  0  0
   21.6660   18.1455   21.1461 H   0  0  0  0  0  0  0  0  0  0  0  0
   21.5488   19.4875   19.9930 H   0  0  0  0  0  0  0  0  0  0  0  0
   20.0802   18.6472   20.5071 H   0  0  0  0  0  0  0  0  0  0  0  0
  1  2  1  0  0  0  0
  1  3  1  0  0  0  0
  1  4  1  0  0  0  0
  1  5  1  0  0  0  0
  5  6  1  0  0  0  0
  5  7  1  0  0  0  0
  7  8  1  0  0  0  0
  7  9  1  0  0  0  0
  7 10  1  0  0  0  0
  5 11  1  0  0  0  0
 11 12  1  0  0  0  0
 11 13  1  0  0  0  0
 11 14  1  0  0  0  0
 14 15  1  0  0  0  0
 14 16  1  0  0  0  0
 14 17  1  0  0  0  0
 17 18  1  0  0  0  0
 17 19  1  0  0  0  0
 17 20  1  0  0  0  0
M  END
> <VConfSearch Rank>
107

> <Conf_Id>
3

> <Delta U+W>
3.093

> <U+W>
-33.184

> <U>
25.256

> <W>
-58.439

> <W(PB)>
-60.337

> <W(SA)>
1.898

> <Valence>
4.963

> <Coulomb>
19.511

> <VdW>
0.782

> <VdW6>
-5.429

> <VdW12>
6.211

> <Bond>
0.174

> <Angle>
1.377

> <Pdih>
3.412

> <Idih>
0.000

> <Tether>
0.000

$$$$
VeraChem MOL file


 20 19  0  0  0  0  0  0  0  0999 V2000     
   19.6159   18.2702   20.5837 N   0  3  0  0  0  0  0  0  0  0  0  0
   19.5741   17.2870   20.3022 H   0  0  0  0  0  0  0  0  0  0  0  0
   20.4776   18.6603   20.1925 H   0  0  0  0  0  0  0  0  0  0  0  0
   18.8313   18.7486   20.1340 H   0  0  0  0  0  0  0  0  0  0  0  0
   19.5687   18.4173   22.0798 C   0  0  2  0  0  0  0  0  0  0  0  0
   20.4359   17.8753   22.4687 H   0  0  0  0  0  0  0  0  0  0  0  0
   18.2939   17.7626   22.6424 C   0  0  0  0  0  0  0  0  0  0  0  0
   18.3103   17.7370   23.7381 H   0  0  0  0  0  0  0  0  0  0  0  0
   18.2060   16.7259   22.2950 H   0  0  0  0  0  0  0  0  0  0  0  0
   17.3952   18.3055   22.3244 H   0  0  0  0  0  0  0  0  0  0  0  0
   19.6942   19.9011   22.5008 C   0  0  0  0  0  0  0  0  0  0  0  0
   20.5740   20.3334   22.0063 H   0  0  0  0  0  0  0  0  0  0  0  0
   18.8277   20.4603   22.1237 H   0  0  0  0  0  0  0  0  0  0  0  0
   19.8259   20.1403   24.0268 C   0  0  0  0  0  0  0  0  0  0  0  0
   18.9031   19.8402   24.5412 H   0  0  0  0  0  0  0  0  0  0  0  0
   19.9316   21.2195   24.2058 H   0  0  0  0  0  0  0  0  0  0  0  0
   21.0349   19.4083   24.6527 C   0  0  0  0  0  0  0  0  0  0  0  0
   21.9701   19.6908   24.1520 H   0  0  0  0  0  0  0  0  0  0  0  0
   20.9251   18.3185   24.5861 H   0  0  0  0  0  0  0  0  0  0  0  0
   21.1327   19.6663   25.7151 H   0  0  0  0  0  0  0  0  0  0  0  0
  1  2  1  0  0  0  0
  1  3  1  0  0  0  0
  1  4  1  0  0  0  0
  1  5  1  0  0  0  0
  5  6  1  0  0  0  0
  5  7  1  0  0  0  0
  7  8  1  0  0  0  0
  7  9  1  0  0  0  0
  7 10  1  0  0  0  0
  5 11  1  0  0  0  0
 11 12  1  0  0  0  0
 11 13  1  0  0  0  0
 11 14  1  0  0  0  0
 14 15  1  0  0  0  0
 14 16  1  0  0  0  0
 14 17  1  0  0  0  0
 17 18  1  0  0  0  0
 17 19  1  0  0  0  0
 17 20  1  0  0  0  0
M  END
> <VConfSearch Rank>
108

> <Conf_Id>
64

> <Delta U+W>
0.544

> <U+W>
-35.732

> <U>
22.800

> <W>
-58.532

> <W(PB)>
-60.437

> <W(SA)>
1.905

> <Valence>
2.662

> <Coulomb>
19.485

> <VdW>
0.653

> <VdW6>
-5.460

> <VdW12>
6.113

> <Bond>
0.174

> <Angle>
1.378

> <Pdih>
1.109

> <Idih>
0.000

> <Tether>
0.000

$$$$
VeraChem MOL file


 20 19  0  0  0  0  0  0  0  0999 V2000     
   18.2732   19.6958   21.4437 N   0  3  0  0  0  0  0  0  0  0  0  0
   19.0963   20.2115   21.1246 H   0  0  0  0  0  0  0  0  0  0  0  0
   17.5192   20.3752   21.5763 H   0  0  0  0  0  0  0  0  0  0  0  0
   17.9886   19.0711   20.6844 H   0  0  0  0  0  0  0  0  0  0  0  0
   18.5569   18.9343   22.7104 C   0  0  2  0  0  0  0  0  0  0  0  0
   17.6211   18.4310   22.9728 H   0  0  0  0  0  0  0  0  0  0  0  0
   18.9005   19.8939   23.8615 C   0  0  0  0  0  0  0  0  0  0  0  0
   19.7554   20.5323   23.6103 H   0  0  0  0  0  0  0  0  0  0  0  0
   19.1363   19.3376   24.7770 H   0  0  0  0  0  0  0  0  0  0  0  0
   18.0487   20.5492   24.0807 H   0  0  0  0  0  0  0  0  0  0  0  0
   19.6228   17.8283   22.5071 C   0  0  0  0  0  0  0  0  0  0  0  0
   19.6655   17.1946   23.4027 H   0  0  0  0  0  0  0  0  0  0  0  0
   19.2633   17.1699   21.7054 H   0  0  0  0  0  0  0  0  0  0  0  0
   21.0522   18.3119   22.1353 C   0  0  0  0  0  0  0  0  0  0  0  0
   21.0124   19.2441   21.5568 H   0  0  0  0  0  0  0  0  0  0  0  0
   21.5074   17.5658   21.4690 H   0  0  0  0  0  0  0  0  0  0  0  0
   21.9842   18.4834   23.3579 C   0  0  0  0  0  0  0  0  0  0  0  0
   21.6193   19.2481   24.0522 H   0  0  0  0  0  0  0  0  0  0  0  0
   22.9893   18.7837   23.0344 H   0  0  0  0  0  0  0  0  0  0  0  0
   22.0821   17.5412   23.9127 H   0  0  0  0  0  0  0  0  0  0  0  0
  1  2  1  0  0  0  0
  1  3  1  0  0  0  0
  1  4  1  0  0  0  0
  1  5  1  0  0  0  0
  5  6  1  0  0  0  0
  5  7  1  0  0  0  0
  7  8  1  0  0  0  0
  7  9  1  0  0  0  0
  7 10  1  0  0  0  0
  5 11  1  0  0  0  0
 11 12  1  0  0  0  0
 11 13  1  0  0  0  0
 11 14  1  0  0  0  0
 14 15  1  0  0  0  0
 14 16  1  0  0  0  0
 14 17  1  0  0  0  0
 17 18  1  0  0  0  0
 17 19  1  0  0  0  0
 17 20  1  0  0  0  0
M  END
> <VConfSearch Rank>
109

> <Conf_Id>
35

> <Delta U+W>
3.004

> <U+W>
-33.272

> <U>
25.367

> <W>
-58.639

> <W(PB)>
-60.512

> <W(SA)>
1.873

> <Valence>
4.943

> <Coulomb>
19.661

> <VdW>
0.764

> <VdW6>
-5.871

> <VdW12>
6.636

> <Bond>
0.230

> <Angle>
1.857

> <Pdih>
2.855

> <Idih>
0.000

> <Tether>
0.000

$$$$
VeraChem MOL file


 20 19  0  0  0  0  0  0  0  0999 V2000     
   21.1966   19.6458   21.8135 N   0  3  0  0  0  0  0  0  0  0  0  0
   21.3839   20.3854   21.1313 H   0  0  0  0  0  0  0  0  0  0  0  0
   21.9962   19.0070   21.7976 H   0  0  0  0  0  0  0  0  0  0  0  0
   21.1685   20.0776   22.7391 H   0  0  0  0  0  0  0  0  0  0  0  0
   19.9111   18.9266   21.5090 C   0  0  2  0  0  0  0  0  0  0  0  0
   20.0551   18.4837   20.5186 H   0  0  0  0  0  0  0  0  0  0  0  0
   18.7300   19.9077   21.4047 C   0  0  0  0  0  0  0  0  0  0  0  0
   18.5814   20.4633   22.3383 H   0  0  0  0  0  0  0  0  0  0  0  0
   17.8007   19.3740   21.1698 H   0  0  0  0  0  0  0  0  0  0  0  0
   18.9058   20.6371   20.6047 H   0  0  0  0  0  0  0  0  0  0  0  0
   19.6235   17.7572   22.4853 C   0  0  0  0  0  0  0  0  0  0  0  0
   18.8678   17.1123   22.0178 H   0  0  0  0  0  0  0  0  0  0  0  0
   20.5242   17.1352   22.5700 H   0  0  0  0  0  0  0  0  0  0  0  0
   19.1188   18.1247   23.9090 C   0  0  0  0  0  0  0  0  0  0  0  0
   18.9220   17.1891   24.4510 H   0  0  0  0  0  0  0  0  0  0  0  0
   18.1501   18.6391   23.8488 H   0  0  0  0  0  0  0  0  0  0  0  0
   20.1056   18.9708   24.7451 C   0  0  0  0  0  0  0  0  0  0  0  0
   21.1080   18.5232   24.7515 H   0  0  0  0  0  0  0  0  0  0  0  0
   19.7635   19.0345   25.7863 H   0  0  0  0  0  0  0  0  0  0  0  0
   20.1778   19.9972   24.3676 H   0  0  0  0  0  0  0  0  0  0  0  0
  1  2  1  0  0  0  0
  1  3  1  0  0  0  0
  1  4  1  0  0  0  0
  1  5  1  0  0  0  0
  5  6  1  0  0  0  0
  5  7  1  0  0  0  0
  7  8  1  0  0  0  0
  7  9  1  0  0  0  0
  7 10  1  0  0  0  0
  5 11  1  0  0  0  0
 11 12  1  0  0  0  0
 11 13  1  0  0  0  0
 11 14  1  0  0  0  0
 14 15  1  0  0  0  0
 14 16  1  0  0  0  0
 14 17  1  0  0  0  0
 17 18  1  0  0  0  0
 17 19  1  0  0  0  0
 17 20  1  0  0  0  0
M  END
> <VConfSearch Rank>
110

> <Conf_Id>
55

> <Delta U+W>
2.767

> <U+W>
-33.509

> <U>
24.552

> <W>
-58.061

> <W(PB)>
-59.930

> <W(SA)>
1.869

> <Valence>
3.726

> <Coulomb>
20.219

> <VdW>
0.606

> <VdW6>
-6.395

> <VdW12>
7.001

> <Bond>
0.241

> <Angle>
2.098

> <Pdih>
1.387

> <Idih>
0.000

> <Tether>
0.000

$$$$
VeraChem MOL file


 20 19  0  0  0  0  0  0  0  0999 V2000     
   19.4133   17.1478   22.0046 N   0  3  0  0  0  0  0  0  0  0  0  0
   20.3621   16.9590   21.6718 H   0  0  0  0  0  0  0  0  0  0  0  0
   18.7763   16.5605   21.4596 H   0  0  0  0  0  0  0  0  0  0  0  0
   19.3599   16.8329   22.9765 H   0  0  0  0  0  0  0  0  0  0  0  0
   19.0639   18.6060   21.8762 C   0  0  2  0  0  0  0  0  0  0  0  0
   18.0433   18.7197   22.2549 H   0  0  0  0  0  0  0  0  0  0  0  0
   19.0803   19.0374   20.4006 C   0  0  0  0  0  0  0  0  0  0  0  0
   18.3937   18.4206   19.8078 H   0  0  0  0  0  0  0  0  0  0  0  0
   20.0847   18.9413   19.9696 H   0  0  0  0  0  0  0  0  0  0  0  0
   18.7624   20.0822   20.2960 H   0  0  0  0  0  0  0  0  0  0  0  0
   19.9927   19.5146   22.7116 C   0  0  0  0  0  0  0  0  0  0  0  0
   21.0290   19.4013   22.3666 H   0  0  0  0  0  0  0  0  0  0  0  0
   19.7167   20.5626   22.5335 H   0  0  0  0  0  0  0  0  0  0  0  0
   19.9129   19.2292   24.2307 C   0  0  0  0  0  0  0  0  0  0  0  0
   20.2390   18.2018   24.4418 H   0  0  0  0  0  0  0  0  0  0  0  0
   18.8697   19.3079   24.5680 H   0  0  0  0  0  0  0  0  0  0  0  0
   20.7873   20.2098   25.0415 C   0  0  0  0  0  0  0  0  0  0  0  0
   21.8425   20.1332   24.7482 H   0  0  0  0  0  0  0  0  0  0  0  0
   20.7200   19.9923   26.1154 H   0  0  0  0  0  0  0  0  0  0  0  0
   20.4644   21.2477   24.8879 H   0  0  0  0  0  0  0  0  0  0  0  0
  1  2  1  0  0  0  0
  1  3  1  0  0  0  0
  1  4  1  0  0  0  0
  1  5  1  0  0  0  0
  5  6  1  0  0  0  0
  5  7  1  0  0  0  0
  7  8  1  0  0  0  0
  7  9  1  0  0  0  0
  7 10  1  0  0  0  0
  5 11  1  0  0  0  0
 11 12  1  0  0  0  0
 11 13  1  0  0  0  0
 11 14  1  0  0  0  0
 14 15  1  0  0  0  0
 14 16  1  0  0  0  0
 14 17  1  0  0  0  0
 17 18  1  0  0  0  0
 17 19  1  0  0  0  0
 17 20  1  0  0  0  0
M  END
> <VConfSearch Rank>
111

> <Conf_Id>
74

> <Delta U+W>
0.000

> <U+W>
-36.276

> <U>
22.080

> <W>
-58.356

> <W(PB)>
-60.289

> <W(SA)>
1.932

> <Valence>
1.885

> <Coulomb>
19.559

> <VdW>
0.637

> <VdW6>
-4.482

> <VdW12>
5.119

> <Bond>
0.136

> <Angle>
0.867

> <Pdih>
0.882

> <Idih>
0.000

> <Tether>
0.000

$$$$
VeraChem MOL file


 20 19  0  0  0  0  0  0  0  0999 V2000     
   19.6935   16.9657   24.0787 N   0  3  0  0  0  0  0  0  0  0  0  0
   20.6885   16.8215   24.2711 H   0  0  0  0  0  0  0  0  0  0  0  0
   19.4217   16.2971   23.3536 H   0  0  0  0  0  0  0  0  0  0  0  0
   19.1821   16.7164   24.9295 H   0  0  0  0  0  0  0  0  0  0  0  0
   19.4082   18.3819   23.6596 C   0  0  2  0  0  0  0  0  0  0  0  0
   19.7258   19.0191   24.4908 H   0  0  0  0  0  0  0  0  0  0  0  0
   17.8965   18.5807   23.4447 C   0  0  0  0  0  0  0  0  0  0  0  0
   17.3341   18.2488   24.3260 H   0  0  0  0  0  0  0  0  0  0  0  0
   17.5398   18.0091   22.5789 H   0  0  0  0  0  0  0  0  0  0  0  0
   17.6515   19.6369   23.2842 H   0  0  0  0  0  0  0  0  0  0  0  0
   20.2310   18.7719   22.4097 C   0  0  0  0  0  0  0  0  0  0  0  0
   21.2812   18.5058   22.5882 H   0  0  0  0  0  0  0  0  0  0  0  0
   19.9015   18.1748   21.5489 H   0  0  0  0  0  0  0  0  0  0  0  0
   20.1587   20.2780   22.0582 C   0  0  0  0  0  0  0  0  0  0  0  0
   20.4279   20.8776   22.9392 H   0  0  0  0  0  0  0  0  0  0  0  0
   19.1325   20.5568   21.7844 H   0  0  0  0  0  0  0  0  0  0  0  0
   21.1010   20.6359   20.8887 C   0  0  0  0  0  0  0  0  0  0  0  0
   22.1460   20.4120   21.1394 H   0  0  0  0  0  0  0  0  0  0  0  0
   21.0344   21.7055   20.6506 H   0  0  0  0  0  0  0  0  0  0  0  0
   20.8384   20.0728   19.9836 H   0  0  0  0  0  0  0  0  0  0  0  0
  1  2  1  0  0  0  0
  1  3  1  0  0  0  0
  1  4  1  0  0  0  0
  1  5  1  0  0  0  0
  5  6  1  0  0  0  0
  5  7  1  0  0  0  0
  7  8  1  0  0  0  0
  7  9  1  0  0  0  0
  7 10  1  0  0  0  0
  5 11  1  0  0  0  0
 11 12  1  0  0  0  0
 11 13  1  0  0  0  0
 11 14  1  0  0  0  0
 14 15  1  0  0  0  0
 14 16  1  0  0  0  0
 14 17  1  0  0  0  0
 17 18  1  0  0  0  0
 17 19  1  0  0  0  0
 17 20  1  0  0  0  0
M  END
> <VConfSearch Rank>
112

> <Conf_Id>
80

> <Delta U+W>
0.460

> <U+W>
-35.817

> <U>
22.495

> <W>
-58.311

> <W(PB)>
-60.259

> <W(SA)>
1.948

> <Valence>
2.419

> <Coulomb>
19.304

> <VdW>
0.772

> <VdW6>
-4.635

> <VdW12>
5.407

> <Bond>
0.149

> <Angle>
1.142

> <Pdih>
1.129

> <Idih>
0.000

> <Tether>
0.000

$$$$
VeraChem MOL file


 20 19  0  0  0  0  0  0  0  0999 V2000     
   20.5752   20.9348   23.6726 N   0  3  0  0  0  0  0  0  0  0  0  0
   20.7667   21.6275   22.9438 H   0  0  0  0  0  0  0  0  0  0  0  0
   21.4733   20.5426   23.9664 H   0  0  0  0  0  0  0  0  0  0  0  0
   20.1867   21.4389   24.4741 H   0  0  0  0  0  0  0  0  0  0  0  0
   19.6368   19.8634   23.1884 C   0  0  2  0  0  0  0  0  0  0  0  0
   18.7107   20.3728   22.9047 H   0  0  0  0  0  0  0  0  0  0  0  0
   19.3132   18.8838   24.3295 C   0  0  0  0  0  0  0  0  0  0  0  0
   19.0006   19.4271   25.2296 H   0  0  0  0  0  0  0  0  0  0  0  0
   20.1855   18.2704   24.5871 H   0  0  0  0  0  0  0  0  0  0  0  0
   18.4875   18.2183   24.0532 H   0  0  0  0  0  0  0  0  0  0  0  0
   20.2009   19.1573   21.9312 C   0  0  0  0  0  0  0  0  0  0  0  0
   20.4338   19.9360   21.1929 H   0  0  0  0  0  0  0  0  0  0  0  0
   21.1579   18.6726   22.1655 H   0  0  0  0  0  0  0  0  0  0  0  0
   19.2362   18.1441   21.2601 C   0  0  0  0  0  0  0  0  0  0  0  0
   19.3633   18.2085   20.1702 H   0  0  0  0  0  0  0  0  0  0  0  0
   18.1915   18.4224   21.4579 H   0  0  0  0  0  0  0  0  0  0  0  0
   19.4926   16.6783   21.6827 C   0  0  0  0  0  0  0  0  0  0  0  0
   20.5120   16.3672   21.4197 H   0  0  0  0  0  0  0  0  0  0  0  0
   18.7965   16.0030   21.1685 H   0  0  0  0  0  0  0  0  0  0  0  0
   19.3629   16.5300   22.7605 H   0  0  0  0  0  0  0  0  0  0  0  0
  1  2  1  0  0  0  0
  1  3  1  0  0  0  0
  1  4  1  0  0  0  0
  1  5  1  0  0  0  0
  5  6  1  0  0  0  0
  5  7  1  0  0  0  0
  7  8  1  0  0  0  0
  7  9  1  0  0  0  0
  7 10  1  0  0  0  0
  5 11  1  0  0  0  0
 11 12  1  0  0  0  0
 11 13  1  0  0  0  0
 11 14  1  0  0  0  0
 14 15  1  0  0  0  0
 14 16  1  0  0  0  0
 14 17  1  0  0  0  0
 17 18  1  0  0  0  0
 17 19  1  0  0  0  0
 17 20  1  0  0  0  0
M  END
> <VConfSearch Rank>
113

> <Conf_Id>
52

> <Delta U+W>
2.995

> <U+W>
-33.282

> <U>
25.224

> <W>
-58.506

> <W(PB)>
-60.411

> <W(SA)>
1.905

> <Valence>
4.945

> <Coulomb>
19.467

> <VdW>
0.813

> <VdW6>
-5.458

> <VdW12>
6.270

> <Bond>
0.200

> <Angle>
1.675

> <Pdih>
3.070

> <Idih>
0.000

> <Tether>
0.000

$$$$
VeraChem MOL file


 20 19  0  0  0  0  0  0  0  0999 V2000     
   21.2308   19.6828   22.7273 N   0  3  0  0  0  0  0  0  0  0  0  0
   21.1490   20.5091   23.3248 H   0  0  0  0  0  0  0  0  0  0  0  0
   22.0433   19.8230   22.1208 H   0  0  0  0  0  0  0  0  0  0  0  0
   21.4322   18.8853   23.3342 H   0  0  0  0  0  0  0  0  0  0  0  0
   19.9765   19.4577   21.9278 C   0  0  2  0  0  0  0  0  0  0  0  0
   20.1567   18.5924   21.2824 H   0  0  0  0  0  0  0  0  0  0  0  0
   19.7035   20.6775   21.0315 C   0  0  0  0  0  0  0  0  0  0  0  0
   19.4998   21.5734   21.6312 H   0  0  0  0  0  0  0  0  0  0  0  0
   18.8391   20.4985   20.3799 H   0  0  0  0  0  0  0  0  0  0  0  0
   20.5657   20.8866   20.3863 H   0  0  0  0  0  0  0  0  0  0  0  0
   18.7459   19.1542   22.8153 C   0  0  0  0  0  0  0  0  0  0  0  0
   18.6906   19.8780   23.6391 H   0  0  0  0  0  0  0  0  0  0  0  0
   17.8372   19.3096   22.2185 H   0  0  0  0  0  0  0  0  0  0  0  0
   18.6857   17.7070   23.3707 C   0  0  0  0  0  0  0  0  0  0  0  0
   18.6938   16.9900   22.5377 H   0  0  0  0  0  0  0  0  0  0  0  0
   17.7180   17.5739   23.8746 H   0  0  0  0  0  0  0  0  0  0  0  0
   19.8082   17.3481   24.3710 C   0  0  0  0  0  0  0  0  0  0  0  0
   19.5839   16.3940   24.8657 H   0  0  0  0  0  0  0  0  0  0  0  0
   19.9061   18.1124   25.1530 H   0  0  0  0  0  0  0  0  0  0  0  0
   20.7745   17.2268   23.8680 H   0  0  0  0  0  0  0  0  0  0  0  0
  1  2  1  0  0  0  0
  1  3  1  0  0  0  0
  1  4  1  0  0  0  0
  1  5  1  0  0  0  0
  5  6  1  0  0  0  0
  5  7  1  0  0  0  0
  7  8  1  0  0  0  0
  7  9  1  0  0  0  0
  7 10  1  0  0  0  0
  5 11  1  0  0  0  0
 11 12  1  0  0  0  0
 11 13  1  0  0  0  0
 11 14  1  0  0  0  0
 14 15  1  0  0  0  0
 14 16  1  0  0  0  0
 14 17  1  0  0  0  0
 17 18  1  0  0  0  0
 17 19  1  0  0  0  0
 17 20  1  0  0  0  0
M  END
> <VConfSearch Rank>
114

> <Conf_Id>
54

> <Delta U+W>
2.752

> <U+W>
-33.525

> <U>
24.337

> <W>
-57.862

> <W(PB)>
-59.764

> <W(SA)>
1.901

> <Valence>
3.593

> <Coulomb>
20.067

> <VdW>
0.677

> <VdW6>
-5.466

> <VdW12>
6.144

> <Bond>
0.191

> <Angle>
1.557

> <Pdih>
1.845

> <Idih>
0.000

> <Tether>
0.000

$$$$
VeraChem MOL file


 20 19  0  0  0  0  0  0  0  0999 V2000     
   20.8928   18.3761   24.3223 N   0  3  0  0  0  0  0  0  0  0  0  0
   21.0898   18.5674   25.3083 H   0  0  0  0  0  0  0  0  0  0  0  0
   21.7534   18.0100   23.9062 H   0  0  0  0  0  0  0  0  0  0  0  0
   20.1942   17.6302   24.2897 H   0  0  0  0  0  0  0  0  0  0  0  0
   20.4138   19.6100   23.6070 C   0  0  2  0  0  0  0  0  0  0  0  0
   21.2139   20.3497   23.7104 H   0  0  0  0  0  0  0  0  0  0  0  0
   19.1577   20.1884   24.2827 C   0  0  0  0  0  0  0  0  0  0  0  0
   18.8106   21.0867   23.7572 H   0  0  0  0  0  0  0  0  0  0  0  0
   19.3767   20.4739   25.3188 H   0  0  0  0  0  0  0  0  0  0  0  0
   18.3363   19.4625   24.3023 H   0  0  0  0  0  0  0  0  0  0  0  0
   20.2027   19.3729   22.0923 C   0  0  0  0  0  0  0  0  0  0  0  0
   19.9428   20.3287   21.6183 H   0  0  0  0  0  0  0  0  0  0  0  0
   21.1614   19.0695   21.6517 H   0  0  0  0  0  0  0  0  0  0  0  0
   19.1238   18.3167   21.7391 C   0  0  0  0  0  0  0  0  0  0  0  0
   18.1451   18.6285   22.1276 H   0  0  0  0  0  0  0  0  0  0  0  0
   19.3640   17.3558   22.2138 H   0  0  0  0  0  0  0  0  0  0  0  0
   19.0119   18.1097   20.2134 C   0  0  0  0  0  0  0  0  0  0  0  0
   18.2436   17.3616   19.9789 H   0  0  0  0  0  0  0  0  0  0  0  0
   19.9626   17.7588   19.7911 H   0  0  0  0  0  0  0  0  0  0  0  0
   18.7372   19.0441   19.7069 H   0  0  0  0  0  0  0  0  0  0  0  0
  1  2  1  0  0  0  0
  1  3  1  0  0  0  0
  1  4  1  0  0  0  0
  1  5  1  0  0  0  0
  5  6  1  0  0  0  0
  5  7  1  0  0  0  0
  7  8  1  0  0  0  0
  7  9  1  0  0  0  0
  7 10  1  0  0  0  0
  5 11  1  0  0  0  0
 11 12  1  0  0  0  0
 11 13  1  0  0  0  0
 11 14  1  0  0  0  0
 14 15  1  0  0  0  0
 14 16  1  0  0  0  0
 14 17  1  0  0  0  0
 17 18  1  0  0  0  0
 17 19  1  0  0  0  0
 17 20  1  0  0  0  0
M  END
> <VConfSearch Rank>
115

> <Conf_Id>
63

> <Delta U+W>
0.420

> <U+W>
-35.856

> <U>
22.625

> <W>
-58.481

> <W(PB)>
-60.400

> <W(SA)>
1.919

> <Valence>
2.404

> <Coulomb>
19.464

> <VdW>
0.757

> <VdW6>
-5.074

> <VdW12>
5.830

> <Bond>
0.172

> <Angle>
1.207

> <Pdih>
1.025

> <Idih>
0.000

> <Tether>
0.000

$$$$
VeraChem MOL file


 20 19  0  0  0  0  0  0  0  0999 V2000     
   20.2573   17.3050   22.8626 N   0  3  0  0  0  0  0  0  0  0  0  0
   20.9159   17.5831   22.1305 H   0  0  0  0  0  0  0  0  0  0  0  0
   19.5768   16.6692   22.4395 H   0  0  0  0  0  0  0  0  0  0  0  0
   20.7828   16.7710   23.5598 H   0  0  0  0  0  0  0  0  0  0  0  0
   19.5848   18.5029   23.4767 C   0  0  2  0  0  0  0  0  0  0  0  0
   20.3774   19.1236   23.9052 H   0  0  0  0  0  0  0  0  0  0  0  0
   18.6453   18.0738   24.6154 C   0  0  0  0  0  0  0  0  0  0  0  0
   19.1933   17.5076   25.3786 H   0  0  0  0  0  0  0  0  0  0  0  0
   17.8297   17.4422   24.2414 H   0  0  0  0  0  0  0  0  0  0  0  0
   18.2019   18.9494   25.1057 H   0  0  0  0  0  0  0  0  0  0  0  0
   18.8169   19.3482   22.4352 C   0  0  0  0  0  0  0  0  0  0  0  0
   18.0052   18.7467   22.0048 H   0  0  0  0  0  0  0  0  0  0  0  0
   18.3350   20.1926   22.9457 H   0  0  0  0  0  0  0  0  0  0  0  0
   19.7014   19.9002   21.2885 C   0  0  0  0  0  0  0  0  0  0  0  0
   19.0679   20.4797   20.6024 H   0  0  0  0  0  0  0  0  0  0  0  0
   20.1123   19.0733   20.6937 H   0  0  0  0  0  0  0  0  0  0  0  0
   20.8512   20.8029   21.7911 C   0  0  0  0  0  0  0  0  0  0  0  0
   20.4644   21.6381   22.3893 H   0  0  0  0  0  0  0  0  0  0  0  0
   21.4055   21.2270   20.9438 H   0  0  0  0  0  0  0  0  0  0  0  0
   21.5664   20.2428   22.4066 H   0  0  0  0  0  0  0  0  0  0  0  0
  1  2  1  0  0  0  0
  1  3  1  0  0  0  0
  1  4  1  0  0  0  0
  1  5  1  0  0  0  0
  5  6  1  0  0  0  0
  5  7  1  0  0  0  0
  7  8  1  0  0  0  0
  7  9  1  0  0  0  0
  7 10  1  0  0  0  0
  5 11  1  0  0  0  0
 11 12  1  0  0  0  0
 11 13  1  0  0  0  0
 11 14  1  0  0  0  0
 14 15  1  0  0  0  0
 14 16  1  0  0  0  0
 14 17  1  0  0  0  0
 17 18  1  0  0  0  0
 17 19  1  0  0  0  0
 17 20  1  0  0  0  0
M  END
> <VConfSearch Rank>
116

> <Conf_Id>
50

> <Delta U+W>
0.466

> <U+W>
-35.811

> <U>
22.369

> <W>
-58.180

> <W(PB)>
-60.103

> <W(SA)>
1.923

> <Valence>
2.168

> <Coulomb>
19.636

> <VdW>
0.566

> <VdW6>
-5.263

> <VdW12>
5.829

> <Bond>
0.162

> <Angle>
1.066

> <Pdih>
0.939

> <Idih>
0.000

> <Tether>
0.000

$$$$
VeraChem MOL file


 20 19  0  0  0  0  0  0  0  0999 V2000     
   21.9276   19.2810   22.3156 N   0  3  0  0  0  0  0  0  0  0  0  0
   22.3006   19.6744   23.1841 H   0  0  0  0  0  0  0  0  0  0  0  0
   21.9627   20.0166   21.6053 H   0  0  0  0  0  0  0  0  0  0  0  0
   22.5694   18.5409   22.0191 H   0  0  0  0  0  0  0  0  0  0  0  0
   20.5292   18.7564   22.4996 C   0  0  2  0  0  0  0  0  0  0  0  0
   20.5926   17.9848   23.2731 H   0  0  0  0  0  0  0  0  0  0  0  0
   20.0342   18.1069   21.1938 C   0  0  0  0  0  0  0  0  0  0  0  0
   20.0008   18.8382   20.3766 H   0  0  0  0  0  0  0  0  0  0  0  0
   19.0297   17.6855   21.3089 H   0  0  0  0  0  0  0  0  0  0  0  0
   20.7018   17.2910   20.8909 H   0  0  0  0  0  0  0  0  0  0  0  0
   19.5592   19.8571   22.9954 C   0  0  0  0  0  0  0  0  0  0  0  0
   20.1428   20.6964   23.3963 H   0  0  0  0  0  0  0  0  0  0  0  0
   18.9863   20.2706   22.1548 H   0  0  0  0  0  0  0  0  0  0  0  0
   18.5973   19.3874   24.1161 C   0  0  0  0  0  0  0  0  0  0  0  0
   18.0066   20.2498   24.4555 H   0  0  0  0  0  0  0  0  0  0  0  0
   19.1812   19.0563   24.9865 H   0  0  0  0  0  0  0  0  0  0  0  0
   17.6310   18.2606   23.6887 C   0  0  0  0  0  0  0  0  0  0  0  0
   17.0621   18.5445   22.7938 H   0  0  0  0  0  0  0  0  0  0  0  0
   16.9107   18.0490   24.4896 H   0  0  0  0  0  0  0  0  0  0  0  0
   18.1699   17.3285   23.4785 H   0  0  0  0  0  0  0  0  0  0  0  0
  1  2  1  0  0  0  0
  1  3  1  0  0  0  0
  1  4  1  0  0  0  0
  1  5  1  0  0  0  0
  5  6  1  0  0  0  0
  5  7  1  0  0  0  0
  7  8  1  0  0  0  0
  7  9  1  0  0  0  0
  7 10  1  0  0  0  0
  5 11  1  0  0  0  0
 11 12  1  0  0  0  0
 11 13  1  0  0  0  0
 11 14  1  0  0  0  0
 14 15  1  0  0  0  0
 14 16  1  0  0  0  0
 14 17  1  0  0  0  0
 17 18  1  0  0  0  0
 17 19  1  0  0  0  0
 17 20  1  0  0  0  0
M  END
> <VConfSearch Rank>
117

> <Conf_Id>
3

> <Delta U+W>
3.093

> <U+W>
-33.184

> <U>
25.256

> <W>
-58.439

> <W(PB)>
-60.337

> <W(SA)>
1.898

> <Valence>
4.963

> <Coulomb>
19.511

> <VdW>
0.782

> <VdW6>
-5.429

> <VdW12>
6.211

> <Bond>
0.174

> <Angle>
1.377

> <Pdih>
3.412

> <Idih>
0.000

> <Tether>
0.000

$$$$
VeraChem MOL file


 20 19  0  0  0  0  0  0  0  0999 V2000     
   19.8391   20.7188   24.1798 N   0  3  0  0  0  0  0  0  0  0  0  0
   20.3191   20.6720   25.0826 H   0  0  0  0  0  0  0  0  0  0  0  0
   18.8626   20.9609   24.3688 H   0  0  0  0  0  0  0  0  0  0  0  0
   20.2513   21.4952   23.6564 H   0  0  0  0  0  0  0  0  0  0  0  0
   19.9540   19.4219   23.4267 C   0  0  2  0  0  0  0  0  0  0  0  0
   19.4943   18.6577   24.0605 H   0  0  0  0  0  0  0  0  0  0  0  0
   21.4341   19.0538   23.2171 C   0  0  0  0  0  0  0  0  0  0  0  0
   21.5377   18.0474   22.7953 H   0  0  0  0  0  0  0  0  0  0  0  0
   21.9737   19.0623   24.1721 H   0  0  0  0  0  0  0  0  0  0  0  0
   21.9278   19.7627   22.5409 H   0  0  0  0  0  0  0  0  0  0  0  0
   19.1747   19.4789   22.0911 C   0  0  0  0  0  0  0  0  0  0  0  0
   18.1523   19.8231   22.2954 H   0  0  0  0  0  0  0  0  0  0  0  0
   19.6266   20.2378   21.4388 H   0  0  0  0  0  0  0  0  0  0  0  0
   19.0922   18.1351   21.3227 C   0  0  0  0  0  0  0  0  0  0  0  0
   20.0907   17.8268   20.9848 H   0  0  0  0  0  0  0  0  0  0  0  0
   18.5005   18.2879   20.4093 H   0  0  0  0  0  0  0  0  0  0  0  0
   18.4481   17.0012   22.1525 C   0  0  0  0  0  0  0  0  0  0  0  0
   17.4485   17.2880   22.5042 H   0  0  0  0  0  0  0  0  0  0  0  0
   19.0593   16.7441   23.0269 H   0  0  0  0  0  0  0  0  0  0  0  0
   18.3416   16.0930   21.5452 H   0  0  0  0  0  0  0  0  0  0  0  0
  1  2  1  0  0  0  0
  1  3  1  0  0  0  0
  1  4  1  0  0  0  0
  1  5  1  0  0  0  0
  5  6  1  0  0  0  0
  5  7  1  0  0  0  0
  7  8  1  0  0  0  0
  7  9  1  0  0  0  0
  7 10  1  0  0  0  0
  5 11  1  0  0  0  0
 11 12  1  0  0  0  0
 11 13  1  0  0  0  0
 11 14  1  0  0  0  0
 14 15  1  0  0  0  0
 14 16  1  0  0  0  0
 14 17  1  0  0  0  0
 17 18  1  0  0  0  0
 17 19  1  0  0  0  0
 17 20  1  0  0  0  0
M  END
> <VConfSearch Rank>
118

> <Conf_Id>
64

> <Delta U+W>
0.544

> <U+W>
-35.732

> <U>
22.800

> <W>
-58.532

> <W(PB)>
-60.437

> <W(SA)>
1.905

> <Valence>
2.662

> <Coulomb>
19.485

> <VdW>
0.653

> <VdW6>
-5.460

> <VdW12>
6.113

> <Bond>
0.174

> <Angle>
1.378

> <Pdih>
1.109

> <Idih>
0.000

> <Tether>
0.000

$$$$
VeraChem MOL file


 20 19  0  0  0  0  0  0  0  0999 V2000     
   21.7001   18.6982   21.8364 N   0  3  0  0  0  0  0  0  0  0  0  0
   21.1002   18.2681   21.1290 H   0  0  0  0  0  0  0  0  0  0  0  0
   22.4837   18.0606   22.0012 H   0  0  0  0  0  0  0  0  0  0  0  0
   22.0863   19.5554   21.4317 H   0  0  0  0  0  0  0  0  0  0  0  0
   20.9418   18.9779   23.1059 C   0  0  2  0  0  0  0  0  0  0  0  0
   21.6665   19.4220   23.7955 H   0  0  0  0  0  0  0  0  0  0  0  0
   20.4411   17.6720   23.7443 C   0  0  0  0  0  0  0  0  0  0  0  0
   19.8115   17.1019   23.0514 H   0  0  0  0  0  0  0  0  0  0  0  0
   19.8630   17.8779   24.6536 H   0  0  0  0  0  0  0  0  0  0  0  0
   21.2880   17.0344   24.0260 H   0  0  0  0  0  0  0  0  0  0  0  0
   19.8149   20.0215   22.9016 C   0  0  0  0  0  0  0  0  0  0  0  0
   19.4122   20.3187   23.8788 H   0  0  0  0  0  0  0  0  0  0  0  0
   20.2786   20.9291   22.4933 H   0  0  0  0  0  0  0  0  0  0  0  0
   18.6531   19.6022   21.9584 C   0  0  0  0  0  0  0  0  0  0  0  0
   19.0100   18.9186   21.1769 H   0  0  0  0  0  0  0  0  0  0  0  0
   18.2948   20.4977   21.4315 H   0  0  0  0  0  0  0  0  0  0  0  0
   17.4482   18.9785   22.7014 C   0  0  0  0  0  0  0  0  0  0  0  0
   17.7161   18.0507   23.2185 H   0  0  0  0  0  0  0  0  0  0  0  0
   16.6427   18.7417   21.9942 H   0  0  0  0  0  0  0  0  0  0  0  0
   17.0417   19.6757   23.4456 H   0  0  0  0  0  0  0  0  0  0  0  0
  1  2  1  0  0  0  0
  1  3  1  0  0  0  0
  1  4  1  0  0  0  0
  1  5  1  0  0  0  0
  5  6  1  0  0  0  0
  5  7  1  0  0  0  0
  7  8  1  0  0  0  0
  7  9  1  0  0  0  0
  7 10  1  0  0  0  0
  5 11  1  0  0  0  0
 11 12  1  0  0  0  0
 11 13  1  0  0  0  0
 11 14  1  0  0  0  0
 14 15  1  0  0  0  0
 14 16  1  0  0  0  0
 14 17  1  0  0  0  0
 17 18  1  0  0  0  0
 17 19  1  0  0  0  0
 17 20  1  0  0  0  0
M  END
> <VConfSearch Rank>
119

> <Conf_Id>
35

> <Delta U+W>
3.004

> <U+W>
-33.272

> <U>
25.367

> <W>
-58.639

> <W(PB)>
-60.512

> <W(SA)>
1.873

> <Valence>
4.943

> <Coulomb>
19.661

> <VdW>
0.764

> <VdW6>
-5.871

> <VdW12>
6.636

> <Bond>
0.230

> <Angle>
1.857

> <Pdih>
2.855

> <Idih>
0.000

> <Tether>
0.000

$$$$
VeraChem MOL file


 20 19  0  0  0  0  0  0  0  0999 V2000     
   19.3444   19.3390   21.0160 N   0  3  0  0  0  0  0  0  0  0  0  0
   19.7051   19.1804   20.0713 H   0  0  0  0  0  0  0  0  0  0  0  0
   18.6573   20.0953   20.9566 H   0  0  0  0  0  0  0  0  0  0  0  0
   18.8459   18.4946   21.3032 H   0  0  0  0  0  0  0  0  0  0  0  0
   20.4495   19.6733   21.9800 C   0  0  2  0  0  0  0  0  0  0  0  0
   20.8965   20.5967   21.5986 H   0  0  0  0  0  0  0  0  0  0  0  0
   21.5477   18.5951   21.9710 C   0  0  0  0  0  0  0  0  0  0  0  0
   21.1525   17.6122   22.2538 H   0  0  0  0  0  0  0  0  0  0  0  0
   22.3540   18.8556   22.6677 H   0  0  0  0  0  0  0  0  0  0  0  0
   21.9888   18.5042   20.9710 H   0  0  0  0  0  0  0  0  0  0  0  0
   19.9356   19.9815   23.4097 C   0  0  0  0  0  0  0  0  0  0  0  0
   20.7373   20.5074   23.9448 H   0  0  0  0  0  0  0  0  0  0  0  0
   19.1097   20.7017   23.3430 H   0  0  0  0  0  0  0  0  0  0  0  0
   19.4937   18.7746   24.2842 C   0  0  0  0  0  0  0  0  0  0  0  0
   19.2040   19.1595   25.2719 H   0  0  0  0  0  0  0  0  0  0  0  0
   20.3450   18.1050   24.4674 H   0  0  0  0  0  0  0  0  0  0  0  0
   18.3081   17.9638   23.7132 C   0  0  0  0  0  0  0  0  0  0  0  0
   17.4716   18.6200   23.4399 H   0  0  0  0  0  0  0  0  0  0  0  0
   17.9400   17.2506   24.4623 H   0  0  0  0  0  0  0  0  0  0  0  0
   18.6040   17.3810   22.8334 H   0  0  0  0  0  0  0  0  0  0  0  0
  1  2  1  0  0  0  0
  1  3  1  0  0  0  0
  1  4  1  0  0  0  0
  1  5  1  0  0  0  0
  5  6  1  0  0  0  0
  5  7  1  0  0  0  0
  7  8  1  0  0  0  0
  7  9  1  0  0  0  0
  7 10  1  0  0  0  0
  5 11  1  0  0  0  0
 11 12  1  0  0  0  0
 11 13  1  0  0  0  0
 11 14  1  0  0  0  0
 14 15  1  0  0  0  0
 14 16  1  0  0  0  0
 14 17  1  0  0  0  0
 17 18  1  0  0  0  0
 17 19  1  0  0  0  0
 17 20  1  0  0  0  0
M  END
> <VConfSearch Rank>
120

> <Conf_Id>
55

> <Delta U+W>
2.767

> <U+W>
-33.509

> <U>
24.552

> <W>
-58.061

> <W(PB)>
-59.930

> <W(SA)>
1.869

> <Valence>
3.726

> <Coulomb>
20.219

> <VdW>
0.606

> <VdW6>
-6.395

> <VdW12>
7.001

> <Bond>
0.241

> <Angle>
2.098

> <Pdih>
1.387

> <Idih>
0.000

> <Tether>
0.000

$$$$
VeraChem MOL file


 20 19  0  0  0  0  0  0  0  0999 V2000     
   18.5127   17.9302   23.8653 N   0  3  0  0  0  0  0  0  0  0  0  0
   19.1759   17.7126   24.6132 H   0  0  0  0  0  0  0  0  0  0  0  0
   17.7811   17.2148   23.8885 H   0  0  0  0  0  0  0  0  0  0  0  0
   18.0711   18.8237   24.0961 H   0  0  0  0  0  0  0  0  0  0  0  0
   19.1919   17.9801   22.5232 C   0  0  2  0  0  0  0  0  0  0  0  0
   18.4182   18.2207   21.7875 H   0  0  0  0  0  0  0  0  0  0  0  0
   19.7847   16.6070   22.1666 C   0  0  0  0  0  0  0  0  0  0  0  0
   19.0073   15.8332   22.1790 H   0  0  0  0  0  0  0  0  0  0  0  0
   20.5683   16.3157   22.8771 H   0  0  0  0  0  0  0  0  0  0  0  0
   20.2234   16.6207   21.1611 H   0  0  0  0  0  0  0  0  0  0  0  0
   20.2830   19.0712   22.4504 C   0  0  0  0  0  0  0  0  0  0  0  0
   21.0618   18.8658   23.1969 H   0  0  0  0  0  0  0  0  0  0  0  0
   20.7705   19.0195   21.4677 H   0  0  0  0  0  0  0  0  0  0  0  0
   19.7252   20.5003   22.6559 C   0  0  0  0  0  0  0  0  0  0  0  0
   19.2812   20.5945   23.6561 H   0  0  0  0  0  0  0  0  0  0  0  0
   18.9212   20.6916   21.9312 H   0  0  0  0  0  0  0  0  0  0  0  0
   20.8257   21.5705   22.4924 C   0  0  0  0  0  0  0  0  0  0  0  0
   21.6308   21.4242   23.2243 H   0  0  0  0  0  0  0  0  0  0  0  0
   20.4133   22.5768   22.6426 H   0  0  0  0  0  0  0  0  0  0  0  0
   21.2666   21.5346   21.4876 H   0  0  0  0  0  0  0  0  0  0  0  0
  1  2  1  0  0  0  0
  1  3  1  0  0  0  0
  1  4  1  0  0  0  0
  1  5  1  0  0  0  0
  5  6  1  0  0  0  0
  5  7  1  0  0  0  0
  7  8  1  0  0  0  0
  7  9  1  0  0  0  0
  7 10  1  0  0  0  0
  5 11  1  0  0  0  0
 11 12  1  0  0  0  0
 11 13  1  0  0  0  0
 11 14  1  0  0  0  0
 14 15  1  0  0  0  0
 14 16  1  0  0  0  0
 14 17  1  0  0  0  0
 17 18  1  0  0  0  0
 17 19  1  0  0  0  0
 17 20  1  0  0  0  0
M  END
> <VConfSearch Rank>
121

> <Conf_Id>
74

> <Delta U+W>
0.000

> <U+W>
-36.276

> <U>
22.080

> <W>
-58.356

> <W(PB)>
-60.289

> <W(SA)>
1.932

> <Valence>
1.885

> <Coulomb>
19.559

> <VdW>
0.637

> <VdW6>
-4.482

> <VdW12>
5.119

> <Bond>
0.136

> <Angle>
0.867

> <Pdih>
0.882

> <Idih>
0.000

> <Tether>
0.000

$$$$
VeraChem MOL file


 20 19  0  0  0  0  0  0  0  0999 V2000     
   21.9029   19.0860   23.7285 N   0  3  0  0  0  0  0  0  0  0  0  0
   21.7232   19.7177   24.5137 H   0  0  0  0  0  0  0  0  0  0  0  0
   22.3645   19.6312   22.9961 H   0  0  0  0  0  0  0  0  0  0  0  0
   22.5731   18.3838   24.0531 H   0  0  0  0  0  0  0  0  0  0  0  0
   20.6362   18.4481   23.2274 C   0  0  2  0  0  0  0  0  0  0  0  0
   20.2182   17.8893   24.0705 H   0  0  0  0  0  0  0  0  0  0  0  0
   20.9510   17.4546   22.0939 C   0  0  0  0  0  0  0  0  0  0  0  0
   21.7218   16.7406   22.4090 H   0  0  0  0  0  0  0  0  0  0  0  0
   21.3151   17.9750   21.1993 H   0  0  0  0  0  0  0  0  0  0  0  0
   20.0652   16.8719   21.8162 H   0  0  0  0  0  0  0  0  0  0  0  0
   19.6045   19.5165   22.7964 C   0  0  0  0  0  0  0  0  0  0  0  0
   19.5071   20.2518   23.6061 H   0  0  0  0  0  0  0  0  0  0  0  0
   19.9825   20.0645   21.9232 H   0  0  0  0  0  0  0  0  0  0  0  0
   18.2015   18.9409   22.4840 C   0  0  0  0  0  0  0  0  0  0  0  0
   17.8498   18.3396   23.3342 H   0  0  0  0  0  0  0  0  0  0  0  0
   18.2495   18.2691   21.6167 H   0  0  0  0  0  0  0  0  0  0  0  0
   17.1790   20.0600   22.1912 C   0  0  0  0  0  0  0  0  0  0  0  0
   17.0688   20.7311   23.0531 H   0  0  0  0  0  0  0  0  0  0  0  0
   16.1918   19.6346   21.9684 H   0  0  0  0  0  0  0  0  0  0  0  0
   17.4889   20.6618   21.3269 H   0  0  0  0  0  0  0  0  0  0  0  0
  1  2  1  0  0  0  0
  1  3  1  0  0  0  0
  1  4  1  0  0  0  0
  1  5  1  0  0  0  0
  5  6  1  0  0  0  0
  5  7  1  0  0  0  0
  7  8  1  0  0  0  0
  7  9  1  0  0  0  0
  7 10  1  0  0  0  0
  5 11  1  0  0  0  0
 11 12  1  0  0  0  0
 11 13  1  0  0  0  0
 11 14  1  0  0  0  0
 14 15  1  0  0  0  0
 14 16  1  0  0  0  0
 14 17  1  0  0  0  0
 17 18  1  0  0  0  0
 17 19  1  0  0  0  0
 17 20  1  0  0  0  0
M  END
> <VConfSearch Rank>
122

> <Conf_Id>
80

> <Delta U+W>
0.460

> <U+W>
-35.817

> <U>
22.495

> <W>
-58.311

> <W(PB)>
-60.259

> <W(SA)>
1.948

> <Valence>
2.419

> <Coulomb>
19.304

> <VdW>
0.772

> <VdW6>
-4.635

> <VdW12>
5.407

> <Bond>
0.149

> <Angle>
1.142

> <Pdih>
1.129

> <Idih>
0.000

> <Tether>
0.000

$$$$
VeraChem MOL file


 20 19  0  0  0  0  0  0  0  0999 V2000     
   17.9008   20.2113   23.4855 N   0  3  0  0  0  0  0  0  0  0  0  0
   17.9349   21.1549   23.0901 H   0  0  0  0  0  0  0  0  0  0  0  0
   18.2265   20.2727   24.4534 H   0  0  0  0  0  0  0  0  0  0  0  0
   16.9170   19.9305   23.5128 H   0  0  0  0  0  0  0  0  0  0  0  0
   18.7279   19.2429   22.6850 C   0  0  2  0  0  0  0  0  0  0  0  0
   18.3049   19.2404   21.6756 H   0  0  0  0  0  0  0  0  0  0  0  0
   18.5937   17.8237   23.2630 C   0  0  0  0  0  0  0  0  0  0  0  0
   17.5380   17.5585   23.3981 H   0  0  0  0  0  0  0  0  0  0  0  0
   19.0931   17.7412   24.2363 H   0  0  0  0  0  0  0  0  0  0  0  0
   19.0269   17.0806   22.5839 H   0  0  0  0  0  0  0  0  0  0  0  0
   20.1989   19.7163   22.5879 C   0  0  0  0  0  0  0  0  0  0  0  0
   20.1892   20.7445   22.2026 H   0  0  0  0  0  0  0  0  0  0  0  0
   20.6447   19.7774   23.5896 H   0  0  0  0  0  0  0  0  0  0  0  0
   21.0996   18.8694   21.6502 C   0  0  0  0  0  0  0  0  0  0  0  0
   21.7982   19.5426   21.1337 H   0  0  0  0  0  0  0  0  0  0  0  0
   20.4953   18.4001   20.8612 H   0  0  0  0  0  0  0  0  0  0  0  0
   21.9332   17.8018   22.3975 C   0  0  0  0  0  0  0  0  0  0  0  0
   22.5965   18.2694   23.1368 H   0  0  0  0  0  0  0  0  0  0  0  0
   22.5630   17.2438   21.6926 H   0  0  0  0  0  0  0  0  0  0  0  0
   21.3013   17.0771   22.9229 H   0  0  0  0  0  0  0  0  0  0  0  0
  1  2  1  0  0  0  0
  1  3  1  0  0  0  0
  1  4  1  0  0  0  0
  1  5  1  0  0  0  0
  5  6  1  0  0  0  0
  5  7  1  0  0  0  0
  7  8  1  0  0  0  0
  7  9  1  0  0  0  0
  7 10  1  0  0  0  0
  5 11  1  0  0  0  0
 11 12  1  0  0  0  0
 11 13  1  0  0  0  0
 11 14  1  0  0  0  0
 14 15  1  0  0  0  0
 14 16  1  0  0  0  0
 14 17  1  0  0  0  0
 17 18  1  0  0  0  0
 17 19  1  0  0  0  0
 17 20  1  0  0  0  0
M  END
> <VConfSearch Rank>
123

> <Conf_Id>
52

> <Delta U+W>
2.995

> <U+W>
-33.282

> <U>
25.224

> <W>
-58.506

> <W(PB)>
-60.411

> <W(SA)>
1.905

> <Valence>
4.945

> <Coulomb>
19.467

> <VdW>
0.813

> <VdW6>
-5.458

> <VdW12>
6.270

> <Bond>
0.200

> <Angle>
1.675

> <Pdih>
3.070

> <Idih>
0.000

> <Tether>
0.000

$$$$
VeraChem MOL file


 20 19  0  0  0  0  0  0  0  0999 V2000     
   21.0617   18.0899   22.4876 N   0  3  0  0  0  0  0  0  0  0  0  0
   21.7313   18.3844   23.2027 H   0  0  0  0  0  0  0  0  0  0  0  0
   21.5929   17.6379   21.7385 H   0  0  0  0  0  0  0  0  0  0  0  0
   20.4567   17.3814   22.9083 H   0  0  0  0  0  0  0  0  0  0  0  0
   20.2617   19.2551   21.9723 C   0  0  2  0  0  0  0  0  0  0  0  0
   19.6072   18.8728   21.1829 H   0  0  0  0  0  0  0  0  0  0  0  0
   21.2036   20.3007   21.3515 C   0  0  0  0  0  0  0  0  0  0  0  0
   21.8739   20.7295   22.1070 H   0  0  0  0  0  0  0  0  0  0  0  0
   20.6332   21.1197   20.8962 H   0  0  0  0  0  0  0  0  0  0  0  0
   21.8199   19.8497   20.5640 H   0  0  0  0  0  0  0  0  0  0  0  0
   19.3782   19.9055   23.0635 C   0  0  0  0  0  0  0  0  0  0  0  0
   19.9681   20.0680   23.9752 H   0  0  0  0  0  0  0  0  0  0  0  0
   19.0761   20.9039   22.7202 H   0  0  0  0  0  0  0  0  0  0  0  0
   18.0798   19.1257   23.3992 C   0  0  0  0  0  0  0  0  0  0  0  0
   17.4729   19.0085   22.4903 H   0  0  0  0  0  0  0  0  0  0  0  0
   17.4800   19.7393   24.0860 H   0  0  0  0  0  0  0  0  0  0  0  0
   18.3033   17.7425   24.0519 C   0  0  0  0  0  0  0  0  0  0  0  0
   17.3545   17.3486   24.4392 H   0  0  0  0  0  0  0  0  0  0  0  0
   19.0045   17.8068   24.8943 H   0  0  0  0  0  0  0  0  0  0  0  0
   18.6809   17.0104   23.3288 H   0  0  0  0  0  0  0  0  0  0  0  0
  1  2  1  0  0  0  0
  1  3  1  0  0  0  0
  1  4  1  0  0  0  0
  1  5  1  0  0  0  0
  5  6  1  0  0  0  0
  5  7  1  0  0  0  0
  7  8  1  0  0  0  0
  7  9  1  0  0  0  0
  7 10  1  0  0  0  0
  5 11  1  0  0  0  0
 11 12  1  0  0  0  0
 11 13  1  0  0  0  0
 11 14  1  0  0  0  0
 14 15  1  0  0  0  0
 14 16  1  0  0  0  0
 14 17  1  0  0  0  0
 17 18  1  0  0  0  0
 17 19  1  0  0  0  0
 17 20  1  0  0  0  0
M  END
> <VConfSearch Rank>
124

> <Conf_Id>
54

> <Delta U+W>
2.752

> <U+W>
-33.525

> <U>
24.337

> <W>
-57.862

> <W(PB)>
-59.764

> <W(SA)>
1.901

> <Valence>
3.593

> <Coulomb>
20.067

> <VdW>
0.677

> <VdW6>
-5.466

> <VdW12>
6.144

> <Bond>
0.191

> <Angle>
1.557

> <Pdih>
1.845

> <Idih>
0.000

> <Tether>
0.000

$$$$
VeraChem MOL file


 20 19  0  0  0  0  0  0  0  0999 V2000     
   18.6713   20.3063   21.5727 N   0  3  0  0  0  0  0  0  0  0  0  0
   18.2649   21.2457   21.5681 H   0  0  0  0  0  0  0  0  0  0  0  0
   18.0824   19.7178   20.9773 H   0  0  0  0  0  0  0  0  0  0  0  0
   19.5906   20.3692   21.1297 H   0  0  0  0  0  0  0  0  0  0  0  0
   18.7703   19.7561   22.9696 C   0  0  2  0  0  0  0  0  0  0  0  0
   17.7490   19.7432   23.3630 H   0  0  0  0  0  0  0  0  0  0  0  0
   19.6029   20.6844   23.8718 C   0  0  0  0  0  0  0  0  0  0  0  0
   19.6742   20.2789   24.8887 H   0  0  0  0  0  0  0  0  0  0  0  0
   19.1338   21.6734   23.9412 H   0  0  0  0  0  0  0  0  0  0  0  0
   20.6192   20.8227   23.4846 H   0  0  0  0  0  0  0  0  0  0  0  0
   19.2899   18.2986   22.9972 C   0  0  0  0  0  0  0  0  0  0  0  0
   19.2521   17.9300   24.0309 H   0  0  0  0  0  0  0  0  0  0  0  0
   18.5919   17.6706   22.4282 H   0  0  0  0  0  0  0  0  0  0  0  0
   20.7223   18.1035   22.4365 C   0  0  0  0  0  0  0  0  0  0  0  0
   21.4438   18.6845   23.0264 H   0  0  0  0  0  0  0  0  0  0  0  0
   20.7800   18.4762   21.4051 H   0  0  0  0  0  0  0  0  0  0  0  0
   21.1417   16.6179   22.4585 C   0  0  0  0  0  0  0  0  0  0  0  0
   22.1576   16.4959   22.0610 H   0  0  0  0  0  0  0  0  0  0  0  0
   20.4655   16.0071   21.8461 H   0  0  0  0  0  0  0  0  0  0  0  0
   21.1305   16.2192   23.4813 H   0  0  0  0  0  0  0  0  0  0  0  0
  1  2  1  0  0  0  0
  1  3  1  0  0  0  0
  1  4  1  0  0  0  0
  1  5  1  0  0  0  0
  5  6  1  0  0  0  0
  5  7  1  0  0  0  0
  7  8  1  0  0  0  0
  7  9  1  0  0  0  0
  7 10  1  0  0  0  0
  5 11  1  0  0  0  0
 11 12  1  0  0  0  0
 11 13  1  0  0  0  0
 11 14  1  0  0  0  0
 14 15  1  0  0  0  0
 14 16  1  0  0  0  0
 14 17  1  0  0  0  0
 17 18  1  0  0  0  0
 17 19  1  0  0  0  0
 17 20  1  0  0  0  0
M  END
> <VConfSearch Rank>
125

> <Conf_Id>
63

> <Delta U+W>
0.420

> <U+W>
-35.856

> <U>
22.625

> <W>
-58.481

> <W(PB)>
-60.400

> <W(SA)>
1.919

> <Valence>
2.404

> <Coulomb>
19.464

> <VdW>
0.757

> <VdW6>
-5.074

> <VdW12>
5.830

> <Bond>
0.172

> <Angle>
1.207

> <Pdih>
1.025

> <Idih>
0.000

> <Tether>
0.000

$$$$
VeraChem MOL file


 20 19  0  0  0  0  0  0  0  0999 V2000     
   20.9732   20.1941   22.7039 N   0  3  0  0  0  0  0  0  0  0  0  0
   21.0148   19.9694   21.7066 H   0  0  0  0  0  0  0  0  0  0  0  0
   21.8254   19.8305   23.1374 H   0  0  0  0  0  0  0  0  0  0  0  0
   20.9978   21.2138   22.7888 H   0  0  0  0  0  0  0  0  0  0  0  0
   19.7397   19.6165   23.3435 C   0  0  2  0  0  0  0  0  0  0  0  0
   18.8817   20.0567   22.8267 H   0  0  0  0  0  0  0  0  0  0  0  0
   19.6601   20.0141   24.8265 C   0  0  0  0  0  0  0  0  0  0  0  0
   19.6752   21.1053   24.9374 H   0  0  0  0  0  0  0  0  0  0  0  0
   20.5029   19.6011   25.3947 H   0  0  0  0  0  0  0  0  0  0  0  0
   18.7306   19.6469   25.2790 H   0  0  0  0  0  0  0  0  0  0  0  0
   19.6601   18.0803   23.1933 C   0  0  0  0  0  0  0  0  0  0  0  0
   20.5055   17.6184   23.7203 H   0  0  0  0  0  0  0  0  0  0  0  0
   18.7523   17.7189   23.6944 H   0  0  0  0  0  0  0  0  0  0  0  0
   19.6472   17.5856   21.7246 C   0  0  0  0  0  0  0  0  0  0  0  0
   19.5938   16.4878   21.7228 H   0  0  0  0  0  0  0  0  0  0  0  0
   20.5932   17.8422   21.2288 H   0  0  0  0  0  0  0  0  0  0  0  0
   18.4610   18.1458   20.9070 C   0  0  0  0  0  0  0  0  0  0  0  0
   17.5029   17.9014   21.3838 H   0  0  0  0  0  0  0  0  0  0  0  0
   18.4519   17.7143   19.8976 H   0  0  0  0  0  0  0  0  0  0  0  0
   18.5221   19.2361   20.7996 H   0  0  0  0  0  0  0  0  0  0  0  0
  1  2  1  0  0  0  0
  1  3  1  0  0  0  0
  1  4  1  0  0  0  0
  1  5  1  0  0  0  0
  5  6  1  0  0  0  0
  5  7  1  0  0  0  0
  7  8  1  0  0  0  0
  7  9  1  0  0  0  0
  7 10  1  0  0  0  0
  5 11  1  0  0  0  0
 11 12  1  0  0  0  0
 11 13  1  0  0  0  0
 11 14  1  0  0  0  0
 14 15  1  0  0  0  0
 14 16  1  0  0  0  0
 14 17  1  0  0  0  0
 17 18  1  0  0  0  0
 17 19  1  0  0  0  0
 17 20  1  0  0  0  0
M  END
> <VConfSearch Rank>
126

> <Conf_Id>
50

> <Delta U+W>
0.466

> <U+W>
-35.811

> <U>
22.369

> <W>
-58.180

> <W(PB)>
-60.103

> <W(SA)>
1.923

> <Valence>
2.168

> <Coulomb>
19.636

> <VdW>
0.566

> <VdW6>
-5.263

> <VdW12>
5.829

> <Bond>
0.162

> <Angle>
1.066

> <Pdih>
0.939

> <Idih>
0.000

> <Tether>
0.000

$$$$
VeraChem MOL file


 20 19  0  0  0  0  0  0  0  0999 V2000     
   19.5660   16.7149   22.0065 N   0  3  0  0  0  0  0  0  0  0  0  0
   20.3156   16.6360   21.3137 H   0  0  0  0  0  0  0  0  0  0  0  0
   18.6767   16.6281   21.5081 H   0  0  0  0  0  0  0  0  0  0  0  0
   19.6451   15.9073   22.6305 H   0  0  0  0  0  0  0  0  0  0  0  0
   19.6487   18.0099   22.7686 C   0  0  2  0  0  0  0  0  0  0  0  0
   20.6264   18.0120   23.2604 H   0  0  0  0  0  0  0  0  0  0  0  0
   18.5523   18.0561   23.8491 C   0  0  0  0  0  0  0  0  0  0  0  0
   17.5525   18.0079   23.4000 H   0  0  0  0  0  0  0  0  0  0  0  0
   18.6101   18.9748   24.4428 H   0  0  0  0  0  0  0  0  0  0  0  0
   18.6545   17.2099   24.5395 H   0  0  0  0  0  0  0  0  0  0  0  0
   19.5792   19.2390   21.8291 C   0  0  0  0  0  0  0  0  0  0  0  0
   19.7900   18.9176   20.8005 H   0  0  0  0  0  0  0  0  0  0  0  0
   18.5604   19.6484   21.8077 H   0  0  0  0  0  0  0  0  0  0  0  0
   20.5949   20.3556   22.1805 C   0  0  0  0  0  0  0  0  0  0  0  0
   20.5259   21.1449   21.4189 H   0  0  0  0  0  0  0  0  0  0  0  0
   21.6169   19.9566   22.1144 H   0  0  0  0  0  0  0  0  0  0  0  0
   20.3813   20.9890   23.5731 C   0  0  0  0  0  0  0  0  0  0  0  0
   19.3544   21.3599   23.6867 H   0  0  0  0  0  0  0  0  0  0  0  0
   21.0615   21.8387   23.7161 H   0  0  0  0  0  0  0  0  0  0  0  0
   20.5833   20.2694   24.3762 H   0  0  0  0  0  0  0  0  0  0  0  0
  1  2  1  0  0  0  0
  1  3  1  0  0  0  0
  1  4  1  0  0  0  0
  1  5  1  0  0  0  0
  5  6  1  0  0  0  0
  5  7  1  0  0  0  0
  7  8  1  0  0  0  0
  7  9  1  0  0  0  0
  7 10  1  0  0  0  0
  5 11  1  0  0  0  0
 11 12  1  0  0  0  0
 11 13  1  0  0  0  0
 11 14  1  0  0  0  0
 14 15  1  0  0  0  0
 14 16  1  0  0  0  0
 14 17  1  0  0  0  0
 17 18  1  0  0  0  0
 17 19  1  0  0  0  0
 17 20  1  0  0  0  0
M  END
> <VConfSearch Rank>
127

> <Conf_Id>
3

> <Delta U+W>
3.093

> <U+W>
-33.184

> <U>
25.256

> <W>
-58.439

> <W(PB)>
-60.337

> <W(SA)>
1.898

> <Valence>
4.963

> <Coulomb>
19.511

> <VdW>
0.782

> <VdW6>
-5.429

> <VdW12>
6.211

> <Bond>
0.174

> <Angle>
1.377

> <Pdih>
3.412

> <Idih>
0.000

> <Tether>
0.000

$$$$
VeraChem MOL file


 20 19  0  0  0  0  0  0  0  0999 V2000     
   21.0911   20.4291   23.7529 N   0  3  0  0  0  0  0  0  0  0  0  0
   21.9622   20.1512   24.2129 H   0  0  0  0  0  0  0  0  0  0  0  0
   20.5044   20.8774   24.4619 H   0  0  0  0  0  0  0  0  0  0  0  0
   21.3285   21.1406   23.0571 H   0  0  0  0  0  0  0  0  0  0  0  0
   20.3997   19.2504   23.1243 C   0  0  2  0  0  0  0  0  0  0  0  0
   20.1911   18.5482   23.9370 H   0  0  0  0  0  0  0  0  0  0  0  0
   21.3321   18.5598   22.1124 C   0  0  0  0  0  0  0  0  0  0  0  0
   20.8986   17.6210   21.7487 H   0  0  0  0  0  0  0  0  0  0  0  0
   22.2941   18.3139   22.5783 H   0  0  0  0  0  0  0  0  0  0  0  0
   21.5279   19.2059   21.2477 H   0  0  0  0  0  0  0  0  0  0  0  0
   19.0538   19.6667   22.4842 C   0  0  0  0  0  0  0  0  0  0  0  0
   18.4680   20.2225   23.2281 H   0  0  0  0  0  0  0  0  0  0  0  0
   19.2444   20.3680   21.6611 H   0  0  0  0  0  0  0  0  0  0  0  0
   18.1874   18.4934   21.9590 C   0  0  0  0  0  0  0  0  0  0  0  0
   18.6889   17.9949   21.1186 H   0  0  0  0  0  0  0  0  0  0  0  0
   17.2524   18.9019   21.5506 H   0  0  0  0  0  0  0  0  0  0  0  0
   17.8449   17.4563   23.0528 C   0  0  0  0  0  0  0  0  0  0  0  0
   17.3445   17.9326   23.9059 H   0  0  0  0  0  0  0  0  0  0  0  0
   18.7444   16.9478   23.4222 H   0  0  0  0  0  0  0  0  0  0  0  0
   17.1700   16.6870   22.6555 H   0  0  0  0  0  0  0  0  0  0  0  0
  1  2  1  0  0  0  0
  1  3  1  0  0  0  0
  1  4  1  0  0  0  0
  1  5  1  0  0  0  0
  5  6  1  0  0  0  0
  5  7  1  0  0  0  0
  7  8  1  0  0  0  0
  7  9  1  0  0  0  0
  7 10  1  0  0  0  0
  5 11  1  0  0  0  0
 11 12  1  0  0  0  0
 11 13  1  0  0  0  0
 11 14  1  0  0  0  0
 14 15  1  0  0  0  0
 14 16  1  0  0  0  0
 14 17  1  0  0  0  0
 17 18  1  0  0  0  0
 17 19  1  0  0  0  0
 17 20  1  0  0  0  0
M  END
> <VConfSearch Rank>
128

> <Conf_Id>
64

> <Delta U+W>
0.544

> <U+W>
-35.732

> <U>
22.800

> <W>
-58.532

> <W(PB)>
-60.437

> <W(SA)>
1.905

> <Valence>
2.662

> <Coulomb>
19.485

> <VdW>
0.653

> <VdW6>
-5.460

> <VdW12>
6.113

> <Bond>
0.174

> <Angle>
1.378

> <Pdih>
1.109

> <Idih>
0.000

> <Tether>
0.000

$$$$
VeraChem MOL file


 20 19  0  0  0  0  0  0  0  0999 V2000     
   21.8511   18.5102   22.8520 N   0  3  0  0  0  0  0  0  0  0  0  0
   21.5268   18.3125   23.8012 H   0  0  0  0  0  0  0  0  0  0  0  0
   22.6874   19.0951   22.9304 H   0  0  0  0  0  0  0  0  0  0  0  0
   22.1405   17.6214   22.4349 H   0  0  0  0  0  0  0  0  0  0  0  0
   20.7829   19.1841   22.0338 C   0  0  2  0  0  0  0  0  0  0  0  0
   21.2273   19.3615   21.0495 H   0  0  0  0  0  0  0  0  0  0  0  0
   20.4205   20.5550   22.6279 C   0  0  0  0  0  0  0  0  0  0  0  0
   20.0925   20.4669   23.6702 H   0  0  0  0  0  0  0  0  0  0  0  0
   19.6209   21.0331   22.0488 H   0  0  0  0  0  0  0  0  0  0  0  0
   21.2904   21.2228   22.6080 H   0  0  0  0  0  0  0  0  0  0  0  0
   19.5474   18.2751   21.8141 C   0  0  0  0  0  0  0  0  0  0  0  0
   18.8811   18.7385   21.0746 H   0  0  0  0  0  0  0  0  0  0  0  0
   19.9014   17.3491   21.3422 H   0  0  0  0  0  0  0  0  0  0  0  0
   18.7393   17.8949   23.0860 C   0  0  0  0  0  0  0  0  0  0  0  0
   19.3943   17.8436   23.9656 H   0  0  0  0  0  0  0  0  0  0  0  0
   18.3396   16.8800   22.9514 H   0  0  0  0  0  0  0  0  0  0  0  0
   17.5460   18.8386   23.3652 C   0  0  0  0  0  0  0  0  0  0  0  0
   17.8684   19.8681   23.5555 H   0  0  0  0  0  0  0  0  0  0  0  0
   16.9872   18.4993   24.2470 H   0  0  0  0  0  0  0  0  0  0  0  0
   16.8496   18.8532   22.5167 H   0  0  0  0  0  0  0  0  0  0  0  0
  1  2  1  0  0  0  0
  1  3  1  0  0  0  0
  1  4  1  0  0  0  0
  1  5  1  0  0  0  0
  5  6  1  0  0  0  0
  5  7  1  0  0  0  0
  7  8  1  0  0  0  0
  7  9  1  0  0  0  0
  7 10  1  0  0  0  0
  5 11  1  0  0  0  0
 11 12  1  0  0  0  0
 11 13  1  0  0  0  0
 11 14  1  0  0  0  0
 14 15  1  0  0  0  0
 14 16  1  0  0  0  0
 14 17  1  0  0  0  0
 17 18  1  0  0  0  0
 17 19  1  0  0  0  0
 17 20  1  0  0  0  0
M  END
> <VConfSearch Rank>
129

> <Conf_Id>
35

> <Delta U+W>
3.004

> <U+W>
-33.272

> <U>
25.367

> <W>
-58.639

> <W(PB)>
-60.512

> <W(SA)>
1.873

> <Valence>
4.943

> <Coulomb>
19.661

> <VdW>
0.764

> <VdW6>
-5.871

> <VdW12>
6.636

> <Bond>
0.230

> <Angle>
1.857

> <Pdih>
2.855

> <Idih>
0.000

> <Tether>
0.000

$$$$
VeraChem MOL file


 20 19  0  0  0  0  0  0  0  0999 V2000     
   20.0132   17.1999   22.6528 N   0  3  0  0  0  0  0  0  0  0  0  0
   19.4307   16.3624   22.5703 H   0  0  0  0  0  0  0  0  0  0  0  0
   20.9206   16.9046   23.0231 H   0  0  0  0  0  0  0  0  0  0  0  0
   20.1706   17.5622   21.7105 H   0  0  0  0  0  0  0  0  0  0  0  0
   19.3695   18.2354   23.5337 C   0  0  2  0  0  0  0  0  0  0  0  0
   19.2706   17.7596   24.5144 H   0  0  0  0  0  0  0  0  0  0  0  0
   17.9511   18.5826   23.0478 C   0  0  0  0  0  0  0  0  0  0  0  0
   17.9592   18.9808   22.0262 H   0  0  0  0  0  0  0  0  0  0  0  0
   17.4869   19.3286   23.7046 H   0  0  0  0  0  0  0  0  0  0  0  0
   17.3133   17.6903   23.0550 H   0  0  0  0  0  0  0  0  0  0  0  0
   20.2506   19.4951   23.7336 C   0  0  0  0  0  0  0  0  0  0  0  0
   19.8654   20.0346   24.6089 H   0  0  0  0  0  0  0  0  0  0  0  0
   21.2650   19.1792   24.0103 H   0  0  0  0  0  0  0  0  0  0  0  0
   20.3321   20.5030   22.5528 C   0  0  0  0  0  0  0  0  0  0  0  0
   20.9531   21.3512   22.8732 H   0  0  0  0  0  0  0  0  0  0  0  0
   19.3402   20.9267   22.3445 H   0  0  0  0  0  0  0  0  0  0  0  0
   20.9343   19.9255   21.2518 C   0  0  0  0  0  0  0  0  0  0  0  0
   21.8888   19.4189   21.4453 H   0  0  0  0  0  0  0  0  0  0  0  0
   21.1260   20.7316   20.5316 H   0  0  0  0  0  0  0  0  0  0  0  0
   20.2494   19.2194   20.7685 H   0  0  0  0  0  0  0  0  0  0  0  0
  1  2  1  0  0  0  0
  1  3  1  0  0  0  0
  1  4  1  0  0  0  0
  1  5  1  0  0  0  0
  5  6  1  0  0  0  0
  5  7  1  0  0  0  0
  7  8  1  0  0  0  0
  7  9  1  0  0  0  0
  7 10  1  0  0  0  0
  5 11  1  0  0  0  0
 11 12  1  0  0  0  0
 11 13  1  0  0  0  0
 11 14  1  0  0  0  0
 14 15  1  0  0  0  0
 14 16  1  0  0  0  0
 14 17  1  0  0  0  0
 17 18  1  0  0  0  0
 17 19  1  0  0  0  0
 17 20  1  0  0  0  0
M  END
> <VConfSearch Rank>
130

> <Conf_Id>
55

> <Delta U+W>
2.767

> <U+W>
-33.509

> <U>
24.552

> <W>
-58.061

> <W(PB)>
-59.930

> <W(SA)>
1.869

> <Valence>
3.726

> <Coulomb>
20.219

> <VdW>
0.606

> <VdW6>
-6.395

> <VdW12>
7.001

> <Bond>
0.241

> <Angle>
2.098

> <Pdih>
1.387

> <Idih>
0.000

> <Tether>
0.000

$$$$
VeraChem MOL file


 20 19  0  0  0  0  0  0  0  0999 V2000     
   18.7614   17.3086   23.1725 N   0  3  0  0  0  0  0  0  0  0  0  0
   18.0423   17.7401   23.7583 H   0  0  0  0  0  0  0  0  0  0  0  0
   18.8433   16.3300   23.4610 H   0  0  0  0  0  0  0  0  0  0  0  0
   18.4172   17.3133   22.2091 H   0  0  0  0  0  0  0  0  0  0  0  0
   20.0767   18.0302   23.2927 C   0  0  2  0  0  0  0  0  0  0  0  0
   20.7820   17.5105   22.6366 H   0  0  0  0  0  0  0  0  0  0  0  0
   20.6086   17.9471   24.7329 C   0  0  0  0  0  0  0  0  0  0  0  0
   20.7095   16.9018   25.0501 H   0  0  0  0  0  0  0  0  0  0  0  0
   19.9351   18.4539   25.4352 H   0  0  0  0  0  0  0  0  0  0  0  0
   21.5981   18.4146   24.8109 H   0  0  0  0  0  0  0  0  0  0  0  0
   19.9892   19.5035   22.8369 C   0  0  0  0  0  0  0  0  0  0  0  0
   19.2684   20.0430   23.4656 H   0  0  0  0  0  0  0  0  0  0  0  0
   20.9644   19.9824   22.9976 H   0  0  0  0  0  0  0  0  0  0  0  0
   19.5992   19.6543   21.3467 C   0  0  0  0  0  0  0  0  0  0  0  0
   18.6005   19.2322   21.1708 H   0  0  0  0  0  0  0  0  0  0  0  0
   20.3004   19.0844   20.7208 H   0  0  0  0  0  0  0  0  0  0  0  0
   19.6042   21.1330   20.9031 C   0  0  0  0  0  0  0  0  0  0  0  0
   18.8896   21.7241   21.4908 H   0  0  0  0  0  0  0  0  0  0  0  0
   19.3243   21.2214   19.8453 H   0  0  0  0  0  0  0  0  0  0  0  0
   20.5995   21.5796   21.0258 H   0  0  0  0  0  0  0  0  0  0  0  0
  1  2  1  0  0  0  0
  1  3  1  0  0  0  0
  1  4  1  0  0  0  0
  1  5  1  0  0  0  0
  5  6  1  0  0  0  0
  5  7  1  0  0  0  0
  7  8  1  0  0  0  0
  7  9  1  0  0  0  0
  7 10  1  0  0  0  0
  5 11  1  0  0  0  0
 11 12  1  0  0  0  0
 11 13  1  0  0  0  0
 11 14  1  0  0  0  0
 14 15  1  0  0  0  0
 14 16  1  0  0  0  0
 14 17  1  0  0  0  0
 17 18  1  0  0  0  0
 17 19  1  0  0  0  0
 17 20  1  0  0  0  0
M  END
> <VConfSearch Rank>
131

> <Conf_Id>
74

> <Delta U+W>
0.000

> <U+W>
-36.276

> <U>
22.080

> <W>
-58.356

> <W(PB)>
-60.289

> <W(SA)>
1.932

> <Valence>
1.885

> <Coulomb>
19.559

> <VdW>
0.637

> <VdW6>
-4.482

> <VdW12>
5.119

> <Bond>
0.136

> <Angle>
0.867

> <Pdih>
0.882

> <Idih>
0.000

> <Tether>
0.000

$$$$
VeraChem MOL file


 20 19  0  0  0  0  0  0  0  0999 V2000     
   18.1109   18.3802   21.0592 N   0  3  0  0  0  0  0  0  0  0  0  0
   18.5240   17.5473   20.6309 H   0  0  0  0  0  0  0  0  0  0  0  0
   18.2792   19.1659   20.4258 H   0  0  0  0  0  0  0  0  0  0  0  0
   17.0990   18.2306   21.0960 H   0  0  0  0  0  0  0  0  0  0  0  0
   18.6790   18.6416   22.4272 C   0  0  2  0  0  0  0  0  0  0  0  0
   18.4503   17.7572   23.0299 H   0  0  0  0  0  0  0  0  0  0  0  0
   17.9880   19.8589   23.0686 C   0  0  0  0  0  0  0  0  0  0  0  0
   16.8978   19.7396   23.0480 H   0  0  0  0  0  0  0  0  0  0  0  0
   18.2386   20.7845   22.5356 H   0  0  0  0  0  0  0  0  0  0  0  0
   18.2801   19.9767   24.1184 H   0  0  0  0  0  0  0  0  0  0  0  0
   20.2158   18.8053   22.3726 C   0  0  0  0  0  0  0  0  0  0  0  0
   20.6354   17.9605   21.8105 H   0  0  0  0  0  0  0  0  0  0  0  0
   20.4713   19.7116   21.8077 H   0  0  0  0  0  0  0  0  0  0  0  0
   20.8897   18.8516   23.7658 C   0  0  0  0  0  0  0  0  0  0  0  0
   20.5837   17.9756   24.3549 H   0  0  0  0  0  0  0  0  0  0  0  0
   20.5587   19.7399   24.3201 H   0  0  0  0  0  0  0  0  0  0  0  0
   22.4293   18.8798   23.6533 C   0  0  0  0  0  0  0  0  0  0  0  0
   22.8053   17.9842   23.1416 H   0  0  0  0  0  0  0  0  0  0  0  0
   22.8902   18.9162   24.6489 H   0  0  0  0  0  0  0  0  0  0  0  0
   22.7682   19.7610   23.0931 H   0  0  0  0  0  0  0  0  0  0  0  0
  1  2  1  0  0  0  0
  1  3  1  0  0  0  0
  1  4  1  0  0  0  0
  1  5  1  0  0  0  0
  5  6  1  0  0  0  0
  5  7  1  0  0  0  0
  7  8  1  0  0  0  0
  7  9  1  0  0  0  0
  7 10  1  0  0  0  0
  5 11  1  0  0  0  0
 11 12  1  0  0  0  0
 11 13  1  0  0  0  0
 11 14  1  0  0  0  0
 14 15  1  0  0  0  0
 14 16  1  0  0  0  0
 14 17  1  0  0  0  0
 17 18  1  0  0  0  0
 17 19  1  0  0  0  0
 17 20  1  0  0  0  0
M  END
> <VConfSearch Rank>
132

> <Conf_Id>
80

> <Delta U+W>
0.460

> <U+W>
-35.817

> <U>
22.495

> <W>
-58.311

> <W(PB)>
-60.259

> <W(SA)>
1.948

> <Valence>
2.419

> <Coulomb>
19.304

> <VdW>
0.772

> <VdW6>
-4.635

> <VdW12>
5.407

> <Bond>
0.149

> <Angle>
1.142

> <Pdih>
1.129

> <Idih>
0.000

> <Tether>
0.000

$$$$
VeraChem MOL file


 20 19  0  0  0  0  0  0  0  0999 V2000     
   18.3849   17.8413   24.4025 N   0  3  0  0  0  0  0  0  0  0  0  0
   17.4320   17.6910   24.0604 H   0  0  0  0  0  0  0  0  0  0  0  0
   18.3639   18.6570   25.0197 H   0  0  0  0  0  0  0  0  0  0  0  0
   18.6309   17.0311   24.9775 H   0  0  0  0  0  0  0  0  0  0  0  0
   19.3585   18.0298   23.2714 C   0  0  2  0  0  0  0  0  0  0  0  0
   19.3161   17.1131   22.6749 H   0  0  0  0  0  0  0  0  0  0  0  0
   20.7884   18.1781   23.8189 C   0  0  0  0  0  0  0  0  0  0  0  0
   21.0193   17.3697   24.5234 H   0  0  0  0  0  0  0  0  0  0  0  0
   20.9174   19.1336   24.3421 H   0  0  0  0  0  0  0  0  0  0  0  0
   21.5262   18.1199   23.0106 H   0  0  0  0  0  0  0  0  0  0  0  0
   18.9356   19.2121   22.3654 C   0  0  0  0  0  0  0  0  0  0  0  0
   17.8969   19.0351   22.0566 H   0  0  0  0  0  0  0  0  0  0  0  0
   18.9201   20.1459   22.9428 H   0  0  0  0  0  0  0  0  0  0  0  0
   19.7863   19.3898   21.0799 C   0  0  0  0  0  0  0  0  0  0  0  0
   19.1237   19.7077   20.2626 H   0  0  0  0  0  0  0  0  0  0  0  0
   20.2101   18.4257   20.7657 H   0  0  0  0  0  0  0  0  0  0  0  0
   20.9047   20.4488   21.2242 C   0  0  0  0  0  0  0  0  0  0  0  0
   20.4833   21.4337   21.4641 H   0  0  0  0  0  0  0  0  0  0  0  0
   21.4640   20.5470   20.2848 H   0  0  0  0  0  0  0  0  0  0  0  0
   21.6214   20.1886   22.0111 H   0  0  0  0  0  0  0  0  0  0  0  0
  1  2  1  0  0  0  0
  1  3  1  0  0  0  0
  1  4  1  0  0  0  0
  1  5  1  0  0  0  0
  5  6  1  0  0  0  0
  5  7  1  0  0  0  0
  7  8  1  0  0  0  0
  7  9  1  0  0  0  0
  7 10  1  0  0  0  0
  5 11  1  0  0  0  0
 11 12  1  0  0  0  0
 11 13  1  0  0  0  0
 11 14  1  0  0  0  0
 14 15  1  0  0  0  0
 14 16  1  0  0  0  0
 14 17  1  0  0  0  0
 17 18  1  0  0  0  0
 17 19  1  0  0  0  0
 17 20  1  0  0  0  0
M  END
> <VConfSearch Rank>
133

> <Conf_Id>
52

> <Delta U+W>
2.995

> <U+W>
-33.282

> <U>
25.224

> <W>
-58.506

> <W(PB)>
-60.411

> <W(SA)>
1.905

> <Valence>
4.945

> <Coulomb>
19.467

> <VdW>
0.813

> <VdW6>
-5.458

> <VdW12>
6.270

> <Bond>
0.200

> <Angle>
1.675

> <Pdih>
3.070

> <Idih>
0.000

> <Tether>
0.000

$$$$
VeraChem MOL file


 20 19  0  0  0  0  0  0  0  0999 V2000     
   20.9069   19.5627   21.7432 N   0  3  0  0  0  0  0  0  0  0  0  0
   20.7880   20.5786   21.7411 H   0  0  0  0  0  0  0  0  0  0  0  0
   21.4196   19.3127   20.8933 H   0  0  0  0  0  0  0  0  0  0  0  0
   21.4990   19.3256   22.5421 H   0  0  0  0  0  0  0  0  0  0  0  0
   19.5812   18.8554   21.8170 C   0  0  2  0  0  0  0  0  0  0  0  0
   19.7855   17.7815   21.7660 H   0  0  0  0  0  0  0  0  0  0  0  0
   18.7174   19.2387   20.6034 C   0  0  0  0  0  0  0  0  0  0  0  0
   18.4691   20.3074   20.6143 H   0  0  0  0  0  0  0  0  0  0  0  0
   17.7793   18.6698   20.5956 H   0  0  0  0  0  0  0  0  0  0  0  0
   19.2442   19.0196   19.6665 H   0  0  0  0  0  0  0  0  0  0  0  0
   18.8202   19.1434   23.1332 C   0  0  0  0  0  0  0  0  0  0  0  0
   18.8239   20.2218   23.3396 H   0  0  0  0  0  0  0  0  0  0  0  0
   17.7660   18.8683   22.9952 H   0  0  0  0  0  0  0  0  0  0  0  0
   19.3386   18.3611   24.3685 C   0  0  0  0  0  0  0  0  0  0  0  0
   19.2872   17.2811   24.1711 H   0  0  0  0  0  0  0  0  0  0  0  0
   18.6510   18.5484   25.2052 H   0  0  0  0  0  0  0  0  0  0  0  0
   20.7684   18.7353   24.8210 C   0  0  0  0  0  0  0  0  0  0  0  0
   20.9819   18.2955   25.8040 H   0  0  0  0  0  0  0  0  0  0  0  0
   20.8873   19.8230   24.9112 H   0  0  0  0  0  0  0  0  0  0  0  0
   21.5256   18.3502   24.1283 H   0  0  0  0  0  0  0  0  0  0  0  0
  1  2  1  0  0  0  0
  1  3  1  0  0  0  0
  1  4  1  0  0  0  0
  1  5  1  0  0  0  0
  5  6  1  0  0  0  0
  5  7  1  0  0  0  0
  7  8  1  0  0  0  0
  7  9  1  0  0  0  0
  7 10  1  0  0  0  0
  5 11  1  0  0  0  0
 11 12  1  0  0  0  0
 11 13  1  0  0  0  0
 11 14  1  0  0  0  0
 14 15  1  0  0  0  0
 14 16  1  0  0  0  0
 14 17  1  0  0  0  0
 17 18  1  0  0  0  0
 17 19  1  0  0  0  0
 17 20  1  0  0  0  0
M  END
> <VConfSearch Rank>
134

> <Conf_Id>
54

> <Delta U+W>
2.752

> <U+W>
-33.525

> <U>
24.337

> <W>
-57.862

> <W(PB)>
-59.764

> <W(SA)>
1.901

> <Valence>
3.593

> <Coulomb>
20.067

> <VdW>
0.677

> <VdW6>
-5.466

> <VdW12>
6.144

> <Bond>
0.191

> <Angle>
1.557

> <Pdih>
1.845

> <Idih>
0.000

> <Tether>
0.000

$$$$
VeraChem MOL file


 20 19  0  0  0  0  0  0  0  0999 V2000     
   19.9024   17.1865   21.6391 N   0  3  0  0  0  0  0  0  0  0  0  0
   19.6878   16.1859   21.6605 H   0  0  0  0  0  0  0  0  0  0  0  0
   20.7480   17.3038   21.0744 H   0  0  0  0  0  0  0  0  0  0  0  0
   19.1369   17.6525   21.1468 H   0  0  0  0  0  0  0  0  0  0  0  0
   20.0824   17.7408   23.0263 C   0  0  2  0  0  0  0  0  0  0  0  0
   20.9038   17.1733   23.4748 H   0  0  0  0  0  0  0  0  0  0  0  0
   18.8285   17.4989   23.8855 C   0  0  0  0  0  0  0  0  0  0  0  0
   18.9630   17.9059   24.8953 H   0  0  0  0  0  0  0  0  0  0  0  0
   18.6329   16.4241   23.9843 H   0  0  0  0  0  0  0  0  0  0  0  0
   17.9380   17.9616   23.4439 H   0  0  0  0  0  0  0  0  0  0  0  0
   20.5047   19.2297   23.0196 C   0  0  0  0  0  0  0  0  0  0  0  0
   20.7058   19.5441   24.0523 H   0  0  0  0  0  0  0  0  0  0  0  0
   21.4608   19.3167   22.4870 H   0  0  0  0  0  0  0  0  0  0  0  0
   19.4767   20.1989   22.3808 C   0  0  0  0  0  0  0  0  0  0  0  0
   18.5279   20.1644   22.9327 H   0  0  0  0  0  0  0  0  0  0  0  0
   19.2570   19.8927   21.3492 H   0  0  0  0  0  0  0  0  0  0  0  0
   19.9971   21.6523   22.3738 C   0  0  0  0  0  0  0  0  0  0  0  0
   19.2585   22.3264   21.9210 H   0  0  0  0  0  0  0  0  0  0  0  0
   20.9273   21.7365   21.7968 H   0  0  0  0  0  0  0  0  0  0  0  0
   20.1945   22.0063   23.3940 H   0  0  0  0  0  0  0  0  0  0  0  0
  1  2  1  0  0  0  0
  1  3  1  0  0  0  0
  1  4  1  0  0  0  0
  1  5  1  0  0  0  0
  5  6  1  0  0  0  0
  5  7  1  0  0  0  0
  7  8  1  0  0  0  0
  7  9  1  0  0  0  0
  7 10  1  0  0  0  0
  5 11  1  0  0  0  0
 11 12  1  0  0  0  0
 11 13  1  0  0  0  0
 11 14  1  0  0  0  0
 14 15  1  0  0  0  0
 14 16  1  0  0  0  0
 14 17  1  0  0  0  0
 17 18  1  0  0  0  0
 17 19  1  0  0  0  0
 17 20  1  0  0  0  0
M  END
> <VConfSearch Rank>
135

> <Conf_Id>
63

> <Delta U+W>
0.420

> <U+W>
-35.856

> <U>
22.625

> <W>
-58.481

> <W(PB)>
-60.400

> <W(SA)>
1.919

> <Valence>
2.404

> <Coulomb>
19.464

> <VdW>
0.757

> <VdW6>
-5.074

> <VdW12>
5.830

> <Bond>
0.172

> <Angle>
1.207

> <Pdih>
1.025

> <Idih>
0.000

> <Tether>
0.000

$$$$
VeraChem MOL file


 20 19  0  0  0  0  0  0  0  0999 V2000     
   21.1488   19.9681   22.6268 N   0  3  0  0  0  0  0  0  0  0  0  0
   21.2427   19.5394   21.7025 H   0  0  0  0  0  0  0  0  0  0  0  0
   21.8911   19.5881   23.2194 H   0  0  0  0  0  0  0  0  0  0  0  0
   21.3266   20.9702   22.5185 H   0  0  0  0  0  0  0  0  0  0  0  0
   19.7878   19.7091   23.2140 C   0  0  2  0  0  0  0  0  0  0  0  0
   19.0593   20.1468   22.5249 H   0  0  0  0  0  0  0  0  0  0  0  0
   19.6407   20.4104   24.5741 C   0  0  0  0  0  0  0  0  0  0  0  0
   19.8181   21.4885   24.4764 H   0  0  0  0  0  0  0  0  0  0  0  0
   20.3540   20.0117   25.3063 H   0  0  0  0  0  0  0  0  0  0  0  0
   18.6284   20.2752   24.9749 H   0  0  0  0  0  0  0  0  0  0  0  0
   19.4802   18.2005   23.3503 C   0  0  0  0  0  0  0  0  0  0  0  0
   20.1919   17.7456   24.0520 H   0  0  0  0  0  0  0  0  0  0  0  0
   18.4859   18.0779   23.7999 H   0  0  0  0  0  0  0  0  0  0  0  0
   19.5197   17.4207   22.0116 C   0  0  0  0  0  0  0  0  0  0  0  0
   19.2939   16.3640   22.2124 H   0  0  0  0  0  0  0  0  0  0  0  0
   20.5345   17.4376   21.5916 H   0  0  0  0  0  0  0  0  0  0  0  0
   18.5141   17.9578   20.9677 C   0  0  0  0  0  0  0  0  0  0  0  0
   17.4909   17.9504   21.3653 H   0  0  0  0  0  0  0  0  0  0  0  0
   18.5265   17.3332   20.0650 H   0  0  0  0  0  0  0  0  0  0  0  0
   18.7560   18.9838   20.6628 H   0  0  0  0  0  0  0  0  0  0  0  0
  1  2  1  0  0  0  0
  1  3  1  0  0  0  0
  1  4  1  0  0  0  0
  1  5  1  0  0  0  0
  5  6  1  0  0  0  0
  5  7  1  0  0  0  0
  7  8  1  0  0  0  0
  7  9  1  0  0  0  0
  7 10  1  0  0  0  0
  5 11  1  0  0  0  0
 11 12  1  0  0  0  0
 11 13  1  0  0  0  0
 11 14  1  0  0  0  0
 14 15  1  0  0  0  0
 14 16  1  0  0  0  0
 14 17  1  0  0  0  0
 17 18  1  0  0  0  0
 17 19  1  0  0  0  0
 17 20  1  0  0  0  0
M  END
> <VConfSearch Rank>
136

> <Conf_Id>
50

> <Delta U+W>
0.466

> <U+W>
-35.811

> <U>
22.369

> <W>
-58.180

> <W(PB)>
-60.103

> <W(SA)>
1.923

> <Valence>
2.168

> <Coulomb>
19.636

> <VdW>
0.566

> <VdW6>
-5.263

> <VdW12>
5.829

> <Bond>
0.162

> <Angle>
1.066

> <Pdih>
0.939

> <Idih>
0.000

> <Tether>
0.000

$$$$
VeraChem MOL file


 20 19  0  0  0  0  0  0  0  0999 V2000     
   20.3211   20.9174   21.8411 N   0  3  0  0  0  0  0  0  0  0  0  0
   21.3203   20.9981   22.0485 H   0  0  0  0  0  0  0  0  0  0  0  0
   19.8371   21.6450   22.3733 H   0  0  0  0  0  0  0  0  0  0  0  0
   20.2000   21.1353   20.8483 H   0  0  0  0  0  0  0  0  0  0  0  0
   19.7943   19.5473   22.1724 C   0  0  2  0  0  0  0  0  0  0  0  0
   20.3699   18.8439   21.5626 H   0  0  0  0  0  0  0  0  0  0  0  0
   18.3095   19.4438   21.7765 C   0  0  0  0  0  0  0  0  0  0  0  0
   17.7009   20.1678   22.3323 H   0  0  0  0  0  0  0  0  0  0  0  0
   17.9082   18.4442   21.9756 H   0  0  0  0  0  0  0  0  0  0  0  0
   18.1804   19.6441   20.7058 H   0  0  0  0  0  0  0  0  0  0  0  0
   20.0163   19.1871   23.6621 C   0  0  0  0  0  0  0  0  0  0  0  0
   20.7702   19.8631   24.0868 H   0  0  0  0  0  0  0  0  0  0  0  0
   19.1001   19.3657   24.2406 H   0  0  0  0  0  0  0  0  0  0  0  0
   20.5162   17.7379   23.8895 C   0  0  0  0  0  0  0  0  0  0  0  0
   20.7188   17.6009   24.9610 H   0  0  0  0  0  0  0  0  0  0  0  0
   21.4780   17.5964   23.3768 H   0  0  0  0  0  0  0  0  0  0  0  0
   19.5243   16.6473   23.4281 C   0  0  0  0  0  0  0  0  0  0  0  0
   18.5387   16.7864   23.8909 H   0  0  0  0  0  0  0  0  0  0  0  0
   19.8897   15.6519   23.7122 H   0  0  0  0  0  0  0  0  0  0  0  0
   19.4017   16.6521   22.3379 H   0  0  0  0  0  0  0  0  0  0  0  0
  1  2  1  0  0  0  0
  1  3  1  0  0  0  0
  1  4  1  0  0  0  0
  1  5  1  0  0  0  0
  5  6  1  0  0  0  0
  5  7  1  0  0  0  0
  7  8  1  0  0  0  0
  7  9  1  0  0  0  0
  7 10  1  0  0  0  0
  5 11  1  0  0  0  0
 11 12  1  0  0  0  0
 11 13  1  0  0  0  0
 11 14  1  0  0  0  0
 14 15  1  0  0  0  0
 14 16  1  0  0  0  0
 14 17  1  0  0  0  0
 17 18  1  0  0  0  0
 17 19  1  0  0  0  0
 17 20  1  0  0  0  0
M  END
> <VConfSearch Rank>
137

> <Conf_Id>
3

> <Delta U+W>
3.093

> <U+W>
-33.184

> <U>
25.256

> <W>
-58.439

> <W(PB)>
-60.337

> <W(SA)>
1.898

> <Valence>
4.963

> <Coulomb>
19.511

> <VdW>
0.782

> <VdW6>
-5.429

> <VdW12>
6.211

> <Bond>
0.174

> <Angle>
1.377

> <Pdih>
3.412

> <Idih>
0.000

> <Tether>
0.000

$$$$
VeraChem MOL file


 20 19  0  0  0  0  0  0  0  0999 V2000     
   21.3068   17.3601   22.5341 N   0  3  0  0  0  0  0  0  0  0  0  0
   21.7465   16.8917   23.3309 H   0  0  0  0  0  0  0  0  0  0  0  0
   22.0465   17.8556   22.0288 H   0  0  0  0  0  0  0  0  0  0  0  0
   20.9475   16.6306   21.9132 H   0  0  0  0  0  0  0  0  0  0  0  0
   20.2153   18.2948   22.9781 C   0  0  2  0  0  0  0  0  0  0  0  0
   20.6898   19.0303   23.6346 H   0  0  0  0  0  0  0  0  0  0  0  0
   19.1539   17.5311   23.7907 C   0  0  0  0  0  0  0  0  0  0  0  0
   18.4265   18.2176   24.2392 H   0  0  0  0  0  0  0  0  0  0  0  0
   19.6222   16.9735   24.6110 H   0  0  0  0  0  0  0  0  0  0  0  0
   18.6096   16.8167   23.1607 H   0  0  0  0  0  0  0  0  0  0  0  0
   19.5967   19.0453   21.7745 C   0  0  0  0  0  0  0  0  0  0  0  0
   20.4070   19.5011   21.1905 H   0  0  0  0  0  0  0  0  0  0  0  0
   19.1099   18.3222   21.1067 H   0  0  0  0  0  0  0  0  0  0  0  0
   18.5801   20.1549   22.1464 C   0  0  0  0  0  0  0  0  0  0  0  0
   17.6899   19.7152   22.6160 H   0  0  0  0  0  0  0  0  0  0  0  0
   18.2264   20.6323   21.2218 H   0  0  0  0  0  0  0  0  0  0  0  0
   19.1779   21.2386   23.0723 C   0  0  0  0  0  0  0  0  0  0  0  0
   20.0721   21.6914   22.6244 H   0  0  0  0  0  0  0  0  0  0  0  0
   19.4552   20.8254   24.0502 H   0  0  0  0  0  0  0  0  0  0  0  0
   18.4485   22.0402   23.2471 H   0  0  0  0  0  0  0  0  0  0  0  0
  1  2  1  0  0  0  0
  1  3  1  0  0  0  0
  1  4  1  0  0  0  0
  1  5  1  0  0  0  0
  5  6  1  0  0  0  0
  5  7  1  0  0  0  0
  7  8  1  0  0  0  0
  7  9  1  0  0  0  0
  7 10  1  0  0  0  0
  5 11  1  0  0  0  0
 11 12  1  0  0  0  0
 11 13  1  0  0  0  0
 11 14  1  0  0  0  0
 14 15  1  0  0  0  0
 14 16  1  0  0  0  0
 14 17  1  0  0  0  0
 17 18  1  0  0  0  0
 17 19  1  0  0  0  0
 17 20  1  0  0  0  0
M  END
> <VConfSearch Rank>
138

> <Conf_Id>
64

> <Delta U+W>
0.544

> <U+W>
-35.732

> <U>
22.800

> <W>
-58.532

> <W(PB)>
-60.437

> <W(SA)>
1.905

> <Valence>
2.662

> <Coulomb>
19.485

> <VdW>
0.653

> <VdW6>
-5.460

> <VdW12>
6.113

> <Bond>
0.174

> <Angle>
1.378

> <Pdih>
1.109

> <Idih>
0.000

> <Tether>
0.000

$$$$
VeraChem MOL file


 20 19  0  0  0  0  0  0  0  0999 V2000     
   21.5414   19.1838   21.5559 N   0  3  0  0  0  0  0  0  0  0  0  0
   21.5678   18.1810   21.7533 H   0  0  0  0  0  0  0  0  0  0  0  0
   22.4713   19.5600   21.7593 H   0  0  0  0  0  0  0  0  0  0  0  0
   21.3823   19.2950   20.5509 H   0  0  0  0  0  0  0  0  0  0  0  0
   20.4783   19.8769   22.3648 C   0  0  2  0  0  0  0  0  0  0  0  0
   20.5380   20.9354   22.0929 H   0  0  0  0  0  0  0  0  0  0  0  0
   20.7784   19.7717   23.8690 C   0  0  0  0  0  0  0  0  0  0  0  0
   20.8686   18.7269   24.1883 H   0  0  0  0  0  0  0  0  0  0  0  0
   19.9882   20.2510   24.4598 H   0  0  0  0  0  0  0  0  0  0  0  0
   21.7233   20.2753   24.1069 H   0  0  0  0  0  0  0  0  0  0  0  0
   19.0516   19.3964   21.9982 C   0  0  0  0  0  0  0  0  0  0  0  0
   18.3122   20.0480   22.4821 H   0  0  0  0  0  0  0  0  0  0  0  0
   18.9175   19.5594   20.9207 H   0  0  0  0  0  0  0  0  0  0  0  0
   18.7266   17.9088   22.3095 C   0  0  0  0  0  0  0  0  0  0  0  0
   19.6271   17.2859   22.2291 H   0  0  0  0  0  0  0  0  0  0  0  0
   18.0362   17.5371   21.5393 H   0  0  0  0  0  0  0  0  0  0  0  0
   18.0546   17.6981   23.6867 C   0  0  0  0  0  0  0  0  0  0  0  0
   18.7027   18.0053   24.5146 H   0  0  0  0  0  0  0  0  0  0  0  0
   17.8090   16.6385   23.8351 H   0  0  0  0  0  0  0  0  0  0  0  0
   17.1194   18.2685   23.7590 H   0  0  0  0  0  0  0  0  0  0  0  0
  1  2  1  0  0  0  0
  1  3  1  0  0  0  0
  1  4  1  0  0  0  0
  1  5  1  0  0  0  0
  5  6  1  0  0  0  0
  5  7  1  0  0  0  0
  7  8  1  0  0  0  0
  7  9  1  0  0  0  0
  7 10  1  0  0  0  0
  5 11  1  0  0  0  0
 11 12  1  0  0  0  0
 11 13  1  0  0  0  0
 11 14  1  0  0  0  0
 14 15  1  0  0  0  0
 14 16  1  0  0  0  0
 14 17  1  0  0  0  0
 17 18  1  0  0  0  0
 17 19  1  0  0  0  0
 17 20  1  0  0  0  0
M  END
> <VConfSearch Rank>
139

> <Conf_Id>
35

> <Delta U+W>
3.004

> <U+W>
-33.272

> <U>
25.367

> <W>
-58.639

> <W(PB)>
-60.512

> <W(SA)>
1.873

> <Valence>
4.943

> <Coulomb>
19.661

> <VdW>
0.764

> <VdW6>
-5.871

> <VdW12>
6.636

> <Bond>
0.230

> <Angle>
1.857

> <Pdih>
2.855

> <Idih>
0.000

> <Tether>
0.000

$$$$
VeraChem MOL file


 20 19  0  0  0  0  0  0  0  0999 V2000     
   18.4174   20.0047   23.1242 N   0  3  0  0  0  0  0  0  0  0  0  0
   17.6571   20.4992   22.6498 H   0  0  0  0  0  0  0  0  0  0  0  0
   18.5041   20.4067   24.0615 H   0  0  0  0  0  0  0  0  0  0  0  0
   18.1317   19.0299   23.2347 H   0  0  0  0  0  0  0  0  0  0  0  0
   19.7074   20.1105   22.3580 C   0  0  2  0  0  0  0  0  0  0  0  0
   19.9340   21.1806   22.3196 H   0  0  0  0  0  0  0  0  0  0  0  0
   19.5402   19.6254   20.9071 C   0  0  0  0  0  0  0  0  0  0  0  0
   19.2190   18.5779   20.8648 H   0  0  0  0  0  0  0  0  0  0  0  0
   20.4832   19.7192   20.3546 H   0  0  0  0  0  0  0  0  0  0  0  0
   18.7874   20.2283   20.3847 H   0  0  0  0  0  0  0  0  0  0  0  0
   20.8983   19.4258   23.0765 C   0  0  0  0  0  0  0  0  0  0  0  0
   21.8233   19.8118   22.6281 H   0  0  0  0  0  0  0  0  0  0  0  0
   20.9214   19.7587   24.1224 H   0  0  0  0  0  0  0  0  0  0  0  0
   20.9610   17.8732   23.0314 C   0  0  0  0  0  0  0  0  0  0  0  0
   21.8805   17.5559   23.5428 H   0  0  0  0  0  0  0  0  0  0  0  0
   21.0664   17.5261   21.9945 H   0  0  0  0  0  0  0  0  0  0  0  0
   19.7639   17.1593   23.6993 C   0  0  0  0  0  0  0  0  0  0  0  0
   19.5811   17.5485   24.7094 H   0  0  0  0  0  0  0  0  0  0  0  0
   19.9650   16.0838   23.7890 H   0  0  0  0  0  0  0  0  0  0  0  0
   18.8481   17.2662   23.1067 H   0  0  0  0  0  0  0  0  0  0  0  0
  1  2  1  0  0  0  0
  1  3  1  0  0  0  0
  1  4  1  0  0  0  0
  1  5  1  0  0  0  0
  5  6  1  0  0  0  0
  5  7  1  0  0  0  0
  7  8  1  0  0  0  0
  7  9  1  0  0  0  0
  7 10  1  0  0  0  0
  5 11  1  0  0  0  0
 11 12  1  0  0  0  0
 11 13  1  0  0  0  0
 11 14  1  0  0  0  0
 14 15  1  0  0  0  0
 14 16  1  0  0  0  0
 14 17  1  0  0  0  0
 17 18  1  0  0  0  0
 17 19  1  0  0  0  0
 17 20  1  0  0  0  0
M  END
> <VConfSearch Rank>
140

> <Conf_Id>
55

> <Delta U+W>
2.767

> <U+W>
-33.509

> <U>
24.552

> <W>
-58.061

> <W(PB)>
-59.930

> <W(SA)>
1.869

> <Valence>
3.726

> <Coulomb>
20.219

> <VdW>
0.606

> <VdW6>
-6.395

> <VdW12>
7.001

> <Bond>
0.241

> <Angle>
2.098

> <Pdih>
1.387

> <Idih>
0.000

> <Tether>
0.000

$$$$
VeraChem MOL file


 20 19  0  0  0  0  0  0  0  0999 V2000     
   20.5439   17.4106   21.7888 N   0  3  0  0  0  0  0  0  0  0  0  0
   20.6277   17.8398   20.8640 H   0  0  0  0  0  0  0  0  0  0  0  0
   20.5056   16.3969   21.6524 H   0  0  0  0  0  0  0  0  0  0  0  0
   21.4047   17.6156   22.3022 H   0  0  0  0  0  0  0  0  0  0  0  0
   19.3300   17.9139   22.5224 C   0  0  2  0  0  0  0  0  0  0  0  0
   19.3190   17.4117   23.4947 H   0  0  0  0  0  0  0  0  0  0  0  0
   18.0460   17.5307   21.7685 C   0  0  0  0  0  0  0  0  0  0  0  0
   17.9894   16.4447   21.6246 H   0  0  0  0  0  0  0  0  0  0  0  0
   18.0068   18.0087   20.7817 H   0  0  0  0  0  0  0  0  0  0  0  0
   17.1562   17.8378   22.3321 H   0  0  0  0  0  0  0  0  0  0  0  0
   19.3742   19.4385   22.7671 C   0  0  0  0  0  0  0  0  0  0  0  0
   19.4098   19.9666   21.8050 H   0  0  0  0  0  0  0  0  0  0  0  0
   18.4411   19.7455   23.2581 H   0  0  0  0  0  0  0  0  0  0  0  0
   20.5688   19.8761   23.6486 C   0  0  0  0  0  0  0  0  0  0  0  0
   21.5173   19.6303   23.1521 H   0  0  0  0  0  0  0  0  0  0  0  0
   20.5524   19.3205   24.5968 H   0  0  0  0  0  0  0  0  0  0  0  0
   20.5347   21.3911   23.9434 C   0  0  0  0  0  0  0  0  0  0  0  0
   20.5806   21.9753   23.0150 H   0  0  0  0  0  0  0  0  0  0  0  0
   21.3888   21.6839   24.5677 H   0  0  0  0  0  0  0  0  0  0  0  0
   19.6169   21.6697   24.4775 H   0  0  0  0  0  0  0  0  0  0  0  0
  1  2  1  0  0  0  0
  1  3  1  0  0  0  0
  1  4  1  0  0  0  0
  1  5  1  0  0  0  0
  5  6  1  0  0  0  0
  5  7  1  0  0  0  0
  7  8  1  0  0  0  0
  7  9  1  0  0  0  0
  7 10  1  0  0  0  0
  5 11  1  0  0  0  0
 11 12  1  0  0  0  0
 11 13  1  0  0  0  0
 11 14  1  0  0  0  0
 14 15  1  0  0  0  0
 14 16  1  0  0  0  0
 14 17  1  0  0  0  0
 17 18  1  0  0  0  0
 17 19  1  0  0  0  0
 17 20  1  0  0  0  0
M  END
> <VConfSearch Rank>
141

> <Conf_Id>
74

> <Delta U+W>
0.000

> <U+W>
-36.276

> <U>
22.080

> <W>
-58.356

> <W(PB)>
-60.289

> <W(SA)>
1.932

> <Valence>
1.885

> <Coulomb>
19.559

> <VdW>
0.637

> <VdW6>
-4.482

> <VdW12>
5.119

> <Bond>
0.136

> <Angle>
0.867

> <Pdih>
0.882

> <Idih>
0.000

> <Tether>
0.000

$$$$
VeraChem MOL file


 20 19  0  0  0  0  0  0  0  0999 V2000     
   21.2280   18.3277   24.4915 N   0  3  0  0  0  0  0  0  0  0  0  0
   21.4759   19.2426   24.8780 H   0  0  0  0  0  0  0  0  0  0  0  0
   22.0146   18.0143   23.9173 H   0  0  0  0  0  0  0  0  0  0  0  0
   21.1487   17.6786   25.2790 H   0  0  0  0  0  0  0  0  0  0  0  0
   19.9525   18.3874   23.6965 C   0  0  2  0  0  0  0  0  0  0  0  0
   19.1743   18.7262   24.3875 H   0  0  0  0  0  0  0  0  0  0  0  0
   19.5740   16.9841   23.1884 C   0  0  0  0  0  0  0  0  0  0  0  0
   19.5563   16.2651   24.0166 H   0  0  0  0  0  0  0  0  0  0  0  0
   20.2929   16.6247   22.4417 H   0  0  0  0  0  0  0  0  0  0  0  0
   18.5761   16.9792   22.7352 H   0  0  0  0  0  0  0  0  0  0  0  0
   20.0582   19.4152   22.5459 C   0  0  0  0  0  0  0  0  0  0  0  0
   20.4345   20.3607   22.9582 H   0  0  0  0  0  0  0  0  0  0  0  0
   20.8044   19.0765   21.8149 H   0  0  0  0  0  0  0  0  0  0  0  0
   18.7140   19.6922   21.8292 C   0  0  0  0  0  0  0  0  0  0  0  0
   17.9500   19.9704   22.5688 H   0  0  0  0  0  0  0  0  0  0  0  0
   18.3556   18.7839   21.3269 H   0  0  0  0  0  0  0  0  0  0  0  0
   18.8479   20.8200   20.7833 C   0  0  0  0  0  0  0  0  0  0  0  0
   19.1638   21.7605   21.2534 H   0  0  0  0  0  0  0  0  0  0  0  0
   17.8877   21.0005   20.2828 H   0  0  0  0  0  0  0  0  0  0  0  0
   19.5850   20.5585   20.0129 H   0  0  0  0  0  0  0  0  0  0  0  0
  1  2  1  0  0  0  0
  1  3  1  0  0  0  0
  1  4  1  0  0  0  0
  1  5  1  0  0  0  0
  5  6  1  0  0  0  0
  5  7  1  0  0  0  0
  7  8  1  0  0  0  0
  7  9  1  0  0  0  0
  7 10  1  0  0  0  0
  5 11  1  0  0  0  0
 11 12  1  0  0  0  0
 11 13  1  0  0  0  0
 11 14  1  0  0  0  0
 14 15  1  0  0  0  0
 14 16  1  0  0  0  0
 14 17  1  0  0  0  0
 17 18  1  0  0  0  0
 17 19  1  0  0  0  0
 17 20  1  0  0  0  0
M  END
> <VConfSearch Rank>
142

> <Conf_Id>
80

> <Delta U+W>
0.460

> <U+W>
-35.817

> <U>
22.495

> <W>
-58.311

> <W(PB)>
-60.259

> <W(SA)>
1.948

> <Valence>
2.419

> <Coulomb>
19.304

> <VdW>
0.772

> <VdW6>
-4.635

> <VdW12>
5.407

> <Bond>
0.149

> <Angle>
1.142

> <Pdih>
1.129

> <Idih>
0.000

> <Tether>
0.000

$$$$
VeraChem MOL file


 20 19  0  0  0  0  0  0  0  0999 V2000     
   19.4411   17.0922   24.2951 N   0  3  0  0  0  0  0  0  0  0  0  0
   18.4815   16.7371   24.2644 H   0  0  0  0  0  0  0  0  0  0  0  0
   19.5220   17.6854   25.1246 H   0  0  0  0  0  0  0  0  0  0  0  0
   20.0570   16.2868   24.4359 H   0  0  0  0  0  0  0  0  0  0  0  0
   19.7960   17.8443   23.0416 C   0  0  2  0  0  0  0  0  0  0  0  0
   19.6871   17.1333   22.2167 H   0  0  0  0  0  0  0  0  0  0  0  0
   21.2651   18.2978   23.0908 C   0  0  0  0  0  0  0  0  0  0  0  0
   21.9213   17.4582   23.3509 H   0  0  0  0  0  0  0  0  0  0  0  0
   21.4128   19.0893   23.8359 H   0  0  0  0  0  0  0  0  0  0  0  0
   21.5935   18.6714   22.1143 H   0  0  0  0  0  0  0  0  0  0  0  0
   18.8127   19.0154   22.7991 C   0  0  0  0  0  0  0  0  0  0  0  0
   17.7961   18.6009   22.8173 H   0  0  0  0  0  0  0  0  0  0  0  0
   18.8590   19.7286   23.6328 H   0  0  0  0  0  0  0  0  0  0  0  0
   18.9961   19.7564   21.4482 C   0  0  0  0  0  0  0  0  0  0  0  0
   18.0048   20.0372   21.0653 H   0  0  0  0  0  0  0  0  0  0  0  0
   19.4281   19.0803   20.6970 H   0  0  0  0  0  0  0  0  0  0  0  0
   19.8435   21.0454   21.5639 C   0  0  0  0  0  0  0  0  0  0  0  0
   19.3786   21.7592   22.2563 H   0  0  0  0  0  0  0  0  0  0  0  0
   19.9284   21.5381   20.5866 H   0  0  0  0  0  0  0  0  0  0  0  0
   20.8589   20.8419   21.9218 H   0  0  0  0  0  0  0  0  0  0  0  0
  1  2  1  0  0  0  0
  1  3  1  0  0  0  0
  1  4  1  0  0  0  0
  1  5  1  0  0  0  0
  5  6  1  0  0  0  0
  5  7  1  0  0  0  0
  7  8  1  0  0  0  0
  7  9  1  0  0  0  0
  7 10  1  0  0  0  0
  5 11  1  0  0  0  0
 11 12  1  0  0  0  0
 11 13  1  0  0  0  0
 11 14  1  0  0  0  0
 14 15  1  0  0  0  0
 14 16  1  0  0  0  0
 14 17  1  0  0  0  0
 17 18  1  0  0  0  0
 17 19  1  0  0  0  0
 17 20  1  0  0  0  0
M  END
> <VConfSearch Rank>
143

> <Conf_Id>
52

> <Delta U+W>
2.995

> <U+W>
-33.282

> <U>
25.224

> <W>
-58.506

> <W(PB)>
-60.411

> <W(SA)>
1.905

> <Valence>
4.945

> <Coulomb>
19.467

> <VdW>
0.813

> <VdW6>
-5.458

> <VdW12>
6.270

> <Bond>
0.200

> <Angle>
1.675

> <Pdih>
3.070

> <Idih>
0.000

> <Tether>
0.000

$$$$
VeraChem MOL file


 20 19  0  0  0  0  0  0  0  0999 V2000     
   20.4484   17.9868   23.7890 N   0  3  0  0  0  0  0  0  0  0  0  0
   20.8668   17.2613   23.2017 H   0  0  0  0  0  0  0  0  0  0  0  0
   20.3323   17.5924   24.7264 H   0  0  0  0  0  0  0  0  0  0  0  0
   21.1229   18.7519   23.8571 H   0  0  0  0  0  0  0  0  0  0  0  0
   19.1381   18.4625   23.2233 C   0  0  2  0  0  0  0  0  0  0  0  0
   18.7312   19.1962   23.9260 H   0  0  0  0  0  0  0  0  0  0  0  0
   18.1517   17.2859   23.1319 C   0  0  0  0  0  0  0  0  0  0  0  0
   18.5056   16.5250   22.4250 H   0  0  0  0  0  0  0  0  0  0  0  0
   17.1640   17.6284   22.7992 H   0  0  0  0  0  0  0  0  0  0  0  0
   18.0233   16.8091   24.1115 H   0  0  0  0  0  0  0  0  0  0  0  0
   19.2930   19.1450   21.8433 C   0  0  0  0  0  0  0  0  0  0  0  0
   19.9258   18.5297   21.1902 H   0  0  0  0  0  0  0  0  0  0  0  0
   18.3083   19.1816   21.3585 H   0  0  0  0  0  0  0  0  0  0  0  0
   19.8318   20.5989   21.8937 C   0  0  0  0  0  0  0  0  0  0  0  0
   19.1667   21.2190   22.5110 H   0  0  0  0  0  0  0  0  0  0  0  0
   19.7803   21.0182   20.8790 H   0  0  0  0  0  0  0  0  0  0  0  0
   21.2846   20.7358   22.4033 C   0  0  0  0  0  0  0  0  0  0  0  0
   21.6562   21.7524   22.2198 H   0  0  0  0  0  0  0  0  0  0  0  0
   21.9569   20.0385   21.8864 H   0  0  0  0  0  0  0  0  0  0  0  0
   21.3524   20.5618   23.4834 H   0  0  0  0  0  0  0  0  0  0  0  0
  1  2  1  0  0  0  0
  1  3  1  0  0  0  0
  1  4  1  0  0  0  0
  1  5  1  0  0  0  0
  5  6  1  0  0  0  0
  5  7  1  0  0  0  0
  7  8  1  0  0  0  0
  7  9  1  0  0  0  0
  7 10  1  0  0  0  0
  5 11  1  0  0  0  0
 11 12  1  0  0  0  0
 11 13  1  0  0  0  0
 11 14  1  0  0  0  0
 14 15  1  0  0  0  0
 14 16  1  0  0  0  0
 14 17  1  0  0  0  0
 17 18  1  0  0  0  0
 17 19  1  0  0  0  0
 17 20  1  0  0  0  0
M  END
> <VConfSearch Rank>
144

> <Conf_Id>
54

> <Delta U+W>
2.752

> <U+W>
-33.525

> <U>
24.337

> <W>
-57.862

> <W(PB)>
-59.764

> <W(SA)>
1.901

> <Valence>
3.593

> <Coulomb>
20.067

> <VdW>
0.677

> <VdW6>
-5.466

> <VdW12>
6.144

> <Bond>
0.191

> <Angle>
1.557

> <Pdih>
1.845

> <Idih>
0.000

> <Tether>
0.000

$$$$
VeraChem MOL file


 20 19  0  0  0  0  0  0  0  0999 V2000     
   18.4236   18.6741   24.2499 N   0  3  0  0  0  0  0  0  0  0  0  0
   17.6295   19.0857   24.7474 H   0  0  0  0  0  0  0  0  0  0  0  0
   18.9445   18.1078   24.9250 H   0  0  0  0  0  0  0  0  0  0  0  0
   18.0454   18.0392   23.5433 H   0  0  0  0  0  0  0  0  0  0  0  0
   19.2932   19.7333   23.6288 C   0  0  2  0  0  0  0  0  0  0  0  0
   19.6334   20.3675   24.4534 H   0  0  0  0  0  0  0  0  0  0  0  0
   18.4828   20.6196   22.6662 C   0  0  0  0  0  0  0  0  0  0  0  0
   19.1205   21.3893   22.2142 H   0  0  0  0  0  0  0  0  0  0  0  0
   17.6755   21.1315   23.2041 H   0  0  0  0  0  0  0  0  0  0  0  0
   18.0276   20.0329   21.8596 H   0  0  0  0  0  0  0  0  0  0  0  0
   20.5550   19.1439   22.9540 C   0  0  0  0  0  0  0  0  0  0  0  0
   21.1865   19.9709   22.6031 H   0  0  0  0  0  0  0  0  0  0  0  0
   21.1437   18.6189   23.7177 H   0  0  0  0  0  0  0  0  0  0  0  0
   20.2755   18.1774   21.7741 C   0  0  0  0  0  0  0  0  0  0  0  0
   19.7313   18.6995   20.9758 H   0  0  0  0  0  0  0  0  0  0  0  0
   19.6364   17.3483   22.1062 H   0  0  0  0  0  0  0  0  0  0  0  0
   21.5840   17.6015   21.1916 C   0  0  0  0  0  0  0  0  0  0  0  0
   21.3705   16.9215   20.3567 H   0  0  0  0  0  0  0  0  0  0  0  0
   22.1402   17.0368   21.9512 H   0  0  0  0  0  0  0  0  0  0  0  0
   22.2350   18.4016   20.8157 H   0  0  0  0  0  0  0  0  0  0  0  0
  1  2  1  0  0  0  0
  1  3  1  0  0  0  0
  1  4  1  0  0  0  0
  1  5  1  0  0  0  0
  5  6  1  0  0  0  0
  5  7  1  0  0  0  0
  7  8  1  0  0  0  0
  7  9  1  0  0  0  0
  7 10  1  0  0  0  0
  5 11  1  0  0  0  0
 11 12  1  0  0  0  0
 11 13  1  0  0  0  0
 11 14  1  0  0  0  0
 14 15  1  0  0  0  0
 14 16  1  0  0  0  0
 14 17  1  0  0  0  0
 17 18  1  0  0  0  0
 17 19  1  0  0  0  0
 17 20  1  0  0  0  0
M  END
> <VConfSearch Rank>
145

> <Conf_Id>
63

> <Delta U+W>
0.420

> <U+W>
-35.856

> <U>
22.625

> <W>
-58.481

> <W(PB)>
-60.400

> <W(SA)>
1.919

> <Valence>
2.404

> <Coulomb>
19.464

> <VdW>
0.757

> <VdW6>
-5.074

> <VdW12>
5.830

> <Bond>
0.172

> <Angle>
1.207

> <Pdih>
1.025

> <Idih>
0.000

> <Tether>
0.000

$$$$
VeraChem MOL file


 20 19  0  0  0  0  0  0  0  0999 V2000     
   18.3468   17.8561   23.0610 N   0  3  0  0  0  0  0  0  0  0  0  0
   18.4782   17.5832   22.0837 H   0  0  0  0  0  0  0  0  0  0  0  0
   17.4615   18.3649   23.1225 H   0  0  0  0  0  0  0  0  0  0  0  0
   18.2444   16.9967   23.6074 H   0  0  0  0  0  0  0  0  0  0  0  0
   19.4974   18.6905   23.5551 C   0  0  2  0  0  0  0  0  0  0  0  0
   20.3969   18.0752   23.4581 H   0  0  0  0  0  0  0  0  0  0  0  0
   19.3156   19.0408   25.0410 C   0  0  0  0  0  0  0  0  0  0  0  0
   19.2139   18.1307   25.6449 H   0  0  0  0  0  0  0  0  0  0  0  0
   18.4213   19.6567   25.1978 H   0  0  0  0  0  0  0  0  0  0  0  0
   20.1831   19.5956   25.4196 H   0  0  0  0  0  0  0  0  0  0  0  0
   19.6971   19.9757   22.7199 C   0  0  0  0  0  0  0  0  0  0  0  0
   18.8099   20.6152   22.8177 H   0  0  0  0  0  0  0  0  0  0  0  0
   20.5351   20.5479   23.1397 H   0  0  0  0  0  0  0  0  0  0  0  0
   19.9740   19.7195   21.2167 C   0  0  0  0  0  0  0  0  0  0  0  0
   20.0965   20.6876   20.7109 H   0  0  0  0  0  0  0  0  0  0  0  0
   19.1042   19.2415   20.7460 H   0  0  0  0  0  0  0  0  0  0  0  0
   21.2368   18.8628   20.9706 C   0  0  0  0  0  0  0  0  0  0  0  0
   22.1209   19.3214   21.4325 H   0  0  0  0  0  0  0  0  0  0  0  0
   21.4332   18.7675   19.8947 H   0  0  0  0  0  0  0  0  0  0  0  0
   21.1245   17.8497   21.3769 H   0  0  0  0  0  0  0  0  0  0  0  0
  1  2  1  0  0  0  0
  1  3  1  0  0  0  0
  1  4  1  0  0  0  0
  1  5  1  0  0  0  0
  5  6  1  0  0  0  0
  5  7  1  0  0  0  0
  7  8  1  0  0  0  0
  7  9  1  0  0  0  0
  7 10  1  0  0  0  0
  5 11  1  0  0  0  0
 11 12  1  0  0  0  0
 11 13  1  0  0  0  0
 11 14  1  0  0  0  0
 14 15  1  0  0  0  0
 14 16  1  0  0  0  0
 14 17  1  0  0  0  0
 17 18  1  0  0  0  0
 17 19  1  0  0  0  0
 17 20  1  0  0  0  0
M  END
> <VConfSearch Rank>
146

> <Conf_Id>
50

> <Delta U+W>
0.466

> <U+W>
-35.811

> <U>
22.369

> <W>
-58.180

> <W(PB)>
-60.103

> <W(SA)>
1.923

> <Valence>
2.168

> <Coulomb>
19.636

> <VdW>
0.566

> <VdW6>
-5.263

> <VdW12>
5.829

> <Bond>
0.162

> <Angle>
1.066

> <Pdih>
0.939

> <Idih>
0.000

> <Tether>
0.000

$$$$
VeraChem MOL file


 20 19  0  0  0  0  0  0  0  0999 V2000     
   21.5227   17.7131   23.5347 N   0  3  0  0  0  0  0  0  0  0  0  0
   21.2144   16.7369   23.5465 H   0  0  0  0  0  0  0  0  0  0  0  0
   21.6694   18.0007   24.5056 H   0  0  0  0  0  0  0  0  0  0  0  0
   22.4341   17.7365   23.0695 H   0  0  0  0  0  0  0  0  0  0  0  0
   20.5266   18.6013   22.8395 C   0  0  2  0  0  0  0  0  0  0  0  0
   20.4352   18.2163   21.8191 H   0  0  0  0  0  0  0  0  0  0  0  0
   21.0612   20.0443   22.7767 C   0  0  0  0  0  0  0  0  0  0  0  0
   21.2130   20.4536   23.7832 H   0  0  0  0  0  0  0  0  0  0  0  0
   20.3701   20.7072   22.2449 H   0  0  0  0  0  0  0  0  0  0  0  0
   22.0223   20.0775   22.2492 H   0  0  0  0  0  0  0  0  0  0  0  0
   19.1301   18.5363   23.5058 C   0  0  0  0  0  0  0  0  0  0  0  0
   19.0768   17.6430   24.1421 H   0  0  0  0  0  0  0  0  0  0  0  0
   18.9877   19.3897   24.1822 H   0  0  0  0  0  0  0  0  0  0  0  0
   17.9566   18.4544   22.4968 C   0  0  0  0  0  0  0  0  0  0  0  0
   17.0194   18.3335   23.0580 H   0  0  0  0  0  0  0  0  0  0  0  0
   18.0631   17.5494   21.8823 H   0  0  0  0  0  0  0  0  0  0  0  0
   17.8281   19.6874   21.5751 C   0  0  0  0  0  0  0  0  0  0  0  0
   17.7628   20.6142   22.1597 H   0  0  0  0  0  0  0  0  0  0  0  0
   16.9208   19.6143   20.9615 H   0  0  0  0  0  0  0  0  0  0  0  0
   18.6813   19.7664   20.8899 H   0  0  0  0  0  0  0  0  0  0  0  0
  1  2  1  0  0  0  0
  1  3  1  0  0  0  0
  1  4  1  0  0  0  0
  1  5  1  0  0  0  0
  5  6  1  0  0  0  0
  5  7  1  0  0  0  0
  7  8  1  0  0  0  0
  7  9  1  0  0  0  0
  7 10  1  0  0  0  0
  5 11  1  0  0  0  0
 11 12  1  0  0  0  0
 11 13  1  0  0  0  0
 11 14  1  0  0  0  0
 14 15  1  0  0  0  0
 14 16  1  0  0  0  0
 14 17  1  0  0  0  0
 17 18  1  0  0  0  0
 17 19  1  0  0  0  0
 17 20  1  0  0  0  0
M  END
> <VConfSearch Rank>
147

> <Conf_Id>
3

> <Delta U+W>
3.093

> <U+W>
-33.184

> <U>
25.256

> <W>
-58.439

> <W(PB)>
-60.337

> <W(SA)>
1.898

> <Valence>
4.963

> <Coulomb>
19.511

> <VdW>
0.782

> <VdW6>
-5.429

> <VdW12>
6.211

> <Bond>
0.174

> <Angle>
1.377

> <Pdih>
3.412

> <Idih>
0.000

> <Tether>
0.000

$$$$
VeraChem MOL file


 20 19  0  0  0  0  0  0  0  0999 V2000     
   18.7551   18.0159   24.6350 N   0  3  0  0  0  0  0  0  0  0  0  0
   19.1414   17.1886   25.0977 H   0  0  0  0  0  0  0  0  0  0  0  0
   17.8040   17.7802   24.3390 H   0  0  0  0  0  0  0  0  0  0  0  0
   18.6826   18.7528   25.3409 H   0  0  0  0  0  0  0  0  0  0  0  0
   19.6079   18.4458   23.4729 C   0  0  2  0  0  0  0  0  0  0  0  0
   19.6298   17.5999   22.7793 H   0  0  0  0  0  0  0  0  0  0  0  0
   21.0472   18.7284   23.9406 C   0  0  0  0  0  0  0  0  0  0  0  0
   21.7141   18.9070   23.0892 H   0  0  0  0  0  0  0  0  0  0  0  0
   21.4496   17.8709   24.4936 H   0  0  0  0  0  0  0  0  0  0  0  0
   21.0861   19.6059   24.5979 H   0  0  0  0  0  0  0  0  0  0  0  0
   18.9861   19.6588   22.7406 C   0  0  0  0  0  0  0  0  0  0  0  0
   17.9391   19.4276   22.5044 H   0  0  0  0  0  0  0  0  0  0  0  0
   18.9615   20.5204   23.4209 H   0  0  0  0  0  0  0  0  0  0  0  0
   19.7025   20.0699   21.4287 C   0  0  0  0  0  0  0  0  0  0  0  0
   20.7151   20.4358   21.6454 H   0  0  0  0  0  0  0  0  0  0  0  0
   19.1649   20.9200   20.9859 H   0  0  0  0  0  0  0  0  0  0  0  0
   19.7710   18.9258   20.3917 C   0  0  0  0  0  0  0  0  0  0  0  0
   18.7689   18.5413   20.1610 H   0  0  0  0  0  0  0  0  0  0  0  0
   20.3847   18.0907   20.7524 H   0  0  0  0  0  0  0  0  0  0  0  0
   20.2167   19.2827   19.4542 H   0  0  0  0  0  0  0  0  0  0  0  0
  1  2  1  0  0  0  0
  1  3  1  0  0  0  0
  1  4  1  0  0  0  0
  1  5  1  0  0  0  0
  5  6  1  0  0  0  0
  5  7  1  0  0  0  0
  7  8  1  0  0  0  0
  7  9  1  0  0  0  0
  7 10  1  0  0  0  0
  5 11  1  0  0  0  0
 11 12  1  0  0  0  0
 11 13  1  0  0  0  0
 11 14  1  0  0  0  0
 14 15  1  0  0  0  0
 14 16  1  0  0  0  0
 14 17  1  0  0  0  0
 17 18  1  0  0  0  0
 17 19  1  0  0  0  0
 17 20  1  0  0  0  0
M  END
> <VConfSearch Rank>
148

> <Conf_Id>
64

> <Delta U+W>
0.544

> <U+W>
-35.732

> <U>
22.800

> <W>
-58.532

> <W(PB)>
-60.437

> <W(SA)>
1.905

> <Valence>
2.662

> <Coulomb>
19.485

> <VdW>
0.653

> <VdW6>
-5.460

> <VdW12>
6.113

> <Bond>
0.174

> <Angle>
1.378

> <Pdih>
1.109

> <Idih>
0.000

> <Tether>
0.000

$$$$
VeraChem MOL file


 20 19  0  0  0  0  0  0  0  0999 V2000     
   17.7765   19.5036   22.9955 N   0  3  0  0  0  0  0  0  0  0  0  0
   17.8196   19.4089   21.9784 H   0  0  0  0  0  0  0  0  0  0  0  0
   17.3190   20.3961   23.2002 H   0  0  0  0  0  0  0  0  0  0  0  0
   17.1655   18.7617   23.3476 H   0  0  0  0  0  0  0  0  0  0  0  0
   19.1466   19.4329   23.6141 C   0  0  2  0  0  0  0  0  0  0  0  0
   18.9951   19.5545   24.6912 H   0  0  0  0  0  0  0  0  0  0  0  0
   20.0236   20.6028   23.1388 C   0  0  0  0  0  0  0  0  0  0  0  0
   20.1080   20.6232   22.0460 H   0  0  0  0  0  0  0  0  0  0  0  0
   21.0316   20.5347   23.5663 H   0  0  0  0  0  0  0  0  0  0  0  0
   19.5914   21.5592   23.4572 H   0  0  0  0  0  0  0  0  0  0  0  0
   19.8169   18.0515   23.4056 C   0  0  0  0  0  0  0  0  0  0  0  0
   20.7266   17.9921   24.0174 H   0  0  0  0  0  0  0  0  0  0  0  0
   19.1405   17.2929   23.8209 H   0  0  0  0  0  0  0  0  0  0  0  0
   20.1432   17.6610   21.9371 C   0  0  0  0  0  0  0  0  0  0  0  0
   19.4183   18.1061   21.2430 H   0  0  0  0  0  0  0  0  0  0  0  0
   20.0262   16.5730   21.8344 H   0  0  0  0  0  0  0  0  0  0  0  0
   21.5841   18.0233   21.5068 C   0  0  0  0  0  0  0  0  0  0  0  0
   21.7665   19.1029   21.5394 H   0  0  0  0  0  0  0  0  0  0  0  0
   21.7729   17.6873   20.4790 H   0  0  0  0  0  0  0  0  0  0  0  0
   22.3225   17.5353   22.1562 H   0  0  0  0  0  0  0  0  0  0  0  0
  1  2  1  0  0  0  0
  1  3  1  0  0  0  0
  1  4  1  0  0  0  0
  1  5  1  0  0  0  0
  5  6  1  0  0  0  0
  5  7  1  0  0  0  0
  7  8  1  0  0  0  0
  7  9  1  0  0  0  0
  7 10  1  0  0  0  0
  5 11  1  0  0  0  0
 11 12  1  0  0  0  0
 11 13  1  0  0  0  0
 11 14  1  0  0  0  0
 14 15  1  0  0  0  0
 14 16  1  0  0  0  0
 14 17  1  0  0  0  0
 17 18  1  0  0  0  0
 17 19  1  0  0  0  0
 17 20  1  0  0  0  0
M  END
> <VConfSearch Rank>
149

> <Conf_Id>
35

> <Delta U+W>
3.004

> <U+W>
-33.272

> <U>
25.367

> <W>
-58.639

> <W(PB)>
-60.512

> <W(SA)>
1.873

> <Valence>
4.943

> <Coulomb>
19.661

> <VdW>
0.764

> <VdW6>
-5.871

> <VdW12>
6.636

> <Bond>
0.230

> <Angle>
1.857

> <Pdih>
2.855

> <Idih>
0.000

> <Tether>
0.000

$$$$
VeraChem MOL file


 20 19  0  0  0  0  0  0  0  0999 V2000     
   18.9762   20.5202   22.9922 N   0  3  0  0  0  0  0  0  0  0  0  0
   19.0738   21.5031   22.7238 H   0  0  0  0  0  0  0  0  0  0  0  0
   18.3693   20.4882   23.8157 H   0  0  0  0  0  0  0  0  0  0  0  0
   18.4887   20.0389   22.2341 H   0  0  0  0  0  0  0  0  0  0  0  0
   20.3128   19.8880   23.2680 C   0  0  2  0  0  0  0  0  0  0  0  0
   20.7344   20.4558   24.1033 H   0  0  0  0  0  0  0  0  0  0  0  0
   21.2690   20.0524   22.0734 C   0  0  0  0  0  0  0  0  0  0  0  0
   20.8671   19.5863   21.1659 H   0  0  0  0  0  0  0  0  0  0  0  0
   22.2441   19.5992   22.2906 H   0  0  0  0  0  0  0  0  0  0  0  0
   21.4366   21.1149   21.8588 H   0  0  0  0  0  0  0  0  0  0  0  0
   20.2023   18.4148   23.7381 C   0  0  0  0  0  0  0  0  0  0  0  0
   21.1572   18.1430   24.2068 H   0  0  0  0  0  0  0  0  0  0  0  0
   19.4564   18.3530   24.5412 H   0  0  0  0  0  0  0  0  0  0  0  0
   19.8820   17.3438   22.6578 C   0  0  0  0  0  0  0  0  0  0  0  0
   19.8846   16.3589   23.1454 H   0  0  0  0  0  0  0  0  0  0  0  0
   20.6861   17.3042   21.9104 H   0  0  0  0  0  0  0  0  0  0  0  0
   18.5215   17.5297   21.9482 C   0  0  0  0  0  0  0  0  0  0  0  0
   17.7080   17.6584   22.6740 H   0  0  0  0  0  0  0  0  0  0  0  0
   18.2871   16.6468   21.3393 H   0  0  0  0  0  0  0  0  0  0  0  0
   18.5334   18.3920   21.2719 H   0  0  0  0  0  0  0  0  0  0  0  0
  1  2  1  0  0  0  0
  1  3  1  0  0  0  0
  1  4  1  0  0  0  0
  1  5  1  0  0  0  0
  5  6  1  0  0  0  0
  5  7  1  0  0  0  0
  7  8  1  0  0  0  0
  7  9  1  0  0  0  0
  7 10  1  0  0  0  0
  5 11  1  0  0  0  0
 11 12  1  0  0  0  0
 11 13  1  0  0  0  0
 11 14  1  0  0  0  0
 14 15  1  0  0  0  0
 14 16  1  0  0  0  0
 14 17  1  0  0  0  0
 17 18  1  0  0  0  0
 17 19  1  0  0  0  0
 17 20  1  0  0  0  0
M  END
> <VConfSearch Rank>
150

> <Conf_Id>
55

> <Delta U+W>
2.767

> <U+W>
-33.509

> <U>
24.552

> <W>
-58.061

> <W(PB)>
-59.930

> <W(SA)>
1.869

> <Valence>
3.726

> <Coulomb>
20.219

> <VdW>
0.606

> <VdW6>
-6.395

> <VdW12>
7.001

> <Bond>
0.241

> <Angle>
2.098

> <Pdih>
1.387

> <Idih>
0.000

> <Tether>
0.000

$$$$
VeraChem MOL file


 20 19  0  0  0  0  0  0  0  0999 V2000     
   18.9051   17.5230   21.6556 N   0  3  0  0  0  0  0  0  0  0  0  0
   18.0863   18.0510   21.3437 H   0  0  0  0  0  0  0  0  0  0  0  0
   18.6578   16.5302   21.6254 H   0  0  0  0  0  0  0  0  0  0  0  0
   19.6476   17.6720   20.9678 H   0  0  0  0  0  0  0  0  0  0  0  0
   19.3381   17.9409   23.0351 C   0  0  2  0  0  0  0  0  0  0  0  0
   20.2142   17.3352   23.2871 H   0  0  0  0  0  0  0  0  0  0  0  0
   18.2340   17.6403   24.0619 C   0  0  0  0  0  0  0  0  0  0  0  0
   17.9669   16.5765   24.0451 H   0  0  0  0  0  0  0  0  0  0  0  0
   17.3282   18.2234   23.8537 H   0  0  0  0  0  0  0  0  0  0  0  0
   18.5697   17.8823   25.0780 H   0  0  0  0  0  0  0  0  0  0  0  0
   19.7446   19.4296   23.1041 C   0  0  0  0  0  0  0  0  0  0  0  0
   18.8876   20.0599   22.8318 H   0  0  0  0  0  0  0  0  0  0  0  0
   19.9991   19.6795   24.1427 H   0  0  0  0  0  0  0  0  0  0  0  0
   20.9529   19.7701   22.1988 C   0  0  0  0  0  0  0  0  0  0  0  0
   20.7036   19.5817   21.1458 H   0  0  0  0  0  0  0  0  0  0  0  0
   21.7989   19.1140   22.4480 H   0  0  0  0  0  0  0  0  0  0  0  0
   21.3856   21.2437   22.3562 C   0  0  0  0  0  0  0  0  0  0  0  0
   20.5695   21.9260   22.0846 H   0  0  0  0  0  0  0  0  0  0  0  0
   22.2417   21.4679   21.7067 H   0  0  0  0  0  0  0  0  0  0  0  0
   21.6825   21.4606   23.3906 H   0  0  0  0  0  0  0  0  0  0  0  0
  1  2  1  0  0  0  0
  1  3  1  0  0  0  0
  1  4  1  0  0  0  0
  1  5  1  0  0  0  0
  5  6  1  0  0  0  0
  5  7  1  0  0  0  0
  7  8  1  0  0  0  0
  7  9  1  0  0  0  0
  7 10  1  0  0  0  0
  5 11  1  0  0  0  0
 11 12  1  0  0  0  0
 11 13  1  0  0  0  0
 11 14  1  0  0  0  0
 14 15  1  0  0  0  0
 14 16  1  0  0  0  0
 14 17  1  0  0  0  0
 17 18  1  0  0  0  0
 17 19  1  0  0  0  0
 17 20  1  0  0  0  0
M  END
> <VConfSearch Rank>
151

> <Conf_Id>
74

> <Delta U+W>
0.000

> <U+W>
-36.276

> <U>
22.080

> <W>
-58.356

> <W(PB)>
-60.289

> <W(SA)>
1.932

> <Valence>
1.885

> <Coulomb>
19.559

> <VdW>
0.637

> <VdW6>
-4.482

> <VdW12>
5.119

> <Bond>
0.136

> <Angle>
0.867

> <Pdih>
0.882

> <Idih>
0.000

> <Tether>
0.000

$$$$
VeraChem MOL file


 20 19  0  0  0  0  0  0  0  0999 V2000     
   20.5784   19.1247   24.9517 N   0  3  0  0  0  0  0  0  0  0  0  0
   19.7785   19.5353   25.4409 H   0  0  0  0  0  0  0  0  0  0  0  0
   21.2547   19.8745   24.7872 H   0  0  0  0  0  0  0  0  0  0  0  0
   21.0146   18.4571   25.5934 H   0  0  0  0  0  0  0  0  0  0  0  0
   20.1636   18.4626   23.6664 C   0  0  2  0  0  0  0  0  0  0  0  0
   19.4489   17.6801   23.9396 H   0  0  0  0  0  0  0  0  0  0  0  0
   21.3778   17.7980   22.9921 C   0  0  0  0  0  0  0  0  0  0  0  0
   21.8948   17.1338   23.6955 H   0  0  0  0  0  0  0  0  0  0  0  0
   22.0976   18.5482   22.6417 H   0  0  0  0  0  0  0  0  0  0  0  0
   21.0735   17.1866   22.1349 H   0  0  0  0  0  0  0  0  0  0  0  0
   19.4500   19.4626   22.7271 C   0  0  0  0  0  0  0  0  0  0  0  0
   18.6670   19.9781   23.2988 H   0  0  0  0  0  0  0  0  0  0  0  0
   20.1587   20.2365   22.4037 H   0  0  0  0  0  0  0  0  0  0  0  0
   18.7986   18.8011   21.4880 C   0  0  0  0  0  0  0  0  0  0  0  0
   18.1369   17.9842   21.8087 H   0  0  0  0  0  0  0  0  0  0  0  0
   19.5688   18.3538   20.8456 H   0  0  0  0  0  0  0  0  0  0  0  0
   17.9882   19.8201   20.6582 C   0  0  0  0  0  0  0  0  0  0  0  0
   17.1776   20.2601   21.2536 H   0  0  0  0  0  0  0  0  0  0  0  0
   17.5369   19.3355   19.7826 H   0  0  0  0  0  0  0  0  0  0  0  0
   18.6294   20.6354   20.2984 H   0  0  0  0  0  0  0  0  0  0  0  0
  1  2  1  0  0  0  0
  1  3  1  0  0  0  0
  1  4  1  0  0  0  0
  1  5  1  0  0  0  0
  5  6  1  0  0  0  0
  5  7  1  0  0  0  0
  7  8  1  0  0  0  0
  7  9  1  0  0  0  0
  7 10  1  0  0  0  0
  5 11  1  0  0  0  0
 11 12  1  0  0  0  0
 11 13  1  0  0  0  0
 11 14  1  0  0  0  0
 14 15  1  0  0  0  0
 14 16  1  0  0  0  0
 14 17  1  0  0  0  0
 17 18  1  0  0  0  0
 17 19  1  0  0  0  0
 17 20  1  0  0  0  0
M  END
> <VConfSearch Rank>
152

> <Conf_Id>
80

> <Delta U+W>
0.460

> <U+W>
-35.817

> <U>
22.495

> <W>
-58.311

> <W(PB)>
-60.259

> <W(SA)>
1.948

> <Valence>
2.419

> <Coulomb>
19.304

> <VdW>
0.772

> <VdW6>
-4.635

> <VdW12>
5.407

> <Bond>
0.149

> <Angle>
1.142

> <Pdih>
1.129

> <Idih>
0.000

> <Tether>
0.000

$$$$
VeraChem MOL file


 20 19  0  0  0  0  0  0  0  0999 V2000     
   19.5940   18.1703   25.0152 N   0  3  0  0  0  0  0  0  0  0  0  0
   19.7394   17.1605   25.0985 H   0  0  0  0  0  0  0  0  0  0  0  0
   18.5884   18.3425   25.0909 H   0  0  0  0  0  0  0  0  0  0  0  0
   20.0393   18.6076   25.8265 H   0  0  0  0  0  0  0  0  0  0  0  0
   20.1507   18.7076   23.7252 C   0  0  2  0  0  0  0  0  0  0  0  0
   21.2220   18.4843   23.7374 H   0  0  0  0  0  0  0  0  0  0  0  0
   19.9817   20.2355   23.6679 C   0  0  0  0  0  0  0  0  0  0  0  0
   20.3586   20.7018   24.5864 H   0  0  0  0  0  0  0  0  0  0  0  0
   18.9274   20.5155   23.5514 H   0  0  0  0  0  0  0  0  0  0  0  0
   20.5507   20.6624   22.8343 H   0  0  0  0  0  0  0  0  0  0  0  0
   19.5238   17.9869   22.5066 C   0  0  0  0  0  0  0  0  0  0  0  0
   19.6616   16.9078   22.6556 H   0  0  0  0  0  0  0  0  0  0  0  0
   18.4380   18.1491   22.4871 H   0  0  0  0  0  0  0  0  0  0  0  0
   20.1465   18.3572   21.1344 C   0  0  0  0  0  0  0  0  0  0  0  0
   20.1747   17.4547   20.5076 H   0  0  0  0  0  0  0  0  0  0  0  0
   21.1930   18.6682   21.2610 H   0  0  0  0  0  0  0  0  0  0  0  0
   19.3506   19.4416   20.3705 C   0  0  0  0  0  0  0  0  0  0  0  0
   18.3237   19.1077   20.1728 H   0  0  0  0  0  0  0  0  0  0  0  0
   19.8227   19.6539   19.4025 H   0  0  0  0  0  0  0  0  0  0  0  0
   19.2970   20.3840   20.9269 H   0  0  0  0  0  0  0  0  0  0  0  0
  1  2  1  0  0  0  0
  1  3  1  0  0  0  0
  1  4  1  0  0  0  0
  1  5  1  0  0  0  0
  5  6  1  0  0  0  0
  5  7  1  0  0  0  0
  7  8  1  0  0  0  0
  7  9  1  0  0  0  0
  7 10  1  0  0  0  0
  5 11  1  0  0  0  0
 11 12  1  0  0  0  0
 11 13  1  0  0  0  0
 11 14  1  0  0  0  0
 14 15  1  0  0  0  0
 14 16  1  0  0  0  0
 14 17  1  0  0  0  0
 17 18  1  0  0  0  0
 17 19  1  0  0  0  0
 17 20  1  0  0  0  0
M  END
> <VConfSearch Rank>
153

> <Conf_Id>
52

> <Delta U+W>
2.995

> <U+W>
-33.282

> <U>
25.224

> <W>
-58.506

> <W(PB)>
-60.411

> <W(SA)>
1.905

> <Valence>
4.945

> <Coulomb>
19.467

> <VdW>
0.813

> <VdW6>
-5.458

> <VdW12>
6.270

> <Bond>
0.200

> <Angle>
1.675

> <Pdih>
3.070

> <Idih>
0.000

> <Tether>
0.000

$$$$
VeraChem MOL file


 20 19  0  0  0  0  0  0  0  0999 V2000     
   20.5189   20.3316   23.3000 N   0  3  0  0  0  0  0  0  0  0  0  0
   20.2798   21.0720   22.6358 H   0  0  0  0  0  0  0  0  0  0  0  0
   21.3729   20.6197   23.7851 H   0  0  0  0  0  0  0  0  0  0  0  0
   19.7690   20.2889   23.9934 H   0  0  0  0  0  0  0  0  0  0  0  0
   20.6970   19.0088   22.6060 C   0  0  2  0  0  0  0  0  0  0  0  0
   20.9967   18.2828   23.3682 H   0  0  0  0  0  0  0  0  0  0  0  0
   21.8283   19.1120   21.5691 C   0  0  0  0  0  0  0  0  0  0  0  0
   21.5713   19.8185   20.7699 H   0  0  0  0  0  0  0  0  0  0  0  0
   22.0292   18.1357   21.1107 H   0  0  0  0  0  0  0  0  0  0  0  0
   22.7582   19.4529   22.0409 H   0  0  0  0  0  0  0  0  0  0  0  0
   19.3968   18.5024   21.9372 C   0  0  0  0  0  0  0  0  0  0  0  0
   18.9335   19.3124   21.3584 H   0  0  0  0  0  0  0  0  0  0  0  0
   19.6587   17.7246   21.2074 H   0  0  0  0  0  0  0  0  0  0  0  0
   18.3619   17.8835   22.9131 C   0  0  0  0  0  0  0  0  0  0  0  0
   18.8196   17.0434   23.4542 H   0  0  0  0  0  0  0  0  0  0  0  0
   17.5461   17.4505   22.3172 H   0  0  0  0  0  0  0  0  0  0  0  0
   17.7496   18.8773   23.9263 C   0  0  0  0  0  0  0  0  0  0  0  0
   16.8930   18.4181   24.4369 H   0  0  0  0  0  0  0  0  0  0  0  0
   17.3898   19.7864   23.4269 H   0  0  0  0  0  0  0  0  0  0  0  0
   18.4702   19.1585   24.7029 H   0  0  0  0  0  0  0  0  0  0  0  0
  1  2  1  0  0  0  0
  1  3  1  0  0  0  0
  1  4  1  0  0  0  0
  1  5  1  0  0  0  0
  5  6  1  0  0  0  0
  5  7  1  0  0  0  0
  7  8  1  0  0  0  0
  7  9  1  0  0  0  0
  7 10  1  0  0  0  0
  5 11  1  0  0  0  0
 11 12  1  0  0  0  0
 11 13  1  0  0  0  0
 11 14  1  0  0  0  0
 14 15  1  0  0  0  0
 14 16  1  0  0  0  0
 14 17  1  0  0  0  0
 17 18  1  0  0  0  0
 17 19  1  0  0  0  0
 17 20  1  0  0  0  0
M  END
> <VConfSearch Rank>
154

> <Conf_Id>
54

> <Delta U+W>
2.752

> <U+W>
-33.525

> <U>
24.337

> <W>
-57.862

> <W(PB)>
-59.764

> <W(SA)>
1.901

> <Valence>
3.593

> <Coulomb>
20.067

> <VdW>
0.677

> <VdW6>
-5.466

> <VdW12>
6.144

> <Bond>
0.191

> <Angle>
1.557

> <Pdih>
1.845

> <Idih>
0.000

> <Tether>
0.000

$$$$
VeraChem MOL file


 20 19  0  0  0  0  0  0  0  0999 V2000     
   19.9364   16.9486   23.1547 N   0  3  0  0  0  0  0  0  0  0  0  0
   19.5799   16.0130   22.9420 H   0  0  0  0  0  0  0  0  0  0  0  0
   20.2394   16.9430   24.1324 H   0  0  0  0  0  0  0  0  0  0  0  0
   20.7665   17.0978   22.5765 H   0  0  0  0  0  0  0  0  0  0  0  0
   18.8946   18.0050   22.9044 C   0  0  2  0  0  0  0  0  0  0  0  0
   18.0469   17.7526   23.5491 H   0  0  0  0  0  0  0  0  0  0  0  0
   18.3993   17.9590   21.4480 C   0  0  0  0  0  0  0  0  0  0  0  0
   17.6413   18.7316   21.2691 H   0  0  0  0  0  0  0  0  0  0  0  0
   17.9402   16.9870   21.2296 H   0  0  0  0  0  0  0  0  0  0  0  0
   19.2187   18.1095   20.7352 H   0  0  0  0  0  0  0  0  0  0  0  0
   19.3743   19.4189   23.3115 C   0  0  0  0  0  0  0  0  0  0  0  0
   18.5408   20.1232   23.1890 H   0  0  0  0  0  0  0  0  0  0  0  0
   19.6063   19.4110   24.3846 H   0  0  0  0  0  0  0  0  0  0  0  0
   20.6061   19.9428   22.5288 C   0  0  0  0  0  0  0  0  0  0  0  0
   20.3762   20.0071   21.4569 H   0  0  0  0  0  0  0  0  0  0  0  0
   21.4471   19.2443   22.6333 H   0  0  0  0  0  0  0  0  0  0  0  0
   21.0445   21.3359   23.0293 C   0  0  0  0  0  0  0  0  0  0  0  0
   21.9153   21.6943   22.4651 H   0  0  0  0  0  0  0  0  0  0  0  0
   21.3214   21.3055   24.0912 H   0  0  0  0  0  0  0  0  0  0  0  0
   20.2387   22.0713   22.9071 H   0  0  0  0  0  0  0  0  0  0  0  0
  1  2  1  0  0  0  0
  1  3  1  0  0  0  0
  1  4  1  0  0  0  0
  1  5  1  0  0  0  0
  5  6  1  0  0  0  0
  5  7  1  0  0  0  0
  7  8  1  0  0  0  0
  7  9  1  0  0  0  0
  7 10  1  0  0  0  0
  5 11  1  0  0  0  0
 11 12  1  0  0  0  0
 11 13  1  0  0  0  0
 11 14  1  0  0  0  0
 14 15  1  0  0  0  0
 14 16  1  0  0  0  0
 14 17  1  0  0  0  0
 17 18  1  0  0  0  0
 17 19  1  0  0  0  0
 17 20  1  0  0  0  0
M  END
> <VConfSearch Rank>
155

> <Conf_Id>
63

> <Delta U+W>
0.420

> <U+W>
-35.856

> <U>
22.625

> <W>
-58.481

> <W(PB)>
-60.400

> <W(SA)>
1.919

> <Valence>
2.404

> <Coulomb>
19.464

> <VdW>
0.757

> <VdW6>
-5.074

> <VdW12>
5.830

> <Bond>
0.172

> <Angle>
1.207

> <Pdih>
1.025

> <Idih>
0.000

> <Tether>
0.000

$$$$
VeraChem MOL file


 20 19  0  0  0  0  0  0  0  0999 V2000     
   21.4402   18.7382   22.7528 N   0  3  0  0  0  0  0  0  0  0  0  0
   21.3785   18.9300   23.7559 H   0  0  0  0  0  0  0  0  0  0  0  0
   21.9074   19.5360   22.3149 H   0  0  0  0  0  0  0  0  0  0  0  0
   22.0492   17.9242   22.6340 H   0  0  0  0  0  0  0  0  0  0  0  0
   20.0792   18.5012   22.1566 C   0  0  2  0  0  0  0  0  0  0  0  0
   19.6546   17.6365   22.6754 H   0  0  0  0  0  0  0  0  0  0  0  0
   20.1933   18.1541   20.6632 C   0  0  0  0  0  0  0  0  0  0  0  0
   20.8351   17.2768   20.5164 H   0  0  0  0  0  0  0  0  0  0  0  0
   20.6195   18.9887   20.0925 H   0  0  0  0  0  0  0  0  0  0  0  0
   19.2082   17.9196   20.2412 H   0  0  0  0  0  0  0  0  0  0  0  0
   19.1280   19.7026   22.3586 C   0  0  0  0  0  0  0  0  0  0  0  0
   19.5293   20.5778   21.8306 H   0  0  0  0  0  0  0  0  0  0  0  0
   18.1621   19.4767   21.8874 H   0  0  0  0  0  0  0  0  0  0  0  0
   18.8816   20.0751   23.8427 C   0  0  0  0  0  0  0  0  0  0  0  0
   18.2011   20.9372   23.8815 H   0  0  0  0  0  0  0  0  0  0  0  0
   19.8175   20.4085   24.3113 H   0  0  0  0  0  0  0  0  0  0  0  0
   18.2703   18.9174   24.6645 C   0  0  0  0  0  0  0  0  0  0  0  0
   17.3322   18.5667   24.2148 H   0  0  0  0  0  0  0  0  0  0  0  0
   18.0476   19.2477   25.6874 H   0  0  0  0  0  0  0  0  0  0  0  0
   18.9566   18.0642   24.7349 H   0  0  0  0  0  0  0  0  0  0  0  0
  1  2  1  0  0  0  0
  1  3  1  0  0  0  0
  1  4  1  0  0  0  0
  1  5  1  0  0  0  0
  5  6  1  0  0  0  0
  5  7  1  0  0  0  0
  7  8  1  0  0  0  0
  7  9  1  0  0  0  0
  7 10  1  0  0  0  0
  5 11  1  0  0  0  0
 11 12  1  0  0  0  0
 11 13  1  0  0  0  0
 11 14  1  0  0  0  0
 14 15  1  0  0  0  0
 14 16  1  0  0  0  0
 14 17  1  0  0  0  0
 17 18  1  0  0  0  0
 17 19  1  0  0  0  0
 17 20  1  0  0  0  0
M  END
> <VConfSearch Rank>
156

> <Conf_Id>
50

> <Delta U+W>
0.466

> <U+W>
-35.811

> <U>
22.369

> <W>
-58.180

> <W(PB)>
-60.103

> <W(SA)>
1.923

> <Valence>
2.168

> <Coulomb>
19.636

> <VdW>
0.566

> <VdW6>
-5.263

> <VdW12>
5.829

> <Bond>
0.162

> <Angle>
1.066

> <Pdih>
0.939

> <Idih>
0.000

> <Tether>
0.000

$$$$
VeraChem MOL file


 20 19  0  0  0  0  0  0  0  0999 V2000     
   20.7079   20.9392   22.4091 N   0  3  0  0  0  0  0  0  0  0  0  0
   20.0801   21.4323   21.7683 H   0  0  0  0  0  0  0  0  0  0  0  0
   21.5782   20.7535   21.9043 H   0  0  0  0  0  0  0  0  0  0  0  0
   20.9302   21.5853   23.1713 H   0  0  0  0  0  0  0  0  0  0  0  0
   20.0874   19.6697   22.9268 C   0  0  2  0  0  0  0  0  0  0  0  0
   19.1698   19.9677   23.4435 H   0  0  0  0  0  0  0  0  0  0  0  0
   21.0304   18.9984   23.9427 C   0  0  0  0  0  0  0  0  0  0  0  0
   21.9848   18.7254   23.4755 H   0  0  0  0  0  0  0  0  0  0  0  0
   20.5887   18.0880   24.3619 H   0  0  0  0  0  0  0  0  0  0  0  0
   21.2441   19.6766   24.7779 H   0  0  0  0  0  0  0  0  0  0  0  0
   19.7019   18.7046   21.7786 C   0  0  0  0  0  0  0  0  0  0  0  0
   19.6780   19.2623   20.8331 H   0  0  0  0  0  0  0  0  0  0  0  0
   20.4747   17.9353   21.6483 H   0  0  0  0  0  0  0  0  0  0  0  0
   18.3132   18.0401   21.9570 C   0  0  0  0  0  0  0  0  0  0  0  0
   18.0945   17.4390   21.0633 H   0  0  0  0  0  0  0  0  0  0  0  0
   17.5369   18.8170   21.9995 H   0  0  0  0  0  0  0  0  0  0  0  0
   18.2010   17.1350   23.2039 C   0  0  0  0  0  0  0  0  0  0  0  0
   18.9910   16.3730   23.2129 H   0  0  0  0  0  0  0  0  0  0  0  0
   17.2344   16.6149   23.2141 H   0  0  0  0  0  0  0  0  0  0  0  0
   18.2685   17.7187   24.1304 H   0  0  0  0  0  0  0  0  0  0  0  0
  1  2  1  0  0  0  0
  1  3  1  0  0  0  0
  1  4  1  0  0  0  0
  1  5  1  0  0  0  0
  5  6  1  0  0  0  0
  5  7  1  0  0  0  0
  7  8  1  0  0  0  0
  7  9  1  0  0  0  0
  7 10  1  0  0  0  0
  5 11  1  0  0  0  0
 11 12  1  0  0  0  0
 11 13  1  0  0  0  0
 11 14  1  0  0  0  0
 14 15  1  0  0  0  0
 14 16  1  0  0  0  0
 14 17  1  0  0  0  0
 17 18  1  0  0  0  0
 17 19  1  0  0  0  0
 17 20  1  0  0  0  0
M  END
> <VConfSearch Rank>
157

> <Conf_Id>
3

> <Delta U+W>
3.093

> <U+W>
-33.184

> <U>
25.256

> <W>
-58.439

> <W(PB)>
-60.337

> <W(SA)>
1.898

> <Valence>
4.963

> <Coulomb>
19.511

> <VdW>
0.782

> <VdW6>
-5.429

> <VdW12>
6.211

> <Bond>
0.174

> <Angle>
1.377

> <Pdih>
3.412

> <Idih>
0.000

> <Tether>
0.000

$$$$
VeraChem MOL file


 20 19  0  0  0  0  0  0  0  0999 V2000     
   20.5801   21.0306   22.8533 N   0  3  0  0  0  0  0  0  0  0  0  0
   20.8526   21.5573   22.0190 H   0  0  0  0  0  0  0  0  0  0  0  0
   21.4243   20.8998   23.4174 H   0  0  0  0  0  0  0  0  0  0  0  0
   19.9412   21.6220   23.3907 H   0  0  0  0  0  0  0  0  0  0  0  0
   19.9445   19.7162   22.4919 C   0  0  2  0  0  0  0  0  0  0  0  0
   20.6941   19.1598   21.9213 H   0  0  0  0  0  0  0  0  0  0  0  0
   18.7179   19.9446   21.5900 C   0  0  0  0  0  0  0  0  0  0  0  0
   18.3261   18.9965   21.2039 H   0  0  0  0  0  0  0  0  0  0  0  0
   18.9846   20.5622   20.7236 H   0  0  0  0  0  0  0  0  0  0  0  0
   17.9131   20.4528   22.1353 H   0  0  0  0  0  0  0  0  0  0  0  0
   19.5911   18.8984   23.7571 C   0  0  0  0  0  0  0  0  0  0  0  0
   20.4817   18.8379   24.3964 H   0  0  0  0  0  0  0  0  0  0  0  0
   18.8342   19.4397   24.3400 H   0  0  0  0  0  0  0  0  0  0  0  0
   19.0867   17.4578   23.4864 C   0  0  0  0  0  0  0  0  0  0  0  0
   18.1224   17.4834   22.9614 H   0  0  0  0  0  0  0  0  0  0  0  0
   18.8905   16.9669   24.4499 H   0  0  0  0  0  0  0  0  0  0  0  0
   20.0953   16.6032   22.6854 C   0  0  0  0  0  0  0  0  0  0  0  0
   21.0694   16.5652   23.1903 H   0  0  0  0  0  0  0  0  0  0  0  0
   20.2477   17.0014   21.6743 H   0  0  0  0  0  0  0  0  0  0  0  0
   19.7306   15.5729   22.5834 H   0  0  0  0  0  0  0  0  0  0  0  0
  1  2  1  0  0  0  0
  1  3  1  0  0  0  0
  1  4  1  0  0  0  0
  1  5  1  0  0  0  0
  5  6  1  0  0  0  0
  5  7  1  0  0  0  0
  7  8  1  0  0  0  0
  7  9  1  0  0  0  0
  7 10  1  0  0  0  0
  5 11  1  0  0  0  0
 11 12  1  0  0  0  0
 11 13  1  0  0  0  0
 11 14  1  0  0  0  0
 14 15  1  0  0  0  0
 14 16  1  0  0  0  0
 14 17  1  0  0  0  0
 17 18  1  0  0  0  0
 17 19  1  0  0  0  0
 17 20  1  0  0  0  0
M  END
> <VConfSearch Rank>
158

> <Conf_Id>
64

> <Delta U+W>
0.544

> <U+W>
-35.732

> <U>
22.800

> <W>
-58.532

> <W(PB)>
-60.437

> <W(SA)>
1.905

> <Valence>
2.662

> <Coulomb>
19.485

> <VdW>
0.653

> <VdW6>
-5.460

> <VdW12>
6.113

> <Bond>
0.174

> <Angle>
1.378

> <Pdih>
1.109

> <Idih>
0.000

> <Tether>
0.000

$$$$
VeraChem MOL file


 20 19  0  0  0  0  0  0  0  0999 V2000     
   21.5098   18.1963   23.6795 N   0  3  0  0  0  0  0  0  0  0  0  0
   21.0113   17.3300   23.4645 H   0  0  0  0  0  0  0  0  0  0  0  0
   21.8013   18.1461   24.6594 H   0  0  0  0  0  0  0  0  0  0  0  0
   22.3603   18.2108   23.1102 H   0  0  0  0  0  0  0  0  0  0  0  0
   20.6506   19.4048   23.4222 C   0  0  2  0  0  0  0  0  0  0  0  0
   21.2640   20.2706   23.6906 H   0  0  0  0  0  0  0  0  0  0  0  0
   19.4209   19.4095   24.3450 C   0  0  0  0  0  0  0  0  0  0  0  0
   18.8261   18.4965   24.2260 H   0  0  0  0  0  0  0  0  0  0  0  0
   18.7793   20.2746   24.1369 H   0  0  0  0  0  0  0  0  0  0  0  0
   19.7308   19.4705   25.3953 H   0  0  0  0  0  0  0  0  0  0  0  0
   20.2831   19.5587   21.9248 C   0  0  0  0  0  0  0  0  0  0  0  0
   19.8107   20.5368   21.7645 H   0  0  0  0  0  0  0  0  0  0  0  0
   21.2230   19.5967   21.3588 H   0  0  0  0  0  0  0  0  0  0  0  0
   19.3939   18.4383   21.3171 C   0  0  0  0  0  0  0  0  0  0  0  0
   19.5850   17.4759   21.8096 H   0  0  0  0  0  0  0  0  0  0  0  0
   19.6834   18.2989   20.2660 H   0  0  0  0  0  0  0  0  0  0  0  0
   17.8818   18.7626   21.3508 C   0  0  0  0  0  0  0  0  0  0  0  0
   17.5050   18.8728   22.3735 H   0  0  0  0  0  0  0  0  0  0  0  0
   17.3069   17.9596   20.8717 H   0  0  0  0  0  0  0  0  0  0  0  0
   17.6672   19.6928   20.8088 H   0  0  0  0  0  0  0  0  0  0  0  0
  1  2  1  0  0  0  0
  1  3  1  0  0  0  0
  1  4  1  0  0  0  0
  1  5  1  0  0  0  0
  5  6  1  0  0  0  0
  5  7  1  0  0  0  0
  7  8  1  0  0  0  0
  7  9  1  0  0  0  0
  7 10  1  0  0  0  0
  5 11  1  0  0  0  0
 11 12  1  0  0  0  0
 11 13  1  0  0  0  0
 11 14  1  0  0  0  0
 14 15  1  0  0  0  0
 14 16  1  0  0  0  0
 14 17  1  0  0  0  0
 17 18  1  0  0  0  0
 17 19  1  0  0  0  0
 17 20  1  0  0  0  0
M  END
> <VConfSearch Rank>
159

> <Conf_Id>
35

> <Delta U+W>
3.004

> <U+W>
-33.272

> <U>
25.367

> <W>
-58.639

> <W(PB)>
-60.512

> <W(SA)>
1.873

> <Valence>
4.943

> <Coulomb>
19.661

> <VdW>
0.764

> <VdW6>
-5.871

> <VdW12>
6.636

> <Bond>
0.230

> <Angle>
1.857

> <Pdih>
2.855

> <Idih>
0.000

> <Tether>
0.000

$$$$
VeraChem MOL file


 20 19  0  0  0  0  0  0  0  0999 V2000     
   19.9351   19.3255   20.9562 N   0  3  0  0  0  0  0  0  0  0  0  0
   19.6580   20.0631   20.3029 H   0  0  0  0  0  0  0  0  0  0  0  0
   20.1451   18.4909   20.4022 H   0  0  0  0  0  0  0  0  0  0  0  0
   20.8036   19.6204   21.4064 H   0  0  0  0  0  0  0  0  0  0  0  0
   18.8595   19.0556   21.9725 C   0  0  2  0  0  0  0  0  0  0  0  0
   17.9912   18.7254   21.3938 H   0  0  0  0  0  0  0  0  0  0  0  0
   18.4532   20.3410   22.7149 C   0  0  0  0  0  0  0  0  0  0  0  0
   19.3021   20.7870   23.2468 H   0  0  0  0  0  0  0  0  0  0  0  0
   17.6598   20.1348   23.4439 H   0  0  0  0  0  0  0  0  0  0  0  0
   18.0701   21.0878   22.0088 H   0  0  0  0  0  0  0  0  0  0  0  0
   19.2170   17.9007   22.9428 C   0  0  0  0  0  0  0  0  0  0  0  0
   18.2864   17.5696   23.4224 H   0  0  0  0  0  0  0  0  0  0  0  0
   19.5646   17.0394   22.3575 H   0  0  0  0  0  0  0  0  0  0  0  0
   20.2472   18.2062   24.0662 C   0  0  0  0  0  0  0  0  0  0  0  0
   20.3512   17.3042   24.6854 H   0  0  0  0  0  0  0  0  0  0  0  0
   19.8578   18.9819   24.7394 H   0  0  0  0  0  0  0  0  0  0  0  0
   21.6506   18.6123   23.5617 C   0  0  0  0  0  0  0  0  0  0  0  0
   22.0295   17.8974   22.8199 H   0  0  0  0  0  0  0  0  0  0  0  0
   22.3628   18.6336   24.3969 H   0  0  0  0  0  0  0  0  0  0  0  0
   21.6458   19.6146   23.1183 H   0  0  0  0  0  0  0  0  0  0  0  0
  1  2  1  0  0  0  0
  1  3  1  0  0  0  0
  1  4  1  0  0  0  0
  1  5  1  0  0  0  0
  5  6  1  0  0  0  0
  5  7  1  0  0  0  0
  7  8  1  0  0  0  0
  7  9  1  0  0  0  0
  7 10  1  0  0  0  0
  5 11  1  0  0  0  0
 11 12  1  0  0  0  0
 11 13  1  0  0  0  0
 11 14  1  0  0  0  0
 14 15  1  0  0  0  0
 14 16  1  0  0  0  0
 14 17  1  0  0  0  0
 17 18  1  0  0  0  0
 17 19  1  0  0  0  0
 17 20  1  0  0  0  0
M  END
> <VConfSearch Rank>
160

> <Conf_Id>
55

> <Delta U+W>
2.767

> <U+W>
-33.509

> <U>
24.552

> <W>
-58.061

> <W(PB)>
-59.930

> <W(SA)>
1.869

> <Valence>
3.726

> <Coulomb>
20.219

> <VdW>
0.606

> <VdW6>
-6.395

> <VdW12>
7.001

> <Bond>
0.241

> <Angle>
2.098

> <Pdih>
1.387

> <Idih>
0.000

> <Tether>
0.000

$$$$
VeraChem MOL file


 20 19  0  0  0  0  0  0  0  0999 V2000     
   18.1432   19.9235   23.3362 N   0  3  0  0  0  0  0  0  0  0  0  0
   17.4446   19.3237   22.8904 H   0  0  0  0  0  0  0  0  0  0  0  0
   17.7139   20.8426   23.4727 H   0  0  0  0  0  0  0  0  0  0  0  0
   18.3338   19.5367   24.2638 H   0  0  0  0  0  0  0  0  0  0  0  0
   19.3969   20.0186   22.5090 C   0  0  2  0  0  0  0  0  0  0  0  0
   20.0863   20.6695   23.0557 H   0  0  0  0  0  0  0  0  0  0  0  0
   19.0981   20.6691   21.1483 C   0  0  0  0  0  0  0  0  0  0  0  0
   18.6459   21.6595   21.2821 H   0  0  0  0  0  0  0  0  0  0  0  0
   18.4072   20.0550   20.5573 H   0  0  0  0  0  0  0  0  0  0  0  0
   20.0198   20.8006   20.5679 H   0  0  0  0  0  0  0  0  0  0  0  0
   20.0821   18.6485   22.3102 C   0  0  0  0  0  0  0  0  0  0  0  0
   19.4007   17.9672   21.7833 H   0  0  0  0  0  0  0  0  0  0  0  0
   20.9568   18.7811   21.6594 H   0  0  0  0  0  0  0  0  0  0  0  0
   20.5428   18.0031   23.6394 C   0  0  0  0  0  0  0  0  0  0  0  0
   19.6773   17.8079   24.2869 H   0  0  0  0  0  0  0  0  0  0  0  0
   21.1961   18.7004   24.1827 H   0  0  0  0  0  0  0  0  0  0  0  0
   21.2978   16.6783   23.3981 C   0  0  0  0  0  0  0  0  0  0  0  0
   20.6600   15.9484   22.8826 H   0  0  0  0  0  0  0  0  0  0  0  0
   21.6156   16.2342   24.3503 H   0  0  0  0  0  0  0  0  0  0  0  0
   22.1951   16.8400   22.7866 H   0  0  0  0  0  0  0  0  0  0  0  0
  1  2  1  0  0  0  0
  1  3  1  0  0  0  0
  1  4  1  0  0  0  0
  1  5  1  0  0  0  0
  5  6  1  0  0  0  0
  5  7  1  0  0  0  0
  7  8  1  0  0  0  0
  7  9  1  0  0  0  0
  7 10  1  0  0  0  0
  5 11  1  0  0  0  0
 11 12  1  0  0  0  0
 11 13  1  0  0  0  0
 11 14  1  0  0  0  0
 14 15  1  0  0  0  0
 14 16  1  0  0  0  0
 14 17  1  0  0  0  0
 17 18  1  0  0  0  0
 17 19  1  0  0  0  0
 17 20  1  0  0  0  0
M  END
> <VConfSearch Rank>
161

> <Conf_Id>
74

> <Delta U+W>
0.000

> <U+W>
-36.276

> <U>
22.080

> <W>
-58.356

> <W(PB)>
-60.289

> <W(SA)>
1.932

> <Valence>
1.885

> <Coulomb>
19.559

> <VdW>
0.637

> <VdW6>
-4.482

> <VdW12>
5.119

> <Bond>
0.136

> <Angle>
0.867

> <Pdih>
0.882

> <Idih>
0.000

> <Tether>
0.000

$$$$
VeraChem MOL file


 20 19  0  0  0  0  0  0  0  0999 V2000     
   20.8726   20.2421   24.3705 N   0  3  0  0  0  0  0  0  0  0  0  0
   20.2852   21.0794   24.4121 H   0  0  0  0  0  0  0  0  0  0  0  0
   21.7032   20.4775   23.8216 H   0  0  0  0  0  0  0  0  0  0  0  0
   21.1848   20.0443   25.3250 H   0  0  0  0  0  0  0  0  0  0  0  0
   20.1328   19.0733   23.7797 C   0  0  2  0  0  0  0  0  0  0  0  0
   19.2701   18.8946   24.4292 H   0  0  0  0  0  0  0  0  0  0  0  0
   21.0214   17.8160   23.7950 C   0  0  0  0  0  0  0  0  0  0  0  0
   21.4193   17.6363   24.8014 H   0  0  0  0  0  0  0  0  0  0  0  0
   21.8702   17.9211   23.1079 H   0  0  0  0  0  0  0  0  0  0  0  0
   20.4548   16.9229   23.5076 H   0  0  0  0  0  0  0  0  0  0  0  0
   19.6105   19.4008   22.3615 C   0  0  0  0  0  0  0  0  0  0  0  0
   19.0787   20.3607   22.4002 H   0  0  0  0  0  0  0  0  0  0  0  0
   20.4588   19.5433   21.6788 H   0  0  0  0  0  0  0  0  0  0  0  0
   18.6513   18.3307   21.7855 C   0  0  0  0  0  0  0  0  0  0  0  0
   17.8357   18.1421   22.4977 H   0  0  0  0  0  0  0  0  0  0  0  0
   19.1808   17.3785   21.6480 H   0  0  0  0  0  0  0  0  0  0  0  0
   18.0558   18.7696   20.4303 C   0  0  0  0  0  0  0  0  0  0  0  0
   17.4799   19.6985   20.5332 H   0  0  0  0  0  0  0  0  0  0  0  0
   17.3819   17.9985   20.0350 H   0  0  0  0  0  0  0  0  0  0  0  0
   18.8466   18.9382   19.6876 H   0  0  0  0  0  0  0  0  0  0  0  0
  1  2  1  0  0  0  0
  1  3  1  0  0  0  0
  1  4  1  0  0  0  0
  1  5  1  0  0  0  0
  5  6  1  0  0  0  0
  5  7  1  0  0  0  0
  7  8  1  0  0  0  0
  7  9  1  0  0  0  0
  7 10  1  0  0  0  0
  5 11  1  0  0  0  0
 11 12  1  0  0  0  0
 11 13  1  0  0  0  0
 11 14  1  0  0  0  0
 14 15  1  0  0  0  0
 14 16  1  0  0  0  0
 14 17  1  0  0  0  0
 17 18  1  0  0  0  0
 17 19  1  0  0  0  0
 17 20  1  0  0  0  0
M  END
> <VConfSearch Rank>
162

> <Conf_Id>
80

> <Delta U+W>
0.460

> <U+W>
-35.817

> <U>
22.495

> <W>
-58.311

> <W(PB)>
-60.259

> <W(SA)>
1.948

> <Valence>
2.419

> <Coulomb>
19.304

> <VdW>
0.772

> <VdW6>
-4.635

> <VdW12>
5.407

> <Bond>
0.149

> <Angle>
1.142

> <Pdih>
1.129

> <Idih>
0.000

> <Tether>
0.000

$$$$
VeraChem MOL file


 20 19  0  0  0  0  0  0  0  0999 V2000     
   18.8282   16.7459   23.3068 N   0  3  0  0  0  0  0  0  0  0  0  0
   17.9121   16.6090   22.8710 H   0  0  0  0  0  0  0  0  0  0  0  0
   18.6680   16.9824   24.2891 H   0  0  0  0  0  0  0  0  0  0  0  0
   19.3106   15.8434   23.2860 H   0  0  0  0  0  0  0  0  0  0  0  0
   19.6240   17.8121   22.6049 C   0  0  2  0  0  0  0  0  0  0  0  0
   19.7488   17.4712   21.5724 H   0  0  0  0  0  0  0  0  0  0  0  0
   21.0200   17.9382   23.2385 C   0  0  0  0  0  0  0  0  0  0  0  0
   21.4990   16.9548   23.3199 H   0  0  0  0  0  0  0  0  0  0  0  0
   20.9632   18.3740   24.2437 H   0  0  0  0  0  0  0  0  0  0  0  0
   21.6755   18.5645   22.6227 H   0  0  0  0  0  0  0  0  0  0  0  0
   18.8523   19.1541   22.5775 C   0  0  0  0  0  0  0  0  0  0  0  0
   17.8626   18.9560   22.1451 H   0  0  0  0  0  0  0  0  0  0  0  0
   18.6657   19.5055   23.6009 H   0  0  0  0  0  0  0  0  0  0  0  0
   19.5181   20.2762   21.7377 C   0  0  0  0  0  0  0  0  0  0  0  0
   18.7288   20.8526   21.2349 H   0  0  0  0  0  0  0  0  0  0  0  0
   20.1302   19.8410   20.9352 H   0  0  0  0  0  0  0  0  0  0  0  0
   20.3597   21.2605   22.5839 C   0  0  0  0  0  0  0  0  0  0  0  0
   19.7384   21.7571   23.3405 H   0  0  0  0  0  0  0  0  0  0  0  0
   20.7935   22.0414   21.9460 H   0  0  0  0  0  0  0  0  0  0  0  0
   21.1848   20.7593   23.1020 H   0  0  0  0  0  0  0  0  0  0  0  0
  1  2  1  0  0  0  0
  1  3  1  0  0  0  0
  1  4  1  0  0  0  0
  1  5  1  0  0  0  0
  5  6  1  0  0  0  0
  5  7  1  0  0  0  0
  7  8  1  0  0  0  0
  7  9  1  0  0  0  0
  7 10  1  0  0  0  0
  5 11  1  0  0  0  0
 11 12  1  0  0  0  0
 11 13  1  0  0  0  0
 11 14  1  0  0  0  0
 14 15  1  0  0  0  0
 14 16  1  0  0  0  0
 14 17  1  0  0  0  0
 17 18  1  0  0  0  0
 17 19  1  0  0  0  0
 17 20  1  0  0  0  0
M  END
> <VConfSearch Rank>
163

> <Conf_Id>
52

> <Delta U+W>
2.995

> <U+W>
-33.282

> <U>
25.224

> <W>
-58.506

> <W(PB)>
-60.411

> <W(SA)>
1.905

> <Valence>
4.945

> <Coulomb>
19.467

> <VdW>
0.813

> <VdW6>
-5.458

> <VdW12>
6.270

> <Bond>
0.200

> <Angle>
1.675

> <Pdih>
3.070

> <Idih>
0.000

> <Tether>
0.000

$$$$
VeraChem MOL file


 20 19  0  0  0  0  0  0  0  0999 V2000     
   20.5609   18.6401   21.3864 N   0  3  0  0  0  0  0  0  0  0  0  0
   20.1749   17.7393   21.0933 H   0  0  0  0  0  0  0  0  0  0  0  0
   21.4795   18.7375   20.9455 H   0  0  0  0  0  0  0  0  0  0  0  0
   19.9561   19.3707   21.0051 H   0  0  0  0  0  0  0  0  0  0  0  0
   20.6543   18.7354   22.8849 C   0  0  2  0  0  0  0  0  0  0  0  0
   21.1176   19.6990   23.1183 H   0  0  0  0  0  0  0  0  0  0  0  0
   21.5671   17.6203   23.4225 C   0  0  0  0  0  0  0  0  0  0  0  0
   21.1395   16.6287   23.2280 H   0  0  0  0  0  0  0  0  0  0  0  0
   21.7141   17.7229   24.5048 H   0  0  0  0  0  0  0  0  0  0  0  0
   22.5557   17.6651   22.9492 H   0  0  0  0  0  0  0  0  0  0  0  0
   19.2712   18.6808   23.5767 C   0  0  0  0  0  0  0  0  0  0  0  0
   18.6786   17.8537   23.1641 H   0  0  0  0  0  0  0  0  0  0  0  0
   19.4202   18.4423   24.6383 H   0  0  0  0  0  0  0  0  0  0  0  0
   18.4605   20.0019   23.5146 C   0  0  0  0  0  0  0  0  0  0  0  0
   19.0417   20.8149   23.9721 H   0  0  0  0  0  0  0  0  0  0  0  0
   17.5640   19.8828   24.1392 H   0  0  0  0  0  0  0  0  0  0  0  0
   18.0126   20.4230   22.0964 C   0  0  0  0  0  0  0  0  0  0  0  0
   17.2841   21.2421   22.1568 H   0  0  0  0  0  0  0  0  0  0  0  0
   17.5328   19.5906   21.5652 H   0  0  0  0  0  0  0  0  0  0  0  0
   18.8551   20.7893   21.4984 H   0  0  0  0  0  0  0  0  0  0  0  0
  1  2  1  0  0  0  0
  1  3  1  0  0  0  0
  1  4  1  0  0  0  0
  1  5  1  0  0  0  0
  5  6  1  0  0  0  0
  5  7  1  0  0  0  0
  7  8  1  0  0  0  0
  7  9  1  0  0  0  0
  7 10  1  0  0  0  0
  5 11  1  0  0  0  0
 11 12  1  0  0  0  0
 11 13  1  0  0  0  0
 11 14  1  0  0  0  0
 14 15  1  0  0  0  0
 14 16  1  0  0  0  0
 14 17  1  0  0  0  0
 17 18  1  0  0  0  0
 17 19  1  0  0  0  0
 17 20  1  0  0  0  0
M  END
> <VConfSearch Rank>
164

> <Conf_Id>
54

> <Delta U+W>
2.752

> <U+W>
-33.525

> <U>
24.337

> <W>
-57.862

> <W(PB)>
-59.764

> <W(SA)>
1.901

> <Valence>
3.593

> <Coulomb>
20.067

> <VdW>
0.677

> <VdW6>
-5.466

> <VdW12>
6.144

> <Bond>
0.191

> <Angle>
1.557

> <Pdih>
1.845

> <Idih>
0.000

> <Tether>
0.000

$$$$
VeraChem MOL file


 20 19  0  0  0  0  0  0  0  0999 V2000     
   20.5195   17.0425   22.5292 N   0  3  0  0  0  0  0  0  0  0  0  0
   21.0964   16.3349   22.9919 H   0  0  0  0  0  0  0  0  0  0  0  0
   20.6175   16.9018   21.5201 H   0  0  0  0  0  0  0  0  0  0  0  0
   19.5455   16.8495   22.7732 H   0  0  0  0  0  0  0  0  0  0  0  0
   20.9231   18.4339   22.9354 C   0  0  2  0  0  0  0  0  0  0  0  0
   21.9749   18.5389   22.6516 H   0  0  0  0  0  0  0  0  0  0  0  0
   20.8348   18.6118   24.4617 C   0  0  0  0  0  0  0  0  0  0  0  0
   21.1281   19.6278   24.7536 H   0  0  0  0  0  0  0  0  0  0  0  0
   21.5108   17.9127   24.9689 H   0  0  0  0  0  0  0  0  0  0  0  0
   19.8206   18.4261   24.8344 H   0  0  0  0  0  0  0  0  0  0  0  0
   20.1326   19.5261   22.1757 C   0  0  0  0  0  0  0  0  0  0  0  0
   20.5363   20.5096   22.4506 H   0  0  0  0  0  0  0  0  0  0  0  0
   20.3268   19.4109   21.1012 H   0  0  0  0  0  0  0  0  0  0  0  0
   18.6014   19.5152   22.4197 C   0  0  0  0  0  0  0  0  0  0  0  0
   18.3848   19.6812   23.4835 H   0  0  0  0  0  0  0  0  0  0  0  0
   18.1826   18.5342   22.1582 H   0  0  0  0  0  0  0  0  0  0  0  0
   17.8879   20.6039   21.5897 C   0  0  0  0  0  0  0  0  0  0  0  0
   16.8059   20.5855   21.7743 H   0  0  0  0  0  0  0  0  0  0  0  0
   18.0481   20.4500   20.5146 H   0  0  0  0  0  0  0  0  0  0  0  0
   18.2565   21.6046   21.8504 H   0  0  0  0  0  0  0  0  0  0  0  0
  1  2  1  0  0  0  0
  1  3  1  0  0  0  0
  1  4  1  0  0  0  0
  1  5  1  0  0  0  0
  5  6  1  0  0  0  0
  5  7  1  0  0  0  0
  7  8  1  0  0  0  0
  7  9  1  0  0  0  0
  7 10  1  0  0  0  0
  5 11  1  0  0  0  0
 11 12  1  0  0  0  0
 11 13  1  0  0  0  0
 11 14  1  0  0  0  0
 14 15  1  0  0  0  0
 14 16  1  0  0  0  0
 14 17  1  0  0  0  0
 17 18  1  0  0  0  0
 17 19  1  0  0  0  0
 17 20  1  0  0  0  0
M  END
> <VConfSearch Rank>
165

> <Conf_Id>
63

> <Delta U+W>
0.420

> <U+W>
-35.856

> <U>
22.625

> <W>
-58.481

> <W(PB)>
-60.400

> <W(SA)>
1.919

> <Valence>
2.404

> <Coulomb>
19.464

> <VdW>
0.757

> <VdW6>
-5.074

> <VdW12>
5.830

> <Bond>
0.172

> <Angle>
1.207

> <Pdih>
1.025

> <Idih>
0.000

> <Tether>
0.000

$$$$
VeraChem MOL file


 20 19  0  0  0  0  0  0  0  0999 V2000     
   20.9607   19.7304   21.7877 N   0  3  0  0  0  0  0  0  0  0  0  0
   21.5318   18.9376   22.0915 H   0  0  0  0  0  0  0  0  0  0  0  0
   21.3202   20.5662   22.2554 H   0  0  0  0  0  0  0  0  0  0  0  0
   21.1155   19.8515   20.7832 H   0  0  0  0  0  0  0  0  0  0  0  0
   19.5056   19.5073   22.0991 C   0  0  2  0  0  0  0  0  0  0  0  0
   19.2037   18.6034   21.5616 H   0  0  0  0  0  0  0  0  0  0  0  0
   18.6539   20.6781   21.5820 C   0  0  0  0  0  0  0  0  0  0  0  0
   18.7989   20.8173   20.5037 H   0  0  0  0  0  0  0  0  0  0  0  0
   18.9188   21.6158   22.0863 H   0  0  0  0  0  0  0  0  0  0  0  0
   17.5867   20.4885   21.7520 H   0  0  0  0  0  0  0  0  0  0  0  0
   19.2517   19.2820   23.6070 C   0  0  0  0  0  0  0  0  0  0  0  0
   19.5337   20.1860   24.1630 H   0  0  0  0  0  0  0  0  0  0  0  0
   18.1746   19.1448   23.7713 H   0  0  0  0  0  0  0  0  0  0  0  0
   20.0041   18.0652   24.2029 C   0  0  0  0  0  0  0  0  0  0  0  0
   19.7641   17.9918   25.2729 H   0  0  0  0  0  0  0  0  0  0  0  0
   21.0894   18.2251   24.1476 H   0  0  0  0  0  0  0  0  0  0  0  0
   19.6378   16.7302   23.5151 C   0  0  0  0  0  0  0  0  0  0  0  0
   18.5561   16.5482   23.5578 H   0  0  0  0  0  0  0  0  0  0  0  0
   20.1382   15.8904   24.0146 H   0  0  0  0  0  0  0  0  0  0  0  0
   19.9459   16.7192   22.4621 H   0  0  0  0  0  0  0  0  0  0  0  0
  1  2  1  0  0  0  0
  1  3  1  0  0  0  0
  1  4  1  0  0  0  0
  1  5  1  0  0  0  0
  5  6  1  0  0  0  0
  5  7  1  0  0  0  0
  7  8  1  0  0  0  0
  7  9  1  0  0  0  0
  7 10  1  0  0  0  0
  5 11  1  0  0  0  0
 11 12  1  0  0  0  0
 11 13  1  0  0  0  0
 11 14  1  0  0  0  0
 14 15  1  0  0  0  0
 14 16  1  0  0  0  0
 14 17  1  0  0  0  0
 17 18  1  0  0  0  0
 17 19  1  0  0  0  0
 17 20  1  0  0  0  0
M  END
> <VConfSearch Rank>
166

> <Conf_Id>
50

> <Delta U+W>
0.466

> <U+W>
-35.811

> <U>
22.369

> <W>
-58.180

> <W(PB)>
-60.103

> <W(SA)>
1.923

> <Valence>
2.168

> <Coulomb>
19.636

> <VdW>
0.566

> <VdW6>
-5.263

> <VdW12>
5.829

> <Bond>
0.162

> <Angle>
1.066

> <Pdih>
0.939

> <Idih>
0.000

> <Tether>
0.000

$$$$
VeraChem MOL file


 20 19  0  0  0  0  0  0  0  0999 V2000     
   19.2931   16.6307   22.5355 N   0  3  0  0  0  0  0  0  0  0  0  0
   20.1852   16.2394   22.2210 H   0  0  0  0  0  0  0  0  0  0  0  0
   18.6241   16.5256   21.7686 H   0  0  0  0  0  0  0  0  0  0  0  0
   18.9631   16.0473   23.3091 H   0  0  0  0  0  0  0  0  0  0  0  0
   19.4344   18.0697   22.9525 C   0  0  2  0  0  0  0  0  0  0  0  0
   20.1655   18.0805   23.7669 H   0  0  0  0  0  0  0  0  0  0  0  0
   18.0905   18.5974   23.4886 C   0  0  0  0  0  0  0  0  0  0  0  0
   17.3139   18.5593   22.7145 H   0  0  0  0  0  0  0  0  0  0  0  0
   18.1726   19.6344   23.8315 H   0  0  0  0  0  0  0  0  0  0  0  0
   17.7504   17.9942   24.3393 H   0  0  0  0  0  0  0  0  0  0  0  0
   19.9797   18.9537   21.8038 C   0  0  0  0  0  0  0  0  0  0  0  0
   20.4313   18.3094   21.0379 H   0  0  0  0  0  0  0  0  0  0  0  0
   19.1571   19.4789   21.3004 H   0  0  0  0  0  0  0  0  0  0  0  0
   21.0637   19.9666   22.2519 C   0  0  0  0  0  0  0  0  0  0  0  0
   21.4436   20.4898   21.3631 H   0  0  0  0  0  0  0  0  0  0  0  0
   21.9205   19.4242   22.6758 H   0  0  0  0  0  0  0  0  0  0  0  0
   20.5662   21.0154   23.2710 C   0  0  0  0  0  0  0  0  0  0  0  0
   19.6825   21.5464   22.8940 H   0  0  0  0  0  0  0  0  0  0  0  0
   21.3473   21.7619   23.4651 H   0  0  0  0  0  0  0  0  0  0  0  0
   20.3110   20.5513   24.2318 H   0  0  0  0  0  0  0  0  0  0  0  0
  1  2  1  0  0  0  0
  1  3  1  0  0  0  0
  1  4  1  0  0  0  0
  1  5  1  0  0  0  0
  5  6  1  0  0  0  0
  5  7  1  0  0  0  0
  7  8  1  0  0  0  0
  7  9  1  0  0  0  0
  7 10  1  0  0  0  0
  5 11  1  0  0  0  0
 11 12  1  0  0  0  0
 11 13  1  0  0  0  0
 11 14  1  0  0  0  0
 14 15  1  0  0  0  0
 14 16  1  0  0  0  0
 14 17  1  0  0  0  0
 17 18  1  0  0  0  0
 17 19  1  0  0  0  0
 17 20  1  0  0  0  0
M  END
> <VConfSearch Rank>
167

> <Conf_Id>
3

> <Delta U+W>
3.093

> <U+W>
-33.184

> <U>
25.256

> <W>
-58.439

> <W(PB)>
-60.337

> <W(SA)>
1.898

> <Valence>
4.963

> <Coulomb>
19.511

> <VdW>
0.782

> <VdW6>
-5.429

> <VdW12>
6.211

> <Bond>
0.174

> <Angle>
1.377

> <Pdih>
3.412

> <Idih>
0.000

> <Tether>
0.000

$$$$
VeraChem MOL file


 20 19  0  0  0  0  0  0  0  0999 V2000     
   21.4607   17.6088   23.2640 N   0  3  0  0  0  0  0  0  0  0  0  0
   22.0409   17.1610   22.5495 H   0  0  0  0  0  0  0  0  0  0  0  0
   21.0482   16.8623   23.8300 H   0  0  0  0  0  0  0  0  0  0  0  0
   22.0860   18.1440   23.8716 H   0  0  0  0  0  0  0  0  0  0  0  0
   20.4057   18.4855   22.6470 C   0  0  2  0  0  0  0  0  0  0  0  0
   19.7940   17.8322   22.0175 H   0  0  0  0  0  0  0  0  0  0  0  0
   21.0554   19.5551   21.7504 C   0  0  0  0  0  0  0  0  0  0  0  0
   20.2998   20.1125   21.1848 H   0  0  0  0  0  0  0  0  0  0  0  0
   21.7295   19.0904   21.0204 H   0  0  0  0  0  0  0  0  0  0  0  0
   21.6378   20.2706   22.3441 H   0  0  0  0  0  0  0  0  0  0  0  0
   19.4936   19.1105   23.7295 C   0  0  0  0  0  0  0  0  0  0  0  0
   19.1255   18.3095   24.3840 H   0  0  0  0  0  0  0  0  0  0  0  0
   20.0905   19.7751   24.3680 H   0  0  0  0  0  0  0  0  0  0  0  0
   18.2724   19.8946   23.1845 C   0  0  0  0  0  0  0  0  0  0  0  0
   18.6052   20.7841   22.6330 H   0  0  0  0  0  0  0  0  0  0  0  0
   17.6876   20.2708   24.0355 H   0  0  0  0  0  0  0  0  0  0  0  0
   17.3532   19.0362   22.2859 C   0  0  0  0  0  0  0  0  0  0  0  0
   17.0096   18.1382   22.8158 H   0  0  0  0  0  0  0  0  0  0  0  0
   17.8670   18.7189   21.3697 H   0  0  0  0  0  0  0  0  0  0  0  0
   16.4656   19.6082   21.9859 H   0  0  0  0  0  0  0  0  0  0  0  0
  1  2  1  0  0  0  0
  1  3  1  0  0  0  0
  1  4  1  0  0  0  0
  1  5  1  0  0  0  0
  5  6  1  0  0  0  0
  5  7  1  0  0  0  0
  7  8  1  0  0  0  0
  7  9  1  0  0  0  0
  7 10  1  0  0  0  0
  5 11  1  0  0  0  0
 11 12  1  0  0  0  0
 11 13  1  0  0  0  0
 11 14  1  0  0  0  0
 14 15  1  0  0  0  0
 14 16  1  0  0  0  0
 14 17  1  0  0  0  0
 17 18  1  0  0  0  0
 17 19  1  0  0  0  0
 17 20  1  0  0  0  0
M  END
> <VConfSearch Rank>
168

> <Conf_Id>
64

> <Delta U+W>
0.544

> <U+W>
-35.732

> <U>
22.800

> <W>
-58.532

> <W(PB)>
-60.437

> <W(SA)>
1.905

> <Valence>
2.662

> <Coulomb>
19.485

> <VdW>
0.653

> <VdW6>
-5.460

> <VdW12>
6.113

> <Bond>
0.174

> <Angle>
1.378

> <Pdih>
1.109

> <Idih>
0.000

> <Tether>
0.000

$$$$
VeraChem MOL file


 20 19  0  0  0  0  0  0  0  0999 V2000     
   17.7269   19.1702   23.1041 N   0  3  0  0  0  0  0  0  0  0  0  0
   18.1271   20.0133   23.5215 H   0  0  0  0  0  0  0  0  0  0  0  0
   17.0837   18.7654   23.7898 H   0  0  0  0  0  0  0  0  0  0  0  0
   17.1671   19.4622   22.2985 H   0  0  0  0  0  0  0  0  0  0  0  0
   18.7977   18.1896   22.7082 C   0  0  2  0  0  0  0  0  0  0  0  0
   18.2723   17.3268   22.2870 H   0  0  0  0  0  0  0  0  0  0  0  0
   19.5735   17.6978   23.9410 C   0  0  0  0  0  0  0  0  0  0  0  0
   20.0182   18.5327   24.4950 H   0  0  0  0  0  0  0  0  0  0  0  0
   20.3733   17.0060   23.6494 H   0  0  0  0  0  0  0  0  0  0  0  0
   18.9044   17.1627   24.6259 H   0  0  0  0  0  0  0  0  0  0  0  0
   19.7214   18.7435   21.5943 C   0  0  0  0  0  0  0  0  0  0  0  0
   20.3664   17.9370   21.2215 H   0  0  0  0  0  0  0  0  0  0  0  0
   19.0825   19.0172   20.7444 H   0  0  0  0  0  0  0  0  0  0  0  0
   20.5865   19.9787   21.9703 C   0  0  0  0  0  0  0  0  0  0  0  0
   20.0756   20.6028   22.7151 H   0  0  0  0  0  0  0  0  0  0  0  0
   20.6963   20.6091   21.0767 H   0  0  0  0  0  0  0  0  0  0  0  0
   22.0051   19.6119   22.4660 C   0  0  0  0  0  0  0  0  0  0  0  0
   21.9811   19.0170   23.3854 H   0  0  0  0  0  0  0  0  0  0  0  0
   22.5845   20.5204   22.6755 H   0  0  0  0  0  0  0  0  0  0  0  0
   22.5510   19.0385   21.7056 H   0  0  0  0  0  0  0  0  0  0  0  0
  1  2  1  0  0  0  0
  1  3  1  0  0  0  0
  1  4  1  0  0  0  0
  1  5  1  0  0  0  0
  5  6  1  0  0  0  0
  5  7  1  0  0  0  0
  7  8  1  0  0  0  0
  7  9  1  0  0  0  0
  7 10  1  0  0  0  0
  5 11  1  0  0  0  0
 11 12  1  0  0  0  0
 11 13  1  0  0  0  0
 11 14  1  0  0  0  0
 14 15  1  0  0  0  0
 14 16  1  0  0  0  0
 14 17  1  0  0  0  0
 17 18  1  0  0  0  0
 17 19  1  0  0  0  0
 17 20  1  0  0  0  0
M  END
> <VConfSearch Rank>
169

> <Conf_Id>
35

> <Delta U+W>
3.004

> <U+W>
-33.272

> <U>
25.367

> <W>
-58.639

> <W(PB)>
-60.512

> <W(SA)>
1.873

> <Valence>
4.943

> <Coulomb>
19.661

> <VdW>
0.764

> <VdW6>
-5.871

> <VdW12>
6.636

> <Bond>
0.230

> <Angle>
1.857

> <Pdih>
2.855

> <Idih>
0.000

> <Tether>
0.000

$$$$
VeraChem MOL file


 20 19  0  0  0  0  0  0  0  0999 V2000     
   18.2536   19.4314   23.4453 N   0  3  0  0  0  0  0  0  0  0  0  0
   17.3276   19.0240   23.6010 H   0  0  0  0  0  0  0  0  0  0  0  0
   18.1651   20.4439   23.5664 H   0  0  0  0  0  0  0  0  0  0  0  0
   18.8714   19.0879   24.1830 H   0  0  0  0  0  0  0  0  0  0  0  0
   18.7873   19.0844   22.0825 C   0  0  2  0  0  0  0  0  0  0  0  0
   18.0733   19.5156   21.3739 H   0  0  0  0  0  0  0  0  0  0  0  0
   18.7969   17.5625   21.8541 C   0  0  0  0  0  0  0  0  0  0  0  0
   19.4223   17.0462   22.5921 H   0  0  0  0  0  0  0  0  0  0  0  0
   19.1757   17.3219   20.8531 H   0  0  0  0  0  0  0  0  0  0  0  0
   17.7813   17.1558   21.9320 H   0  0  0  0  0  0  0  0  0  0  0  0
   20.1625   19.7353   21.7851 C   0  0  0  0  0  0  0  0  0  0  0  0
   20.3206   19.6965   20.6993 H   0  0  0  0  0  0  0  0  0  0  0  0
   20.1113   20.8035   22.0333 H   0  0  0  0  0  0  0  0  0  0  0  0
   21.4104   19.1096   22.4691 C   0  0  0  0  0  0  0  0  0  0  0  0
   22.2980   19.6552   22.1195 H   0  0  0  0  0  0  0  0  0  0  0  0
   21.5502   18.0735   22.1320 H   0  0  0  0  0  0  0  0  0  0  0  0
   21.3905   19.1553   24.0139 C   0  0  0  0  0  0  0  0  0  0  0  0
   21.1668   20.1660   24.3796 H   0  0  0  0  0  0  0  0  0  0  0  0
   22.3707   18.8662   24.4150 H   0  0  0  0  0  0  0  0  0  0  0  0
   20.6550   18.4568   24.4291 H   0  0  0  0  0  0  0  0  0  0  0  0
  1  2  1  0  0  0  0
  1  3  1  0  0  0  0
  1  4  1  0  0  0  0
  1  5  1  0  0  0  0
  5  6  1  0  0  0  0
  5  7  1  0  0  0  0
  7  8  1  0  0  0  0
  7  9  1  0  0  0  0
  7 10  1  0  0  0  0
  5 11  1  0  0  0  0
 11 12  1  0  0  0  0
 11 13  1  0  0  0  0
 11 14  1  0  0  0  0
 14 15  1  0  0  0  0
 14 16  1  0  0  0  0
 14 17  1  0  0  0  0
 17 18  1  0  0  0  0
 17 19  1  0  0  0  0
 17 20  1  0  0  0  0
M  END
> <VConfSearch Rank>
170

> <Conf_Id>
55

> <Delta U+W>
2.767

> <U+W>
-33.509

> <U>
24.552

> <W>
-58.061

> <W(PB)>
-59.930

> <W(SA)>
1.869

> <Valence>
3.726

> <Coulomb>
20.219

> <VdW>
0.606

> <VdW6>
-6.395

> <VdW12>
7.001

> <Bond>
0.241

> <Angle>
2.098

> <Pdih>
1.387

> <Idih>
0.000

> <Tether>
0.000

$$$$
VeraChem MOL file


 20 19  0  0  0  0  0  0  0  0999 V2000     
   20.7152   20.4538   21.8803 N   0  3  0  0  0  0  0  0  0  0  0  0
   20.7637   20.0689   20.9337 H   0  0  0  0  0  0  0  0  0  0  0  0
   21.4868   21.1191   21.9791 H   0  0  0  0  0  0  0  0  0  0  0  0
   19.8444   20.9860   21.9517 H   0  0  0  0  0  0  0  0  0  0  0  0
   20.7866   19.3690   22.9210 C   0  0  2  0  0  0  0  0  0  0  0  0
   20.7243   19.8632   23.8956 H   0  0  0  0  0  0  0  0  0  0  0  0
   22.1333   18.6315   22.8408 C   0  0  0  0  0  0  0  0  0  0  0  0
   22.9682   19.3337   22.9549 H   0  0  0  0  0  0  0  0  0  0  0  0
   22.2482   18.1174   21.8784 H   0  0  0  0  0  0  0  0  0  0  0  0
   22.2168   17.8839   23.6394 H   0  0  0  0  0  0  0  0  0  0  0  0
   19.6175   18.3652   22.8133 C   0  0  0  0  0  0  0  0  0  0  0  0
   19.6431   17.8715   21.8327 H   0  0  0  0  0  0  0  0  0  0  0  0
   19.7577   17.5763   23.5643 H   0  0  0  0  0  0  0  0  0  0  0  0
   18.2332   19.0219   23.0323 C   0  0  0  0  0  0  0  0  0  0  0  0
   18.0444   19.7776   22.2578 H   0  0  0  0  0  0  0  0  0  0  0  0
   18.2207   19.5461   23.9983 H   0  0  0  0  0  0  0  0  0  0  0  0
   17.0961   17.9781   23.0026 C   0  0  0  0  0  0  0  0  0  0  0  0
   17.0631   17.4573   22.0367 H   0  0  0  0  0  0  0  0  0  0  0  0
   16.1225   18.4609   23.1580 H   0  0  0  0  0  0  0  0  0  0  0  0
   17.2283   17.2265   23.7918 H   0  0  0  0  0  0  0  0  0  0  0  0
  1  2  1  0  0  0  0
  1  3  1  0  0  0  0
  1  4  1  0  0  0  0
  1  5  1  0  0  0  0
  5  6  1  0  0  0  0
  5  7  1  0  0  0  0
  7  8  1  0  0  0  0
  7  9  1  0  0  0  0
  7 10  1  0  0  0  0
  5 11  1  0  0  0  0
 11 12  1  0  0  0  0
 11 13  1  0  0  0  0
 11 14  1  0  0  0  0
 14 15  1  0  0  0  0
 14 16  1  0  0  0  0
 14 17  1  0  0  0  0
 17 18  1  0  0  0  0
 17 19  1  0  0  0  0
 17 20  1  0  0  0  0
M  END
> <VConfSearch Rank>
171

> <Conf_Id>
74

> <Delta U+W>
0.000

> <U+W>
-36.276

> <U>
22.080

> <W>
-58.356

> <W(PB)>
-60.289

> <W(SA)>
1.932

> <Valence>
1.885

> <Coulomb>
19.559

> <VdW>
0.637

> <VdW6>
-4.482

> <VdW12>
5.119

> <Bond>
0.136

> <Angle>
0.867

> <Pdih>
0.882

> <Idih>
0.000

> <Tether>
0.000

$$$$
VeraChem MOL file


 20 19  0  0  0  0  0  0  0  0999 V2000     
   20.8569   17.0891   21.6865 N   0  3  0  0  0  0  0  0  0  0  0  0
   20.1657   16.7878   20.9941 H   0  0  0  0  0  0  0  0  0  0  0  0
   20.8098   16.4344   22.4712 H   0  0  0  0  0  0  0  0  0  0  0  0
   21.7801   16.9834   21.2573 H   0  0  0  0  0  0  0  0  0  0  0  0
   20.6157   18.5051   22.1327 C   0  0  2  0  0  0  0  0  0  0  0  0
   20.6878   19.1274   21.2353 H   0  0  0  0  0  0  0  0  0  0  0  0
   21.7111   18.9475   23.1203 C   0  0  0  0  0  0  0  0  0  0  0  0
   22.7074   18.7714   22.6965 H   0  0  0  0  0  0  0  0  0  0  0  0
   21.6411   18.3943   24.0651 H   0  0  0  0  0  0  0  0  0  0  0  0
   21.6394   20.0183   23.3426 H   0  0  0  0  0  0  0  0  0  0  0  0
   19.1963   18.6713   22.7236 C   0  0  0  0  0  0  0  0  0  0  0  0
   18.4738   18.2399   22.0183 H   0  0  0  0  0  0  0  0  0  0  0  0
   19.1111   18.0887   23.6506 H   0  0  0  0  0  0  0  0  0  0  0  0
   18.7999   20.1432   22.9943 C   0  0  0  0  0  0  0  0  0  0  0  0
   18.9453   20.7399   22.0827 H   0  0  0  0  0  0  0  0  0  0  0  0
   19.4493   20.5772   23.7662 H   0  0  0  0  0  0  0  0  0  0  0  0
   17.3310   20.2622   23.4545 C   0  0  0  0  0  0  0  0  0  0  0  0
   16.6440   19.8776   22.6895 H   0  0  0  0  0  0  0  0  0  0  0  0
   17.0682   21.3109   23.6453 H   0  0  0  0  0  0  0  0  0  0  0  0
   17.1607   19.6987   24.3812 H   0  0  0  0  0  0  0  0  0  0  0  0
  1  2  1  0  0  0  0
  1  3  1  0  0  0  0
  1  4  1  0  0  0  0
  1  5  1  0  0  0  0
  5  6  1  0  0  0  0
  5  7  1  0  0  0  0
  7  8  1  0  0  0  0
  7  9  1  0  0  0  0
  7 10  1  0  0  0  0
  5 11  1  0  0  0  0
 11 12  1  0  0  0  0
 11 13  1  0  0  0  0
 11 14  1  0  0  0  0
 14 15  1  0  0  0  0
 14 16  1  0  0  0  0
 14 17  1  0  0  0  0
 17 18  1  0  0  0  0
 17 19  1  0  0  0  0
 17 20  1  0  0  0  0
M  END
> <VConfSearch Rank>
172

> <Conf_Id>
80

> <Delta U+W>
0.460

> <U+W>
-35.817

> <U>
22.495

> <W>
-58.311

> <W(PB)>
-60.259

> <W(SA)>
1.948

> <Valence>
2.419

> <Coulomb>
19.304

> <VdW>
0.772

> <VdW6>
-4.635

> <VdW12>
5.407

> <Bond>
0.149

> <Angle>
1.142

> <Pdih>
1.129

> <Idih>
0.000

> <Tether>
0.000

$$$$
VeraChem MOL file


 20 19  0  0  0  0  0  0  0  0999 V2000     
   18.0546   17.1951   22.5732 N   0  3  0  0  0  0  0  0  0  0  0  0
   18.0366   16.6103   23.4132 H   0  0  0  0  0  0  0  0  0  0  0  0
   18.5272   16.6621   21.8388 H   0  0  0  0  0  0  0  0  0  0  0  0
   17.0841   17.3275   22.2763 H   0  0  0  0  0  0  0  0  0  0  0  0
   18.7374   18.5113   22.8266 C   0  0  2  0  0  0  0  0  0  0  0  0
   18.1629   19.0075   23.6149 H   0  0  0  0  0  0  0  0  0  0  0  0
   18.6800   19.3920   21.5667 C   0  0  0  0  0  0  0  0  0  0  0  0
   17.6553   19.4477   21.1793 H   0  0  0  0  0  0  0  0  0  0  0  0
   19.3236   18.9936   20.7727 H   0  0  0  0  0  0  0  0  0  0  0  0
   18.9949   20.4176   21.7901 H   0  0  0  0  0  0  0  0  0  0  0  0
   20.1803   18.2978   23.3461 C   0  0  0  0  0  0  0  0  0  0  0  0
   20.1214   17.6323   24.2175 H   0  0  0  0  0  0  0  0  0  0  0  0
   20.7768   17.7583   22.5986 H   0  0  0  0  0  0  0  0  0  0  0  0
   20.9158   19.5905   23.7885 C   0  0  0  0  0  0  0  0  0  0  0  0
   21.5326   19.3590   24.6683 H   0  0  0  0  0  0  0  0  0  0  0  0
   20.1916   20.3479   24.1199 H   0  0  0  0  0  0  0  0  0  0  0  0
   21.8443   20.1738   22.6973 C   0  0  0  0  0  0  0  0  0  0  0  0
   22.6190   19.4496   22.4138 H   0  0  0  0  0  0  0  0  0  0  0  0
   22.3512   21.0749   23.0660 H   0  0  0  0  0  0  0  0  0  0  0  0
   21.2942   20.4503   21.7909 H   0  0  0  0  0  0  0  0  0  0  0  0
  1  2  1  0  0  0  0
  1  3  1  0  0  0  0
  1  4  1  0  0  0  0
  1  5  1  0  0  0  0
  5  6  1  0  0  0  0
  5  7  1  0  0  0  0
  7  8  1  0  0  0  0
  7  9  1  0  0  0  0
  7 10  1  0  0  0  0
  5 11  1  0  0  0  0
 11 12  1  0  0  0  0
 11 13  1  0  0  0  0
 11 14  1  0  0  0  0
 14 15  1  0  0  0  0
 14 16  1  0  0  0  0
 14 17  1  0  0  0  0
 17 18  1  0  0  0  0
 17 19  1  0  0  0  0
 17 20  1  0  0  0  0
M  END
> <VConfSearch Rank>
173

> <Conf_Id>
52

> <Delta U+W>
2.995

> <U+W>
-33.282

> <U>
25.224

> <W>
-58.506

> <W(PB)>
-60.411

> <W(SA)>
1.905

> <Valence>
4.945

> <Coulomb>
19.467

> <VdW>
0.813

> <VdW6>
-5.458

> <VdW12>
6.270

> <Bond>
0.200

> <Angle>
1.675

> <Pdih>
3.070

> <Idih>
0.000

> <Tether>
0.000

$$$$
VeraChem MOL file


 20 19  0  0  0  0  0  0  0  0999 V2000     
   21.3397   19.1014   22.4175 N   0  3  0  0  0  0  0  0  0  0  0  0
   21.5105   18.3448   21.7505 H   0  0  0  0  0  0  0  0  0  0  0  0
   22.2372   19.3367   22.8497 H   0  0  0  0  0  0  0  0  0  0  0  0
   21.0310   19.9163   21.8831 H   0  0  0  0  0  0  0  0  0  0  0  0
   20.3175   18.7043   23.4473 C   0  0  2  0  0  0  0  0  0  0  0  0
   20.2250   19.5397   24.1483 H   0  0  0  0  0  0  0  0  0  0  0  0
   20.8134   17.4749   24.2273 C   0  0  0  0  0  0  0  0  0  0  0  0
   20.9089   16.6005   23.5714 H   0  0  0  0  0  0  0  0  0  0  0  0
   20.1196   17.2200   25.0381 H   0  0  0  0  0  0  0  0  0  0  0  0
   21.7930   17.6710   24.6803 H   0  0  0  0  0  0  0  0  0  0  0  0
   18.9241   18.4279   22.8339 C   0  0  0  0  0  0  0  0  0  0  0  0
   19.0245   17.7799   21.9532 H   0  0  0  0  0  0  0  0  0  0  0  0
   18.3292   17.8572   23.5595 H   0  0  0  0  0  0  0  0  0  0  0  0
   18.1091   19.6975   22.4728 C   0  0  0  0  0  0  0  0  0  0  0  0
   17.9727   20.3175   23.3701 H   0  0  0  0  0  0  0  0  0  0  0  0
   17.1015   19.3819   22.1676 H   0  0  0  0  0  0  0  0  0  0  0  0
   18.7138   20.5569   21.3392 C   0  0  0  0  0  0  0  0  0  0  0  0
   17.9887   21.3119   21.0083 H   0  0  0  0  0  0  0  0  0  0  0  0
   18.9743   19.9424   20.4675 H   0  0  0  0  0  0  0  0  0  0  0  0
   19.6066   21.0976   21.6740 H   0  0  0  0  0  0  0  0  0  0  0  0
  1  2  1  0  0  0  0
  1  3  1  0  0  0  0
  1  4  1  0  0  0  0
  1  5  1  0  0  0  0
  5  6  1  0  0  0  0
  5  7  1  0  0  0  0
  7  8  1  0  0  0  0
  7  9  1  0  0  0  0
  7 10  1  0  0  0  0
  5 11  1  0  0  0  0
 11 12  1  0  0  0  0
 11 13  1  0  0  0  0
 11 14  1  0  0  0  0
 14 15  1  0  0  0  0
 14 16  1  0  0  0  0
 14 17  1  0  0  0  0
 17 18  1  0  0  0  0
 17 19  1  0  0  0  0
 17 20  1  0  0  0  0
M  END
> <VConfSearch Rank>
174

> <Conf_Id>
54

> <Delta U+W>
2.752

> <U+W>
-33.525

> <U>
24.337

> <W>
-57.862

> <W(PB)>
-59.764

> <W(SA)>
1.901

> <Valence>
3.593

> <Coulomb>
20.067

> <VdW>
0.677

> <VdW6>
-5.466

> <VdW12>
6.144

> <Bond>
0.191

> <Angle>
1.557

> <Pdih>
1.845

> <Idih>
0.000

> <Tether>
0.000

$$$$
VeraChem MOL file


 20 19  0  0  0  0  0  0  0  0999 V2000     
   19.0175   17.2060   21.8832 N   0  3  0  0  0  0  0  0  0  0  0  0
   18.8086   16.2230   22.0775 H   0  0  0  0  0  0  0  0  0  0  0  0
   19.2517   17.2760   20.8892 H   0  0  0  0  0  0  0  0  0  0  0  0
   18.1567   17.7367   22.0343 H   0  0  0  0  0  0  0  0  0  0  0  0
   20.1361   17.7133   22.7522 C   0  0  2  0  0  0  0  0  0  0  0  0
   21.0006   17.0784   22.5340 H   0  0  0  0  0  0  0  0  0  0  0  0
   19.7992   17.5411   24.2440 C   0  0  0  0  0  0  0  0  0  0  0  0
   20.6163   17.9137   24.8741 H   0  0  0  0  0  0  0  0  0  0  0  0
   19.6521   16.4810   24.4840 H   0  0  0  0  0  0  0  0  0  0  0  0
   18.8822   18.0762   24.5178 H   0  0  0  0  0  0  0  0  0  0  0  0
   20.5389   19.1681   22.4108 C   0  0  0  0  0  0  0  0  0  0  0  0
   21.4137   19.4430   23.0149 H   0  0  0  0  0  0  0  0  0  0  0  0
   20.8732   19.1994   21.3655 H   0  0  0  0  0  0  0  0  0  0  0  0
   19.4215   20.2227   22.6191 C   0  0  0  0  0  0  0  0  0  0  0  0
   19.1093   20.2429   23.6718 H   0  0  0  0  0  0  0  0  0  0  0  0
   18.5345   19.9573   22.0284 H   0  0  0  0  0  0  0  0  0  0  0  0
   19.8927   21.6352   22.2115 C   0  0  0  0  0  0  0  0  0  0  0  0
   19.0926   22.3707   22.3663 H   0  0  0  0  0  0  0  0  0  0  0  0
   20.1776   21.6665   21.1517 H   0  0  0  0  0  0  0  0  0  0  0  0
   20.7591   21.9501   22.8077 H   0  0  0  0  0  0  0  0  0  0  0  0
  1  2  1  0  0  0  0
  1  3  1  0  0  0  0
  1  4  1  0  0  0  0
  1  5  1  0  0  0  0
  5  6  1  0  0  0  0
  5  7  1  0  0  0  0
  7  8  1  0  0  0  0
  7  9  1  0  0  0  0
  7 10  1  0  0  0  0
  5 11  1  0  0  0  0
 11 12  1  0  0  0  0
 11 13  1  0  0  0  0
 11 14  1  0  0  0  0
 14 15  1  0  0  0  0
 14 16  1  0  0  0  0
 14 17  1  0  0  0  0
 17 18  1  0  0  0  0
 17 19  1  0  0  0  0
 17 20  1  0  0  0  0
M  END
> <VConfSearch Rank>
175

> <Conf_Id>
63

> <Delta U+W>
0.420

> <U+W>
-35.856

> <U>
22.625

> <W>
-58.481

> <W(PB)>
-60.400

> <W(SA)>
1.919

> <Valence>
2.404

> <Coulomb>
19.464

> <VdW>
0.757

> <VdW6>
-5.074

> <VdW12>
5.830

> <Bond>
0.172

> <Angle>
1.207

> <Pdih>
1.025

> <Idih>
0.000

> <Tether>
0.000

$$$$
VeraChem MOL file


 20 19  0  0  0  0  0  0  0  0999 V2000     
   18.1978   18.1266   23.2119 N   0  3  0  0  0  0  0  0  0  0  0  0
   18.5456   17.3858   22.5978 H   0  0  0  0  0  0  0  0  0  0  0  0
   17.3892   18.5531   22.7528 H   0  0  0  0  0  0  0  0  0  0  0  0
   17.8625   17.6803   24.0697 H   0  0  0  0  0  0  0  0  0  0  0  0
   19.2677   19.1444   23.5011 C   0  0  2  0  0  0  0  0  0  0  0  0
   20.0871   18.6093   23.9904 H   0  0  0  0  0  0  0  0  0  0  0  0
   18.7489   20.2165   24.4732 C   0  0  0  0  0  0  0  0  0  0  0  0
   18.3937   19.7575   25.4040 H   0  0  0  0  0  0  0  0  0  0  0  0
   17.9191   20.7837   24.0336 H   0  0  0  0  0  0  0  0  0  0  0  0
   19.5457   20.9239   24.7345 H   0  0  0  0  0  0  0  0  0  0  0  0
   19.8186   19.8041   22.2165 C   0  0  0  0  0  0  0  0  0  0  0  0
   19.0134   20.3608   21.7188 H   0  0  0  0  0  0  0  0  0  0  0  0
   20.5784   20.5468   22.4940 H   0  0  0  0  0  0  0  0  0  0  0  0
   20.4437   18.8069   21.2082 C   0  0  0  0  0  0  0  0  0  0  0  0
   20.8000   19.3677   20.3327 H   0  0  0  0  0  0  0  0  0  0  0  0
   19.6770   18.1160   20.8320 H   0  0  0  0  0  0  0  0  0  0  0  0
   21.6232   18.0038   21.8023 C   0  0  0  0  0  0  0  0  0  0  0  0
   22.4036   18.6742   22.1854 H   0  0  0  0  0  0  0  0  0  0  0  0
   22.0787   17.3648   21.0347 H   0  0  0  0  0  0  0  0  0  0  0  0
   21.2973   17.3529   22.6233 H   0  0  0  0  0  0  0  0  0  0  0  0
  1  2  1  0  0  0  0
  1  3  1  0  0  0  0
  1  4  1  0  0  0  0
  1  5  1  0  0  0  0
  5  6  1  0  0  0  0
  5  7  1  0  0  0  0
  7  8  1  0  0  0  0
  7  9  1  0  0  0  0
  7 10  1  0  0  0  0
  5 11  1  0  0  0  0
 11 12  1  0  0  0  0
 11 13  1  0  0  0  0
 11 14  1  0  0  0  0
 14 15  1  0  0  0  0
 14 16  1  0  0  0  0
 14 17  1  0  0  0  0
 17 18  1  0  0  0  0
 17 19  1  0  0  0  0
 17 20  1  0  0  0  0
M  END
> <VConfSearch Rank>
176

> <Conf_Id>
50

> <Delta U+W>
0.466

> <U+W>
-35.811

> <U>
22.369

> <W>
-58.180

> <W(PB)>
-60.103

> <W(SA)>
1.923

> <Valence>
2.168

> <Coulomb>
19.636

> <VdW>
0.566

> <VdW6>
-5.263

> <VdW12>
5.829

> <Bond>
0.162

> <Angle>
1.066

> <Pdih>
0.939

> <Idih>
0.000

> <Tether>
0.000

$$$$
VeraChem MOL file


 20 19  0  0  0  0  0  0  0  0999 V2000     
   21.7113   17.8870   22.2573 N   0  3  0  0  0  0  0  0  0  0  0  0
   21.6319   16.9414   22.6415 H   0  0  0  0  0  0  0  0  0  0  0  0
   22.4285   18.3785   22.7967 H   0  0  0  0  0  0  0  0  0  0  0  0
   22.0604   17.7956   21.2994 H   0  0  0  0  0  0  0  0  0  0  0  0
   20.3945   18.6145   22.2965 C   0  0  2  0  0  0  0  0  0  0  0  0
   19.6982   18.0164   21.7006 H   0  0  0  0  0  0  0  0  0  0  0  0
   20.5392   20.0013   21.6425 C   0  0  0  0  0  0  0  0  0  0  0  0
   21.2668   20.6193   22.1831 H   0  0  0  0  0  0  0  0  0  0  0  0
   19.5860   20.5407   21.6267 H   0  0  0  0  0  0  0  0  0  0  0  0
   20.8814   19.9051   20.6048 H   0  0  0  0  0  0  0  0  0  0  0  0
   19.8327   18.7159   23.7361 C   0  0  0  0  0  0  0  0  0  0  0  0
   20.3458   17.9846   24.3745 H   0  0  0  0  0  0  0  0  0  0  0  0
   20.0623   19.6986   24.1691 H   0  0  0  0  0  0  0  0  0  0  0  0
   18.3128   18.4305   23.8380 C   0  0  0  0  0  0  0  0  0  0  0  0
   18.0229   18.4481   24.8980 H   0  0  0  0  0  0  0  0  0  0  0  0
   18.1057   17.4114   23.4821 H   0  0  0  0  0  0  0  0  0  0  0  0
   17.4281   19.4330   23.0644 C   0  0  0  0  0  0  0  0  0  0  0  0
   17.6419   20.4662   23.3672 H   0  0  0  0  0  0  0  0  0  0  0  0
   16.3659   19.2394   23.2628 H   0  0  0  0  0  0  0  0  0  0  0  0
   17.5794   19.3484   21.9811 H   0  0  0  0  0  0  0  0  0  0  0  0
  1  2  1  0  0  0  0
  1  3  1  0  0  0  0
  1  4  1  0  0  0  0
  1  5  1  0  0  0  0
  5  6  1  0  0  0  0
  5  7  1  0  0  0  0
  7  8  1  0  0  0  0
  7  9  1  0  0  0  0
  7 10  1  0  0  0  0
  5 11  1  0  0  0  0
 11 12  1  0  0  0  0
 11 13  1  0  0  0  0
 11 14  1  0  0  0  0
 14 15  1  0  0  0  0
 14 16  1  0  0  0  0
 14 17  1  0  0  0  0
 17 18  1  0  0  0  0
 17 19  1  0  0  0  0
 17 20  1  0  0  0  0
M  END
> <VConfSearch Rank>
177

> <Conf_Id>
3

> <Delta U+W>
3.093

> <U+W>
-33.184

> <U>
25.256

> <W>
-58.439

> <W(PB)>
-60.337

> <W(SA)>
1.898

> <Valence>
4.963

> <Coulomb>
19.511

> <VdW>
0.782

> <VdW6>
-5.429

> <VdW12>
6.211

> <Bond>
0.174

> <Angle>
1.377

> <Pdih>
3.412

> <Idih>
0.000

> <Tether>
0.000

$$$$
VeraChem MOL file


 20 19  0  0  0  0  0  0  0  0999 V2000     
   18.8709   20.1494   24.5205 N   0  3  0  0  0  0  0  0  0  0  0  0
   18.8451   19.7924   25.4794 H   0  0  0  0  0  0  0  0  0  0  0  0
   17.9052   20.3502   24.2466 H   0  0  0  0  0  0  0  0  0  0  0  0
   19.3749   21.0395   24.5411 H   0  0  0  0  0  0  0  0  0  0  0  0
   19.5210   19.1678   23.5844 C   0  0  2  0  0  0  0  0  0  0  0  0
   18.9201   18.2546   23.6322 H   0  0  0  0  0  0  0  0  0  0  0  0
   20.9469   18.8369   24.0613 C   0  0  0  0  0  0  0  0  0  0  0  0
   21.3837   18.0214   23.4733 H   0  0  0  0  0  0  0  0  0  0  0  0
   20.9389   18.5130   25.1092 H   0  0  0  0  0  0  0  0  0  0  0  0
   21.6055   19.7105   23.9801 H   0  0  0  0  0  0  0  0  0  0  0  0
   19.5015   19.6867   22.1268 C   0  0  0  0  0  0  0  0  0  0  0  0
   18.4746   19.9806   21.8722 H   0  0  0  0  0  0  0  0  0  0  0  0
   20.1055   20.6012   22.0585 H   0  0  0  0  0  0  0  0  0  0  0  0
   19.9961   18.6728   21.0636 C   0  0  0  0  0  0  0  0  0  0  0  0
   21.0632   18.4574   21.2090 H   0  0  0  0  0  0  0  0  0  0  0  0
   19.9165   19.1372   20.0707 H   0  0  0  0  0  0  0  0  0  0  0  0
   19.1917   17.3529   21.0647 C   0  0  0  0  0  0  0  0  0  0  0  0
   18.1198   17.5435   20.9235 H   0  0  0  0  0  0  0  0  0  0  0  0
   19.3217   16.8022   22.0048 H   0  0  0  0  0  0  0  0  0  0  0  0
   19.5257   16.6983   20.2493 H   0  0  0  0  0  0  0  0  0  0  0  0
  1  2  1  0  0  0  0
  1  3  1  0  0  0  0
  1  4  1  0  0  0  0
  1  5  1  0  0  0  0
  5  6  1  0  0  0  0
  5  7  1  0  0  0  0
  7  8  1  0  0  0  0
  7  9  1  0  0  0  0
  7 10  1  0  0  0  0
  5 11  1  0  0  0  0
 11 12  1  0  0  0  0
 11 13  1  0  0  0  0
 11 14  1  0  0  0  0
 14 15  1  0  0  0  0
 14 16  1  0  0  0  0
 14 17  1  0  0  0  0
 17 18  1  0  0  0  0
 17 19  1  0  0  0  0
 17 20  1  0  0  0  0
M  END
> <VConfSearch Rank>
178

> <Conf_Id>
64

> <Delta U+W>
0.544

> <U+W>
-35.732

> <U>
22.800

> <W>
-58.532

> <W(PB)>
-60.437

> <W(SA)>
1.905

> <Valence>
2.662

> <Coulomb>
19.485

> <VdW>
0.653

> <VdW6>
-5.460

> <VdW12>
6.113

> <Bond>
0.174

> <Angle>
1.378

> <Pdih>
1.109

> <Idih>
0.000

> <Tether>
0.000

$$$$
VeraChem MOL file


 20 19  0  0  0  0  0  0  0  0999 V2000     
   20.6749   17.3958   21.5387 N   0  3  0  0  0  0  0  0  0  0  0  0
   21.2597   18.2026   21.3099 H   0  0  0  0  0  0  0  0  0  0  0  0
   20.4275   16.9379   20.6574 H   0  0  0  0  0  0  0  0  0  0  0  0
   21.2522   16.7389   22.0705 H   0  0  0  0  0  0  0  0  0  0  0  0
   19.4488   17.8050   22.3094 C   0  0  2  0  0  0  0  0  0  0  0  0
   18.8897   16.8823   22.4939 H   0  0  0  0  0  0  0  0  0  0  0  0
   18.5517   18.7243   21.4645 C   0  0  0  0  0  0  0  0  0  0  0  0
   19.0945   19.6147   21.1265 H   0  0  0  0  0  0  0  0  0  0  0  0
   17.6730   19.0465   22.0367 H   0  0  0  0  0  0  0  0  0  0  0  0
   18.1926   18.1950   20.5736 H   0  0  0  0  0  0  0  0  0  0  0  0
   19.7966   18.4066   23.6944 C   0  0  0  0  0  0  0  0  0  0  0  0
   18.8765   18.5245   24.2817 H   0  0  0  0  0  0  0  0  0  0  0  0
   20.3906   17.6592   24.2367 H   0  0  0  0  0  0  0  0  0  0  0  0
   20.5893   19.7433   23.6831 C   0  0  0  0  0  0  0  0  0  0  0  0
   21.2419   19.8045   22.8024 H   0  0  0  0  0  0  0  0  0  0  0  0
   21.2601   19.7550   24.5537 H   0  0  0  0  0  0  0  0  0  0  0  0
   19.6875   20.9974   23.7657 C   0  0  0  0  0  0  0  0  0  0  0  0
   19.0161   21.0817   22.9042 H   0  0  0  0  0  0  0  0  0  0  0  0
   20.2996   21.9081   23.7977 H   0  0  0  0  0  0  0  0  0  0  0  0
   19.0719   20.9796   24.6744 H   0  0  0  0  0  0  0  0  0  0  0  0
  1  2  1  0  0  0  0
  1  3  1  0  0  0  0
  1  4  1  0  0  0  0
  1  5  1  0  0  0  0
  5  6  1  0  0  0  0
  5  7  1  0  0  0  0
  7  8  1  0  0  0  0
  7  9  1  0  0  0  0
  7 10  1  0  0  0  0
  5 11  1  0  0  0  0
 11 12  1  0  0  0  0
 11 13  1  0  0  0  0
 11 14  1  0  0  0  0
 14 15  1  0  0  0  0
 14 16  1  0  0  0  0
 14 17  1  0  0  0  0
 17 18  1  0  0  0  0
 17 19  1  0  0  0  0
 17 20  1  0  0  0  0
M  END
> <VConfSearch Rank>
179

> <Conf_Id>
35

> <Delta U+W>
3.004

> <U+W>
-33.272

> <U>
25.367

> <W>
-58.639

> <W(PB)>
-60.512

> <W(SA)>
1.873

> <Valence>
4.943

> <Coulomb>
19.661

> <VdW>
0.764

> <VdW6>
-5.871

> <VdW12>
6.636

> <Bond>
0.230

> <Angle>
1.857

> <Pdih>
2.855

> <Idih>
0.000

> <Tether>
0.000

$$$$
VeraChem MOL file


 20 19  0  0  0  0  0  0  0  0999 V2000     
   19.5682   17.3015   23.2801 N   0  3  0  0  0  0  0  0  0  0  0  0
   19.1975   16.8245   24.1064 H   0  0  0  0  0  0  0  0  0  0  0  0
   20.1432   16.6253   22.7704 H   0  0  0  0  0  0  0  0  0  0  0  0
   18.7769   17.5435   22.6808 H   0  0  0  0  0  0  0  0  0  0  0  0
   20.3596   18.5238   23.6571 C   0  0  2  0  0  0  0  0  0  0  0  0
   21.1880   18.1545   24.2696 H   0  0  0  0  0  0  0  0  0  0  0  0
   19.5321   19.4799   24.5344 C   0  0  0  0  0  0  0  0  0  0  0  0
   18.6270   19.8219   24.0184 H   0  0  0  0  0  0  0  0  0  0  0  0
   20.1230   20.3610   24.8137 H   0  0  0  0  0  0  0  0  0  0  0  0
   19.2219   18.9804   25.4603 H   0  0  0  0  0  0  0  0  0  0  0  0
   20.9902   19.2397   22.4351 C   0  0  0  0  0  0  0  0  0  0  0  0
   21.7810   19.9027   22.8101 H   0  0  0  0  0  0  0  0  0  0  0  0
   21.5054   18.4953   21.8140 H   0  0  0  0  0  0  0  0  0  0  0  0
   20.0444   20.0882   21.5395 C   0  0  0  0  0  0  0  0  0  0  0  0
   20.6527   20.5588   20.7545 H   0  0  0  0  0  0  0  0  0  0  0  0
   19.6160   20.9184   22.1172 H   0  0  0  0  0  0  0  0  0  0  0  0
   18.9101   19.2883   20.8595 C   0  0  0  0  0  0  0  0  0  0  0  0
   19.3015   18.4014   20.3444 H   0  0  0  0  0  0  0  0  0  0  0  0
   18.4027   19.9106   20.1108 H   0  0  0  0  0  0  0  0  0  0  0  0
   18.1496   18.9719   21.5826 H   0  0  0  0  0  0  0  0  0  0  0  0
  1  2  1  0  0  0  0
  1  3  1  0  0  0  0
  1  4  1  0  0  0  0
  1  5  1  0  0  0  0
  5  6  1  0  0  0  0
  5  7  1  0  0  0  0
  7  8  1  0  0  0  0
  7  9  1  0  0  0  0
  7 10  1  0  0  0  0
  5 11  1  0  0  0  0
 11 12  1  0  0  0  0
 11 13  1  0  0  0  0
 11 14  1  0  0  0  0
 14 15  1  0  0  0  0
 14 16  1  0  0  0  0
 14 17  1  0  0  0  0
 17 18  1  0  0  0  0
 17 19  1  0  0  0  0
 17 20  1  0  0  0  0
M  END
> <VConfSearch Rank>
180

> <Conf_Id>
55

> <Delta U+W>
2.767

> <U+W>
-33.509

> <U>
24.552

> <W>
-58.061

> <W(PB)>
-59.930

> <W(SA)>
1.869

> <Valence>
3.726

> <Coulomb>
20.219

> <VdW>
0.606

> <VdW6>
-6.395

> <VdW12>
7.001

> <Bond>
0.241

> <Angle>
2.098

> <Pdih>
1.387

> <Idih>
0.000

> <Tether>
0.000

$$$$
VeraChem MOL file


 20 19  0  0  0  0  0  0  0  0999 V2000     
   20.5906   20.2606   23.9305 N   0  3  0  0  0  0  0  0  0  0  0  0
   21.0534   19.5890   24.5481 H   0  0  0  0  0  0  0  0  0  0  0  0
   20.4588   21.1245   24.4633 H   0  0  0  0  0  0  0  0  0  0  0  0
   21.2367   20.4710   23.1657 H   0  0  0  0  0  0  0  0  0  0  0  0
   19.2814   19.7254   23.4162 C   0  0  2  0  0  0  0  0  0  0  0  0
   18.8589   20.4980   22.7663 H   0  0  0  0  0  0  0  0  0  0  0  0
   18.3025   19.4855   24.5774 C   0  0  0  0  0  0  0  0  0  0  0  0
   18.1461   20.4077   25.1504 H   0  0  0  0  0  0  0  0  0  0  0  0
   18.6802   18.7169   25.2632 H   0  0  0  0  0  0  0  0  0  0  0  0
   17.3250   19.1579   24.2022 H   0  0  0  0  0  0  0  0  0  0  0  0
   19.4534   18.4355   22.5839 C   0  0  0  0  0  0  0  0  0  0  0  0
   19.8987   17.6493   23.2079 H   0  0  0  0  0  0  0  0  0  0  0  0
   18.4611   18.0724   22.2842 H   0  0  0  0  0  0  0  0  0  0  0  0
   20.3125   18.6444   21.3135 C   0  0  0  0  0  0  0  0  0  0  0  0
   21.3295   18.9542   21.5895 H   0  0  0  0  0  0  0  0  0  0  0  0
   19.8859   19.4561   20.7073 H   0  0  0  0  0  0  0  0  0  0  0  0
   20.3930   17.3591   20.4622 C   0  0  0  0  0  0  0  0  0  0  0  0
   20.8440   16.5359   21.0316 H   0  0  0  0  0  0  0  0  0  0  0  0
   21.0065   17.5247   19.5671 H   0  0  0  0  0  0  0  0  0  0  0  0
   19.3958   17.0400   20.1320 H   0  0  0  0  0  0  0  0  0  0  0  0
  1  2  1  0  0  0  0
  1  3  1  0  0  0  0
  1  4  1  0  0  0  0
  1  5  1  0  0  0  0
  5  6  1  0  0  0  0
  5  7  1  0  0  0  0
  7  8  1  0  0  0  0
  7  9  1  0  0  0  0
  7 10  1  0  0  0  0
  5 11  1  0  0  0  0
 11 12  1  0  0  0  0
 11 13  1  0  0  0  0
 11 14  1  0  0  0  0
 14 15  1  0  0  0  0
 14 16  1  0  0  0  0
 14 17  1  0  0  0  0
 17 18  1  0  0  0  0
 17 19  1  0  0  0  0
 17 20  1  0  0  0  0
M  END
> <VConfSearch Rank>
181

> <Conf_Id>
74

> <Delta U+W>
0.000

> <U+W>
-36.276

> <U>
22.080

> <W>
-58.356

> <W(PB)>
-60.289

> <W(SA)>
1.932

> <Valence>
1.885

> <Coulomb>
19.559

> <VdW>
0.637

> <VdW6>
-4.482

> <VdW12>
5.119

> <Bond>
0.136

> <Angle>
0.867

> <Pdih>
0.882

> <Idih>
0.000

> <Tether>
0.000

$$$$
VeraChem MOL file


 20 19  0  0  0  0  0  0  0  0999 V2000     
   18.6292   20.7892   21.6998 N   0  3  0  0  0  0  0  0  0  0  0  0
   19.3847   21.2085   21.1511 H   0  0  0  0  0  0  0  0  0  0  0  0
   18.5056   21.3617   22.5387 H   0  0  0  0  0  0  0  0  0  0  0  0
   17.7721   20.8718   21.1463 H   0  0  0  0  0  0  0  0  0  0  0  0
   18.9243   19.3558   22.0474 C   0  0  2  0  0  0  0  0  0  0  0  0
   19.0368   18.8252   21.0968 H   0  0  0  0  0  0  0  0  0  0  0  0
   17.7399   18.7371   22.8123 C   0  0  0  0  0  0  0  0  0  0  0  0
   16.8039   18.8839   22.2593 H   0  0  0  0  0  0  0  0  0  0  0  0
   17.6245   19.1941   23.8029 H   0  0  0  0  0  0  0  0  0  0  0  0
   17.8706   17.6570   22.9449 H   0  0  0  0  0  0  0  0  0  0  0  0
   20.2523   19.2321   22.8302 C   0  0  0  0  0  0  0  0  0  0  0  0
   21.0294   19.7842   22.2852 H   0  0  0  0  0  0  0  0  0  0  0  0
   20.1520   19.7212   23.8082 H   0  0  0  0  0  0  0  0  0  0  0  0
   20.7308   17.7724   23.0235 C   0  0  0  0  0  0  0  0  0  0  0  0
   20.7707   17.2634   22.0501 H   0  0  0  0  0  0  0  0  0  0  0  0
   20.0164   17.2162   23.6449 H   0  0  0  0  0  0  0  0  0  0  0  0
   22.1224   17.7125   23.6895 C   0  0  0  0  0  0  0  0  0  0  0  0
   22.8771   18.2218   23.0761 H   0  0  0  0  0  0  0  0  0  0  0  0
   22.4442   16.6714   23.8222 H   0  0  0  0  0  0  0  0  0  0  0  0
   22.1076   18.1888   24.6785 H   0  0  0  0  0  0  0  0  0  0  0  0
  1  2  1  0  0  0  0
  1  3  1  0  0  0  0
  1  4  1  0  0  0  0
  1  5  1  0  0  0  0
  5  6  1  0  0  0  0
  5  7  1  0  0  0  0
  7  8  1  0  0  0  0
  7  9  1  0  0  0  0
  7 10  1  0  0  0  0
  5 11  1  0  0  0  0
 11 12  1  0  0  0  0
 11 13  1  0  0  0  0
 11 14  1  0  0  0  0
 14 15  1  0  0  0  0
 14 16  1  0  0  0  0
 14 17  1  0  0  0  0
 17 18  1  0  0  0  0
 17 19  1  0  0  0  0
 17 20  1  0  0  0  0
M  END
> <VConfSearch Rank>
182

> <Conf_Id>
80

> <Delta U+W>
0.460

> <U+W>
-35.817

> <U>
22.495

> <W>
-58.311

> <W(PB)>
-60.259

> <W(SA)>
1.948

> <Valence>
2.419

> <Coulomb>
19.304

> <VdW>
0.772

> <VdW6>
-4.635

> <VdW12>
5.407

> <Bond>
0.149

> <Angle>
1.142

> <Pdih>
1.129

> <Idih>
0.000

> <Tether>
0.000

$$$$
VeraChem MOL file


 20 19  0  0  0  0  0  0  0  0999 V2000     
   18.4936   20.7347   21.8577 N   0  3  0  0  0  0  0  0  0  0  0  0
   17.6205   20.8641   22.3761 H   0  0  0  0  0  0  0  0  0  0  0  0
   18.2602   20.2742   20.9744 H   0  0  0  0  0  0  0  0  0  0  0  0
   18.8507   21.6665   21.6298 H   0  0  0  0  0  0  0  0  0  0  0  0
   19.4963   19.9386   22.6473 C   0  0  2  0  0  0  0  0  0  0  0  0
   19.6863   20.5074   23.5628 H   0  0  0  0  0  0  0  0  0  0  0  0
   20.8192   19.8280   21.8701 C   0  0  0  0  0  0  0  0  0  0  0  0
   21.1508   20.8157   21.5272 H   0  0  0  0  0  0  0  0  0  0  0  0
   20.7117   19.1804   20.9912 H   0  0  0  0  0  0  0  0  0  0  0  0
   21.6155   19.4248   22.5060 H   0  0  0  0  0  0  0  0  0  0  0  0
   18.9181   18.5599   23.0500 C   0  0  0  0  0  0  0  0  0  0  0  0
   17.9639   18.7400   23.5627 H   0  0  0  0  0  0  0  0  0  0  0  0
   18.6696   17.9762   22.1538 H   0  0  0  0  0  0  0  0  0  0  0  0
   19.8152   17.7256   24.0022 C   0  0  0  0  0  0  0  0  0  0  0  0
   19.1694   17.1912   24.7132 H   0  0  0  0  0  0  0  0  0  0  0  0
   20.4476   18.3881   24.6098 H   0  0  0  0  0  0  0  0  0  0  0  0
   20.6832   16.6768   23.2676 C   0  0  0  0  0  0  0  0  0  0  0  0
   20.0549   15.9636   22.7182 H   0  0  0  0  0  0  0  0  0  0  0  0
   21.2843   16.1046   23.9861 H   0  0  0  0  0  0  0  0  0  0  0  0
   21.3727   17.1387   22.5522 H   0  0  0  0  0  0  0  0  0  0  0  0
  1  2  1  0  0  0  0
  1  3  1  0  0  0  0
  1  4  1  0  0  0  0
  1  5  1  0  0  0  0
  5  6  1  0  0  0  0
  5  7  1  0  0  0  0
  7  8  1  0  0  0  0
  7  9  1  0  0  0  0
  7 10  1  0  0  0  0
  5 11  1  0  0  0  0
 11 12  1  0  0  0  0
 11 13  1  0  0  0  0
 11 14  1  0  0  0  0
 14 15  1  0  0  0  0
 14 16  1  0  0  0  0
 14 17  1  0  0  0  0
 17 18  1  0  0  0  0
 17 19  1  0  0  0  0
 17 20  1  0  0  0  0
M  END
> <VConfSearch Rank>
183

> <Conf_Id>
52

> <Delta U+W>
2.995

> <U+W>
-33.282

> <U>
25.224

> <W>
-58.506

> <W(PB)>
-60.411

> <W(SA)>
1.905

> <Valence>
4.945

> <Coulomb>
19.467

> <VdW>
0.813

> <VdW6>
-5.458

> <VdW12>
6.270

> <Bond>
0.200

> <Angle>
1.675

> <Pdih>
3.070

> <Idih>
0.000

> <Tether>
0.000

$$$$
VeraChem MOL file


 20 19  0  0  0  0  0  0  0  0999 V2000     
   20.6755   18.2244   21.6668 N   0  3  0  0  0  0  0  0  0  0  0  0
   20.2449   17.3002   21.5831 H   0  0  0  0  0  0  0  0  0  0  0  0
   21.6441   18.1408   21.3470 H   0  0  0  0  0  0  0  0  0  0  0  0
   20.1890   18.8482   21.0194 H   0  0  0  0  0  0  0  0  0  0  0  0
   20.6021   18.7378   23.0790 C   0  0  2  0  0  0  0  0  0  0  0  0
   21.1218   19.7007   23.0992 H   0  0  0  0  0  0  0  0  0  0  0  0
   21.3395   17.7735   24.0235 C   0  0  0  0  0  0  0  0  0  0  0  0
   20.8480   16.7930   24.0529 H   0  0  0  0  0  0  0  0  0  0  0  0
   21.3684   18.1723   25.0451 H   0  0  0  0  0  0  0  0  0  0  0  0
   22.3764   17.6265   23.6969 H   0  0  0  0  0  0  0  0  0  0  0  0
   19.1488   18.9597   23.5618 C   0  0  0  0  0  0  0  0  0  0  0  0
   18.5346   18.0835   23.3157 H   0  0  0  0  0  0  0  0  0  0  0  0
   19.1505   19.0261   24.6580 H   0  0  0  0  0  0  0  0  0  0  0  0
   18.4759   20.2511   23.0269 C   0  0  0  0  0  0  0  0  0  0  0  0
   19.0723   21.1272   23.3182 H   0  0  0  0  0  0  0  0  0  0  0  0
   17.5057   20.3651   23.5306 H   0  0  0  0  0  0  0  0  0  0  0  0
   18.2369   20.2743   21.5000 C   0  0  0  0  0  0  0  0  0  0  0  0
   17.5848   21.1157   21.2314 H   0  0  0  0  0  0  0  0  0  0  0  0
   17.7476   19.3529   21.1581 H   0  0  0  0  0  0  0  0  0  0  0  0
   19.1734   20.4074   20.9461 H   0  0  0  0  0  0  0  0  0  0  0  0
  1  2  1  0  0  0  0
  1  3  1  0  0  0  0
  1  4  1  0  0  0  0
  1  5  1  0  0  0  0
  5  6  1  0  0  0  0
  5  7  1  0  0  0  0
  7  8  1  0  0  0  0
  7  9  1  0  0  0  0
  7 10  1  0  0  0  0
  5 11  1  0  0  0  0
 11 12  1  0  0  0  0
 11 13  1  0  0  0  0
 11 14  1  0  0  0  0
 14 15  1  0  0  0  0
 14 16  1  0  0  0  0
 14 17  1  0  0  0  0
 17 18  1  0  0  0  0
 17 19  1  0  0  0  0
 17 20  1  0  0  0  0
M  END
> <VConfSearch Rank>
184

> <Conf_Id>
54

> <Delta U+W>
2.752

> <U+W>
-33.525

> <U>
24.337

> <W>
-57.862

> <W(PB)>
-59.764

> <W(SA)>
1.901

> <Valence>
3.593

> <Coulomb>
20.067

> <VdW>
0.677

> <VdW6>
-5.466

> <VdW12>
6.144

> <Bond>
0.191

> <Angle>
1.557

> <Pdih>
1.845

> <Idih>
0.000

> <Tether>
0.000

$$$$
VeraChem MOL file


 20 19  0  0  0  0  0  0  0  0999 V2000     
   20.1109   20.2933   24.2304 N   0  3  0  0  0  0  0  0  0  0  0  0
   19.8971   21.2312   24.5801 H   0  0  0  0  0  0  0  0  0  0  0  0
   21.0516   20.0550   24.5557 H   0  0  0  0  0  0  0  0  0  0  0  0
   19.4580   19.6450   24.6764 H   0  0  0  0  0  0  0  0  0  0  0  0
   20.0115   20.2290   22.7304 C   0  0  2  0  0  0  0  0  0  0  0  0
   20.7280   20.9627   22.3479 H   0  0  0  0  0  0  0  0  0  0  0  0
   18.6122   20.6537   22.2502 C   0  0  0  0  0  0  0  0  0  0  0  0
   18.5433   20.6037   21.1565 H   0  0  0  0  0  0  0  0  0  0  0  0
   18.4018   21.6878   22.5490 H   0  0  0  0  0  0  0  0  0  0  0  0
   17.8267   20.0168   22.6738 H   0  0  0  0  0  0  0  0  0  0  0  0
   20.4256   18.8482   22.1675 C   0  0  0  0  0  0  0  0  0  0  0  0
   20.4175   18.8974   21.0705 H   0  0  0  0  0  0  0  0  0  0  0  0
   21.4683   18.6558   22.4523 H   0  0  0  0  0  0  0  0  0  0  0  0
   19.5440   17.6604   22.6328 C   0  0  0  0  0  0  0  0  0  0  0  0
   18.5046   17.8098   22.3114 H   0  0  0  0  0  0  0  0  0  0  0  0
   19.5336   17.6026   23.7295 H   0  0  0  0  0  0  0  0  0  0  0  0
   20.0543   16.3193   22.0634 C   0  0  0  0  0  0  0  0  0  0  0  0
   19.4197   15.4889   22.3993 H   0  0  0  0  0  0  0  0  0  0  0  0
   21.0804   16.1137   22.3951 H   0  0  0  0  0  0  0  0  0  0  0  0
   20.0451   16.3269   20.9657 H   0  0  0  0  0  0  0  0  0  0  0  0
  1  2  1  0  0  0  0
  1  3  1  0  0  0  0
  1  4  1  0  0  0  0
  1  5  1  0  0  0  0
  5  6  1  0  0  0  0
  5  7  1  0  0  0  0
  7  8  1  0  0  0  0
  7  9  1  0  0  0  0
  7 10  1  0  0  0  0
  5 11  1  0  0  0  0
 11 12  1  0  0  0  0
 11 13  1  0  0  0  0
 11 14  1  0  0  0  0
 14 15  1  0  0  0  0
 14 16  1  0  0  0  0
 14 17  1  0  0  0  0
 17 18  1  0  0  0  0
 17 19  1  0  0  0  0
 17 20  1  0  0  0  0
M  END
> <VConfSearch Rank>
185

> <Conf_Id>
63

> <Delta U+W>
0.420

> <U+W>
-35.856

> <U>
22.625

> <W>
-58.481

> <W(PB)>
-60.400

> <W(SA)>
1.919

> <Valence>
2.404

> <Coulomb>
19.464

> <VdW>
0.757

> <VdW6>
-5.074

> <VdW12>
5.830

> <Bond>
0.172

> <Angle>
1.207

> <Pdih>
1.025

> <Idih>
0.000

> <Tether>
0.000

$$$$
VeraChem MOL file


 20 19  0  0  0  0  0  0  0  0999 V2000     
   21.2267   19.5623   22.1114 N   0  3  0  0  0  0  0  0  0  0  0  0
   20.7057   19.6911   21.2403 H   0  0  0  0  0  0  0  0  0  0  0  0
   21.8727   18.7815   21.9713 H   0  0  0  0  0  0  0  0  0  0  0  0
   21.7909   20.4036   22.2575 H   0  0  0  0  0  0  0  0  0  0  0  0
   20.3007   19.3105   23.2703 C   0  0  2  0  0  0  0  0  0  0  0  0
   19.6518   20.1877   23.3510 H   0  0  0  0  0  0  0  0  0  0  0  0
   21.0938   19.1803   24.5809 C   0  0  0  0  0  0  0  0  0  0  0  0
   21.6980   20.0781   24.7600 H   0  0  0  0  0  0  0  0  0  0  0  0
   21.7676   18.3148   24.5536 H   0  0  0  0  0  0  0  0  0  0  0  0
   20.4168   19.0593   25.4357 H   0  0  0  0  0  0  0  0  0  0  0  0
   19.4091   18.0664   23.0550 C   0  0  0  0  0  0  0  0  0  0  0  0
   20.0423   17.1717   22.9879 H   0  0  0  0  0  0  0  0  0  0  0  0
   18.7727   17.9258   23.9388 H   0  0  0  0  0  0  0  0  0  0  0  0
   18.5048   18.1427   21.7987 C   0  0  0  0  0  0  0  0  0  0  0  0
   17.9170   17.2166   21.7307 H   0  0  0  0  0  0  0  0  0  0  0  0
   19.1198   18.1769   20.8893 H   0  0  0  0  0  0  0  0  0  0  0  0
   17.5382   19.3488   21.8204 C   0  0  0  0  0  0  0  0  0  0  0  0
   16.9118   19.3362   22.7218 H   0  0  0  0  0  0  0  0  0  0  0  0
   16.8709   19.3224   20.9491 H   0  0  0  0  0  0  0  0  0  0  0  0
   18.0799   20.3026   21.7928 H   0  0  0  0  0  0  0  0  0  0  0  0
  1  2  1  0  0  0  0
  1  3  1  0  0  0  0
  1  4  1  0  0  0  0
  1  5  1  0  0  0  0
  5  6  1  0  0  0  0
  5  7  1  0  0  0  0
  7  8  1  0  0  0  0
  7  9  1  0  0  0  0
  7 10  1  0  0  0  0
  5 11  1  0  0  0  0
 11 12  1  0  0  0  0
 11 13  1  0  0  0  0
 11 14  1  0  0  0  0
 14 15  1  0  0  0  0
 14 16  1  0  0  0  0
 14 17  1  0  0  0  0
 17 18  1  0  0  0  0
 17 19  1  0  0  0  0
 17 20  1  0  0  0  0
M  END
> <VConfSearch Rank>
186

> <Conf_Id>
50

> <Delta U+W>
0.466

> <U+W>
-35.811

> <U>
22.369

> <W>
-58.180

> <W(PB)>
-60.103

> <W(SA)>
1.923

> <Valence>
2.168

> <Coulomb>
19.636

> <VdW>
0.566

> <VdW6>
-5.263

> <VdW12>
5.829

> <Bond>
0.162

> <Angle>
1.066

> <Pdih>
0.939

> <Idih>
0.000

> <Tether>
0.000

$$$$
VeraChem MOL file


 20 19  0  0  0  0  0  0  0  0999 V2000     
   18.7368   17.6688   24.4686 N   0  3  0  0  0  0  0  0  0  0  0  0
   18.6970   18.3159   25.2609 H   0  0  0  0  0  0  0  0  0  0  0  0
   19.4017   16.9293   24.7091 H   0  0  0  0  0  0  0  0  0  0  0  0
   17.8139   17.2336   24.3873 H   0  0  0  0  0  0  0  0  0  0  0  0
   19.1280   18.3719   23.1969 C   0  0  2  0  0  0  0  0  0  0  0  0
   18.3667   19.1394   23.0264 H   0  0  0  0  0  0  0  0  0  0  0  0
   19.1029   17.3811   22.0180 C   0  0  0  0  0  0  0  0  0  0  0  0
   19.8209   16.5659   22.1715 H   0  0  0  0  0  0  0  0  0  0  0  0
   19.3513   17.8741   21.0720 H   0  0  0  0  0  0  0  0  0  0  0  0
   18.1058   16.9376   21.9074 H   0  0  0  0  0  0  0  0  0  0  0  0
   20.5015   19.0757   23.3244 C   0  0  0  0  0  0  0  0  0  0  0  0
   20.7575   19.1743   24.3876 H   0  0  0  0  0  0  0  0  0  0  0  0
   21.2935   18.4536   22.8863 H   0  0  0  0  0  0  0  0  0  0  0  0
   20.5379   20.4970   22.7077 C   0  0  0  0  0  0  0  0  0  0  0  0
   21.5206   20.9439   22.9142 H   0  0  0  0  0  0  0  0  0  0  0  0
   19.8002   21.1358   23.2134 H   0  0  0  0  0  0  0  0  0  0  0  0
   20.2868   20.5317   21.1839 C   0  0  0  0  0  0  0  0  0  0  0  0
   20.9819   19.8689   20.6524 H   0  0  0  0  0  0  0  0  0  0  0  0
   20.4302   21.5481   20.7948 H   0  0  0  0  0  0  0  0  0  0  0  0
   19.2608   20.2295   20.9397 H   0  0  0  0  0  0  0  0  0  0  0  0
  1  2  1  0  0  0  0
  1  3  1  0  0  0  0
  1  4  1  0  0  0  0
  1  5  1  0  0  0  0
  5  6  1  0  0  0  0
  5  7  1  0  0  0  0
  7  8  1  0  0  0  0
  7  9  1  0  0  0  0
  7 10  1  0  0  0  0
  5 11  1  0  0  0  0
 11 12  1  0  0  0  0
 11 13  1  0  0  0  0
 11 14  1  0  0  0  0
 14 15  1  0  0  0  0
 14 16  1  0  0  0  0
 14 17  1  0  0  0  0
 17 18  1  0  0  0  0
 17 19  1  0  0  0  0
 17 20  1  0  0  0  0
M  END
> <VConfSearch Rank>
187

> <Conf_Id>
3

> <Delta U+W>
3.093

> <U+W>
-33.184

> <U>
25.256

> <W>
-58.439

> <W(PB)>
-60.337

> <W(SA)>
1.898

> <Valence>
4.963

> <Coulomb>
19.511

> <VdW>
0.782

> <VdW6>
-5.429

> <VdW12>
6.211

> <Bond>
0.174

> <Angle>
1.377

> <Pdih>
3.412

> <Idih>
0.000

> <Tether>
0.000

$$$$
VeraChem MOL file


 20 19  0  0  0  0  0  0  0  0999 V2000     
   21.6992   18.5475   21.7849 N   0  3  0  0  0  0  0  0  0  0  0  0
   21.8234   18.4693   20.7720 H   0  0  0  0  0  0  0  0  0  0  0  0
   21.9924   17.6567   22.1952 H   0  0  0  0  0  0  0  0  0  0  0  0
   22.3482   19.2657   22.1162 H   0  0  0  0  0  0  0  0  0  0  0  0
   20.2766   18.8816   22.1413 C   0  0  2  0  0  0  0  0  0  0  0  0
   19.6623   18.0669   21.7466 H   0  0  0  0  0  0  0  0  0  0  0  0
   19.8462   20.1912   21.4558 C   0  0  0  0  0  0  0  0  0  0  0  0
   18.7743   20.3769   21.5903 H   0  0  0  0  0  0  0  0  0  0  0  0
   20.0340   20.1424   20.3762 H   0  0  0  0  0  0  0  0  0  0  0  0
   20.3973   21.0500   21.8586 H   0  0  0  0  0  0  0  0  0  0  0  0
   20.0820   18.9377   23.6754 C   0  0  0  0  0  0  0  0  0  0  0  0
   20.4792   18.0128   24.1140 H   0  0  0  0  0  0  0  0  0  0  0  0
   20.6876   19.7550   24.0889 H   0  0  0  0  0  0  0  0  0  0  0  0
   18.6142   19.1081   24.1440 C   0  0  0  0  0  0  0  0  0  0  0  0
   18.2261   20.0878   23.8344 H   0  0  0  0  0  0  0  0  0  0  0  0
   18.5937   19.1112   25.2428 H   0  0  0  0  0  0  0  0  0  0  0  0
   17.6800   17.9895   23.6290 C   0  0  0  0  0  0  0  0  0  0  0  0
   18.0498   16.9990   23.9243 H   0  0  0  0  0  0  0  0  0  0  0  0
   17.5902   18.0107   22.5356 H   0  0  0  0  0  0  0  0  0  0  0  0
   16.6715   18.1085   24.0458 H   0  0  0  0  0  0  0  0  0  0  0  0
  1  2  1  0  0  0  0
  1  3  1  0  0  0  0
  1  4  1  0  0  0  0
  1  5  1  0  0  0  0
  5  6  1  0  0  0  0
  5  7  1  0  0  0  0
  7  8  1  0  0  0  0
  7  9  1  0  0  0  0
  7 10  1  0  0  0  0
  5 11  1  0  0  0  0
 11 12  1  0  0  0  0
 11 13  1  0  0  0  0
 11 14  1  0  0  0  0
 14 15  1  0  0  0  0
 14 16  1  0  0  0  0
 14 17  1  0  0  0  0
 17 18  1  0  0  0  0
 17 19  1  0  0  0  0
 17 20  1  0  0  0  0
M  END
> <VConfSearch Rank>
188

> <Conf_Id>
64

> <Delta U+W>
0.544

> <U+W>
-35.732

> <U>
22.800

> <W>
-58.532

> <W(PB)>
-60.437

> <W(SA)>
1.905

> <Valence>
2.662

> <Coulomb>
19.485

> <VdW>
0.653

> <VdW6>
-5.460

> <VdW12>
6.113

> <Bond>
0.174

> <Angle>
1.378

> <Pdih>
1.109

> <Idih>
0.000

> <Tether>
0.000

$$$$
VeraChem MOL file


 20 19  0  0  0  0  0  0  0  0999 V2000     
   21.7753   19.1545   22.0321 N   0  3  0  0  0  0  0  0  0  0  0  0
   21.3279   19.9937   21.6568 H   0  0  0  0  0  0  0  0  0  0  0  0
   22.3249   18.7372   21.2762 H   0  0  0  0  0  0  0  0  0  0  0  0
   22.4337   19.4549   22.7559 H   0  0  0  0  0  0  0  0  0  0  0  0
   20.7604   18.1848   22.5747 C   0  0  2  0  0  0  0  0  0  0  0  0
   21.3323   17.3253   22.9382 H   0  0  0  0  0  0  0  0  0  0  0  0
   19.8329   17.6797   21.4574 C   0  0  0  0  0  0  0  0  0  0  0  0
   19.3240   18.5090   20.9524 H   0  0  0  0  0  0  0  0  0  0  0  0
   19.0744   16.9959   21.8581 H   0  0  0  0  0  0  0  0  0  0  0  0
   20.4079   17.1319   20.7010 H   0  0  0  0  0  0  0  0  0  0  0  0
   19.9871   18.7586   23.7887 C   0  0  0  0  0  0  0  0  0  0  0  0
   19.3922   17.9604   24.2519 H   0  0  0  0  0  0  0  0  0  0  0  0
   20.7297   19.0409   24.5466 H   0  0  0  0  0  0  0  0  0  0  0  0
   19.0852   19.9926   23.5078 C   0  0  0  0  0  0  0  0  0  0  0  0
   19.4993   20.6038   22.6952 H   0  0  0  0  0  0  0  0  0  0  0  0
   19.0916   20.6358   24.3989 H   0  0  0  0  0  0  0  0  0  0  0  0
   17.6140   19.6259   23.2014 C   0  0  0  0  0  0  0  0  0  0  0  0
   17.5193   19.0181   22.2949 H   0  0  0  0  0  0  0  0  0  0  0  0
   17.0154   20.5342   23.0540 H   0  0  0  0  0  0  0  0  0  0  0  0
   17.1672   19.0657   24.0330 H   0  0  0  0  0  0  0  0  0  0  0  0
  1  2  1  0  0  0  0
  1  3  1  0  0  0  0
  1  4  1  0  0  0  0
  1  5  1  0  0  0  0
  5  6  1  0  0  0  0
  5  7  1  0  0  0  0
  7  8  1  0  0  0  0
  7  9  1  0  0  0  0
  7 10  1  0  0  0  0
  5 11  1  0  0  0  0
 11 12  1  0  0  0  0
 11 13  1  0  0  0  0
 11 14  1  0  0  0  0
 14 15  1  0  0  0  0
 14 16  1  0  0  0  0
 14 17  1  0  0  0  0
 17 18  1  0  0  0  0
 17 19  1  0  0  0  0
 17 20  1  0  0  0  0
M  END
> <VConfSearch Rank>
189

> <Conf_Id>
35

> <Delta U+W>
3.004

> <U+W>
-33.272

> <U>
25.367

> <W>
-58.639

> <W(PB)>
-60.512

> <W(SA)>
1.873

> <Valence>
4.943

> <Coulomb>
19.661

> <VdW>
0.764

> <VdW6>
-5.871

> <VdW12>
6.636

> <Bond>
0.230

> <Angle>
1.857

> <Pdih>
2.855

> <Idih>
0.000

> <Tether>
0.000

$$$$
VeraChem MOL file


 20 19  0  0  0  0  0  0  0  0999 V2000     
   19.6390   19.0519   24.4708 N   0  3  0  0  0  0  0  0  0  0  0  0
   20.1577   19.4225   25.2716 H   0  0  0  0  0  0  0  0  0  0  0  0
   18.9686   18.3681   24.8322 H   0  0  0  0  0  0  0  0  0  0  0  0
   19.1026   19.8216   24.0659 H   0  0  0  0  0  0  0  0  0  0  0  0
   20.5600   18.4359   23.4537 C   0  0  2  0  0  0  0  0  0  0  0  0
   21.0615   17.6156   23.9769 H   0  0  0  0  0  0  0  0  0  0  0  0
   21.6486   19.4283   23.0080 C   0  0  0  0  0  0  0  0  0  0  0  0
   21.2154   20.3281   22.5553 H   0  0  0  0  0  0  0  0  0  0  0  0
   22.3217   18.9645   22.2765 H   0  0  0  0  0  0  0  0  0  0  0  0
   22.2557   19.7433   23.8655 H   0  0  0  0  0  0  0  0  0  0  0  0
   19.8061   17.8075   22.2536 C   0  0  0  0  0  0  0  0  0  0  0  0
   20.5011   17.1272   21.7440 H   0  0  0  0  0  0  0  0  0  0  0  0
   19.0005   17.1671   22.6359 H   0  0  0  0  0  0  0  0  0  0  0  0
   19.2262   18.7794   21.1879 C   0  0  0  0  0  0  0  0  0  0  0  0
   18.7689   18.1758   20.3915 H   0  0  0  0  0  0  0  0  0  0  0  0
   20.0365   19.3407   20.7032 H   0  0  0  0  0  0  0  0  0  0  0  0
   18.1607   19.7628   21.7232 C   0  0  0  0  0  0  0  0  0  0  0  0
   17.3805   19.2360   22.2880 H   0  0  0  0  0  0  0  0  0  0  0  0
   17.6726   20.2845   20.8897 H   0  0  0  0  0  0  0  0  0  0  0  0
   18.6065   20.5308   22.3657 H   0  0  0  0  0  0  0  0  0  0  0  0
  1  2  1  0  0  0  0
  1  3  1  0  0  0  0
  1  4  1  0  0  0  0
  1  5  1  0  0  0  0
  5  6  1  0  0  0  0
  5  7  1  0  0  0  0
  7  8  1  0  0  0  0
  7  9  1  0  0  0  0
  7 10  1  0  0  0  0
  5 11  1  0  0  0  0
 11 12  1  0  0  0  0
 11 13  1  0  0  0  0
 11 14  1  0  0  0  0
 14 15  1  0  0  0  0
 14 16  1  0  0  0  0
 14 17  1  0  0  0  0
 17 18  1  0  0  0  0
 17 19  1  0  0  0  0
 17 20  1  0  0  0  0
M  END
> <VConfSearch Rank>
190

> <Conf_Id>
55

> <Delta U+W>
2.767

> <U+W>
-33.509

> <U>
24.552

> <W>
-58.061

> <W(PB)>
-59.930

> <W(SA)>
1.869

> <Valence>
3.726

> <Coulomb>
20.219

> <VdW>
0.606

> <VdW6>
-6.395

> <VdW12>
7.001

> <Bond>
0.241

> <Angle>
2.098

> <Pdih>
1.387

> <Idih>
0.000

> <Tether>
0.000

$$$$
VeraChem MOL file


 20 19  0  0  0  0  0  0  0  0999 V2000     
   21.6330   18.4097   22.5518 N   0  3  0  0  0  0  0  0  0  0  0  0
   21.6288   17.6909   23.2796 H   0  0  0  0  0  0  0  0  0  0  0  0
   22.5983   18.7340   22.4486 H   0  0  0  0  0  0  0  0  0  0  0  0
   21.3685   17.9587   21.6725 H   0  0  0  0  0  0  0  0  0  0  0  0
   20.7043   19.5442   22.8919 C   0  0  2  0  0  0  0  0  0  0  0  0
   20.7662   20.2600   22.0663 H   0  0  0  0  0  0  0  0  0  0  0  0
   21.1639   20.2515   24.1773 C   0  0  0  0  0  0  0  0  0  0  0  0
   22.1949   20.6119   24.0751 H   0  0  0  0  0  0  0  0  0  0  0  0
   21.1224   19.5748   25.0399 H   0  0  0  0  0  0  0  0  0  0  0  0
   20.5287   21.1196   24.3934 H   0  0  0  0  0  0  0  0  0  0  0  0
   19.2345   19.0881   23.0262 C   0  0  0  0  0  0  0  0  0  0  0  0
   19.1489   18.3497   23.8345 H   0  0  0  0  0  0  0  0  0  0  0  0
   18.6221   19.9499   23.3236 H   0  0  0  0  0  0  0  0  0  0  0  0
   18.6614   18.4977   21.7153 C   0  0  0  0  0  0  0  0  0  0  0  0
   19.2229   17.5992   21.4260 H   0  0  0  0  0  0  0  0  0  0  0  0
   18.7803   19.2241   20.8989 H   0  0  0  0  0  0  0  0  0  0  0  0
   17.1686   18.1317   21.8601 C   0  0  0  0  0  0  0  0  0  0  0  0
   17.0202   17.3833   22.6495 H   0  0  0  0  0  0  0  0  0  0  0  0
   16.7792   17.7136   20.9226 H   0  0  0  0  0  0  0  0  0  0  0  0
   16.5668   19.0154   22.1095 H   0  0  0  0  0  0  0  0  0  0  0  0
  1  2  1  0  0  0  0
  1  3  1  0  0  0  0
  1  4  1  0  0  0  0
  1  5  1  0  0  0  0
  5  6  1  0  0  0  0
  5  7  1  0  0  0  0
  7  8  1  0  0  0  0
  7  9  1  0  0  0  0
  7 10  1  0  0  0  0
  5 11  1  0  0  0  0
 11 12  1  0  0  0  0
 11 13  1  0  0  0  0
 11 14  1  0  0  0  0
 14 15  1  0  0  0  0
 14 16  1  0  0  0  0
 14 17  1  0  0  0  0
 17 18  1  0  0  0  0
 17 19  1  0  0  0  0
 17 20  1  0  0  0  0
M  END
> <VConfSearch Rank>
191

> <Conf_Id>
74

> <Delta U+W>
0.000

> <U+W>
-36.276

> <U>
22.080

> <W>
-58.356

> <W(PB)>
-60.289

> <W(SA)>
1.932

> <Valence>
1.885

> <Coulomb>
19.559

> <VdW>
0.637

> <VdW6>
-4.482

> <VdW12>
5.119

> <Bond>
0.136

> <Angle>
0.867

> <Pdih>
0.882

> <Idih>
0.000

> <Tether>
0.000

$$$$
VeraChem MOL file


 20 19  0  0  0  0  0  0  0  0999 V2000     
   19.2962   18.8250   20.3730 N   0  3  0  0  0  0  0  0  0  0  0  0
   18.3095   19.0946   20.3343 H   0  0  0  0  0  0  0  0  0  0  0  0
   19.3406   17.8086   20.2652 H   0  0  0  0  0  0  0  0  0  0  0  0
   19.7543   19.2378   19.5560 H   0  0  0  0  0  0  0  0  0  0  0  0
   19.9451   19.2739   21.6536 C   0  0  2  0  0  0  0  0  0  0  0  0
   19.8527   20.3642   21.6801 H   0  0  0  0  0  0  0  0  0  0  0  0
   21.4419   18.9130   21.6487 C   0  0  0  0  0  0  0  0  0  0  0  0
   21.9274   19.2904   20.7404 H   0  0  0  0  0  0  0  0  0  0  0  0
   21.5887   17.8264   21.6860 H   0  0  0  0  0  0  0  0  0  0  0  0
   21.9632   19.3599   22.5030 H   0  0  0  0  0  0  0  0  0  0  0  0
   19.2101   18.6963   22.8855 C   0  0  0  0  0  0  0  0  0  0  0  0
   18.1359   18.8945   22.7736 H   0  0  0  0  0  0  0  0  0  0  0  0
   19.3238   17.6043   22.9055 H   0  0  0  0  0  0  0  0  0  0  0  0
   19.6823   19.2948   24.2331 C   0  0  0  0  0  0  0  0  0  0  0  0
   19.6280   20.3917   24.1908 H   0  0  0  0  0  0  0  0  0  0  0  0
   20.7329   19.0346   24.4185 H   0  0  0  0  0  0  0  0  0  0  0  0
   18.8272   18.7855   25.4134 C   0  0  0  0  0  0  0  0  0  0  0  0
   17.7728   19.0640   25.2875 H   0  0  0  0  0  0  0  0  0  0  0  0
   19.1777   19.2164   26.3603 H   0  0  0  0  0  0  0  0  0  0  0  0
   18.8842   17.6926   25.4996 H   0  0  0  0  0  0  0  0  0  0  0  0
  1  2  1  0  0  0  0
  1  3  1  0  0  0  0
  1  4  1  0  0  0  0
  1  5  1  0  0  0  0
  5  6  1  0  0  0  0
  5  7  1  0  0  0  0
  7  8  1  0  0  0  0
  7  9  1  0  0  0  0
  7 10  1  0  0  0  0
  5 11  1  0  0  0  0
 11 12  1  0  0  0  0
 11 13  1  0  0  0  0
 11 14  1  0  0  0  0
 14 15  1  0  0  0  0
 14 16  1  0  0  0  0
 14 17  1  0  0  0  0
 17 18  1  0  0  0  0
 17 19  1  0  0  0  0
 17 20  1  0  0  0  0
M  END
> <VConfSearch Rank>
192

> <Conf_Id>
80

> <Delta U+W>
0.460

> <U+W>
-35.817

> <U>
22.495

> <W>
-58.311

> <W(PB)>
-60.259

> <W(SA)>
1.948

> <Valence>
2.419

> <Coulomb>
19.304

> <VdW>
0.772

> <VdW6>
-4.635

> <VdW12>
5.407

> <Bond>
0.149

> <Angle>
1.142

> <Pdih>
1.129

> <Idih>
0.000

> <Tether>
0.000

$$$$
VeraChem MOL file


 20 19  0  0  0  0  0  0  0  0999 V2000     
   20.0755   18.3764   20.4028 N   0  3  0  0  0  0  0  0  0  0  0  0
   21.0035   17.9781   20.2359 H   0  0  0  0  0  0  0  0  0  0  0  0
   20.1029   19.3539   20.1020 H   0  0  0  0  0  0  0  0  0  0  0  0
   19.4212   17.8868   19.7865 H   0  0  0  0  0  0  0  0  0  0  0  0
   19.6693   18.2540   21.8460 C   0  0  2  0  0  0  0  0  0  0  0  0
   19.6624   17.1833   22.0723 H   0  0  0  0  0  0  0  0  0  0  0  0
   18.2427   18.7938   22.0451 C   0  0  0  0  0  0  0  0  0  0  0  0
   17.5558   18.3530   21.3123 H   0  0  0  0  0  0  0  0  0  0  0  0
   18.2098   19.8843   21.9301 H   0  0  0  0  0  0  0  0  0  0  0  0
   17.8604   18.5356   23.0392 H   0  0  0  0  0  0  0  0  0  0  0  0
   20.7049   18.9343   22.7744 C   0  0  0  0  0  0  0  0  0  0  0  0
   21.6898   18.5125   22.5340 H   0  0  0  0  0  0  0  0  0  0  0  0
   20.7750   20.0056   22.5439 H   0  0  0  0  0  0  0  0  0  0  0  0
   20.4604   18.7267   24.2925 C   0  0  0  0  0  0  0  0  0  0  0  0
   21.4333   18.6166   24.7921 H   0  0  0  0  0  0  0  0  0  0  0  0
   19.9240   17.7836   24.4678 H   0  0  0  0  0  0  0  0  0  0  0  0
   19.7130   19.9042   24.9617 C   0  0  0  0  0  0  0  0  0  0  0  0
   20.2799   20.8385   24.8568 H   0  0  0  0  0  0  0  0  0  0  0  0
   19.5809   19.7149   26.0349 H   0  0  0  0  0  0  0  0  0  0  0  0
   18.7193   20.0630   24.5283 H   0  0  0  0  0  0  0  0  0  0  0  0
  1  2  1  0  0  0  0
  1  3  1  0  0  0  0
  1  4  1  0  0  0  0
  1  5  1  0  0  0  0
  5  6  1  0  0  0  0
  5  7  1  0  0  0  0
  7  8  1  0  0  0  0
  7  9  1  0  0  0  0
  7 10  1  0  0  0  0
  5 11  1  0  0  0  0
 11 12  1  0  0  0  0
 11 13  1  0  0  0  0
 11 14  1  0  0  0  0
 14 15  1  0  0  0  0
 14 16  1  0  0  0  0
 14 17  1  0  0  0  0
 17 18  1  0  0  0  0
 17 19  1  0  0  0  0
 17 20  1  0  0  0  0
M  END
> <VConfSearch Rank>
193

> <Conf_Id>
52

> <Delta U+W>
2.995

> <U+W>
-33.282

> <U>
25.224

> <W>
-58.506

> <W(PB)>
-60.411

> <W(SA)>
1.905

> <Valence>
4.945

> <Coulomb>
19.467

> <VdW>
0.813

> <VdW6>
-5.458

> <VdW12>
6.270

> <Bond>
0.200

> <Angle>
1.675

> <Pdih>
3.070

> <Idih>
0.000

> <Tether>
0.000

$$$$
VeraChem MOL file


 20 19  0  0  0  0  0  0  0  0999 V2000     
   19.7198   17.7315   23.7372 N   0  3  0  0  0  0  0  0  0  0  0  0
   19.7869   16.9203   23.1176 H   0  0  0  0  0  0  0  0  0  0  0  0
   19.3157   17.4092   24.6207 H   0  0  0  0  0  0  0  0  0  0  0  0
   20.6723   18.0484   23.9304 H   0  0  0  0  0  0  0  0  0  0  0  0
   18.8945   18.8269   23.1191 C   0  0  2  0  0  0  0  0  0  0  0  0
   18.8280   19.6345   23.8547 H   0  0  0  0  0  0  0  0  0  0  0  0
   17.4720   18.3134   22.8390 C   0  0  0  0  0  0  0  0  0  0  0  0
   17.4799   17.5094   22.0924 H   0  0  0  0  0  0  0  0  0  0  0  0
   16.8310   19.1212   22.4646 H   0  0  0  0  0  0  0  0  0  0  0  0
   17.0116   17.9244   23.7555 H   0  0  0  0  0  0  0  0  0  0  0  0
   19.5262   19.3974   21.8269 C   0  0  0  0  0  0  0  0  0  0  0  0
   19.8400   18.5761   21.1693 H   0  0  0  0  0  0  0  0  0  0  0  0
   18.7534   19.9465   21.2725 H   0  0  0  0  0  0  0  0  0  0  0  0
   20.7062   20.3777   22.0579 C   0  0  0  0  0  0  0  0  0  0  0  0
   20.3710   21.2210   22.6778 H   0  0  0  0  0  0  0  0  0  0  0  0
   20.9874   20.8093   21.0870 H   0  0  0  0  0  0  0  0  0  0  0  0
   21.9650   19.7411   22.6900 C   0  0  0  0  0  0  0  0  0  0  0  0
   22.8109   20.4387   22.6340 H   0  0  0  0  0  0  0  0  0  0  0  0
   22.2563   18.8232   22.1628 H   0  0  0  0  0  0  0  0  0  0  0  0
   21.8121   19.5100   23.7505 H   0  0  0  0  0  0  0  0  0  0  0  0
  1  2  1  0  0  0  0
  1  3  1  0  0  0  0
  1  4  1  0  0  0  0
  1  5  1  0  0  0  0
  5  6  1  0  0  0  0
  5  7  1  0  0  0  0
  7  8  1  0  0  0  0
  7  9  1  0  0  0  0
  7 10  1  0  0  0  0
  5 11  1  0  0  0  0
 11 12  1  0  0  0  0
 11 13  1  0  0  0  0
 11 14  1  0  0  0  0
 14 15  1  0  0  0  0
 14 16  1  0  0  0  0
 14 17  1  0  0  0  0
 17 18  1  0  0  0  0
 17 19  1  0  0  0  0
 17 20  1  0  0  0  0
M  END
> <VConfSearch Rank>
194

> <Conf_Id>
54

> <Delta U+W>
2.752

> <U+W>
-33.525

> <U>
24.337

> <W>
-57.862

> <W(PB)>
-59.764

> <W(SA)>
1.901

> <Valence>
3.593

> <Coulomb>
20.067

> <VdW>
0.677

> <VdW6>
-5.466

> <VdW12>
6.144

> <Bond>
0.191

> <Angle>
1.557

> <Pdih>
1.845

> <Idih>
0.000

> <Tether>
0.000

$$$$
VeraChem MOL file


 20 19  0  0  0  0  0  0  0  0999 V2000     
   20.9473   19.9517   24.0596 N   0  3  0  0  0  0  0  0  0  0  0  0
   21.2203   20.8761   24.4040 H   0  0  0  0  0  0  0  0  0  0  0  0
   21.7498   19.3299   24.1899 H   0  0  0  0  0  0  0  0  0  0  0  0
   20.1941   19.6118   24.6618 H   0  0  0  0  0  0  0  0  0  0  0  0
   20.5175   20.0058   22.6187 C   0  0  2  0  0  0  0  0  0  0  0  0
   21.3757   20.3940   22.0613 H   0  0  0  0  0  0  0  0  0  0  0  0
   19.3537   20.9943   22.4255 C   0  0  0  0  0  0  0  0  0  0  0  0
   19.0422   21.0295   21.3742 H   0  0  0  0  0  0  0  0  0  0  0  0
   19.6589   22.0073   22.7152 H   0  0  0  0  0  0  0  0  0  0  0  0
   18.4832   20.7208   23.0332 H   0  0  0  0  0  0  0  0  0  0  0  0
   20.1934   18.6060   22.0438 C   0  0  0  0  0  0  0  0  0  0  0  0
   19.9762   18.7063   20.9721 H   0  0  0  0  0  0  0  0  0  0  0  0
   21.0968   17.9857   22.1109 H   0  0  0  0  0  0  0  0  0  0  0  0
   19.0182   17.8695   22.7373 C   0  0  0  0  0  0  0  0  0  0  0  0
   18.0922   18.4512   22.6357 H   0  0  0  0  0  0  0  0  0  0  0  0
   19.2154   17.7691   23.8130 H   0  0  0  0  0  0  0  0  0  0  0  0
   18.7944   16.4662   22.1340 C   0  0  0  0  0  0  0  0  0  0  0  0
   17.9588   15.9584   22.6330 H   0  0  0  0  0  0  0  0  0  0  0  0
   19.6874   15.8385   22.2510 H   0  0  0  0  0  0  0  0  0  0  0  0
   18.5587   16.5292   21.0636 H   0  0  0  0  0  0  0  0  0  0  0  0
  1  2  1  0  0  0  0
  1  3  1  0  0  0  0
  1  4  1  0  0  0  0
  1  5  1  0  0  0  0
  5  6  1  0  0  0  0
  5  7  1  0  0  0  0
  7  8  1  0  0  0  0
  7  9  1  0  0  0  0
  7 10  1  0  0  0  0
  5 11  1  0  0  0  0
 11 12  1  0  0  0  0
 11 13  1  0  0  0  0
 11 14  1  0  0  0  0
 14 15  1  0  0  0  0
 14 16  1  0  0  0  0
 14 17  1  0  0  0  0
 17 18  1  0  0  0  0
 17 19  1  0  0  0  0
 17 20  1  0  0  0  0
M  END
> <VConfSearch Rank>
195

> <Conf_Id>
63

> <Delta U+W>
0.420

> <U+W>
-35.856

> <U>
22.625

> <W>
-58.481

> <W(PB)>
-60.400

> <W(SA)>
1.919

> <Valence>
2.404

> <Coulomb>
19.464

> <VdW>
0.757

> <VdW6>
-5.074

> <VdW12>
5.830

> <Bond>
0.172

> <Angle>
1.207

> <Pdih>
1.025

> <Idih>
0.000

> <Tether>
0.000

$$$$
VeraChem MOL file


 20 19  0  0  0  0  0  0  0  0999 V2000     
   18.4459   20.1743   23.1818 N   0  3  0  0  0  0  0  0  0  0  0  0
   18.9529   20.7895   22.5403 H   0  0  0  0  0  0  0  0  0  0  0  0
   18.5977   20.5260   24.1303 H   0  0  0  0  0  0  0  0  0  0  0  0
   17.4483   20.2725   22.9751 H   0  0  0  0  0  0  0  0  0  0  0  0
   18.9004   18.7465   23.0439 C   0  0  2  0  0  0  0  0  0  0  0  0
   18.7010   18.4513   22.0094 H   0  0  0  0  0  0  0  0  0  0  0  0
   18.0875   17.8262   23.9689 C   0  0  0  0  0  0  0  0  0  0  0  0
   17.0149   17.9101   23.7554 H   0  0  0  0  0  0  0  0  0  0  0  0
   18.2469   18.0815   25.0240 H   0  0  0  0  0  0  0  0  0  0  0  0
   18.3740   16.7770   23.8245 H   0  0  0  0  0  0  0  0  0  0  0  0
   20.4133   18.5792   23.3126 C   0  0  0  0  0  0  0  0  0  0  0  0
   20.6313   18.8556   24.3528 H   0  0  0  0  0  0  0  0  0  0  0  0
   20.6781   17.5179   23.2156 H   0  0  0  0  0  0  0  0  0  0  0  0
   21.3215   19.4062   22.3675 C   0  0  0  0  0  0  0  0  0  0  0  0
   22.3709   19.2247   22.6390 H   0  0  0  0  0  0  0  0  0  0  0  0
   21.1519   20.4806   22.5214 H   0  0  0  0  0  0  0  0  0  0  0  0
   21.1224   19.0552   20.8754 C   0  0  0  0  0  0  0  0  0  0  0  0
   21.2870   17.9846   20.6967 H   0  0  0  0  0  0  0  0  0  0  0  0
   21.8337   19.6115   20.2513 H   0  0  0  0  0  0  0  0  0  0  0  0
   20.1120   19.3087   20.5309 H   0  0  0  0  0  0  0  0  0  0  0  0
  1  2  1  0  0  0  0
  1  3  1  0  0  0  0
  1  4  1  0  0  0  0
  1  5  1  0  0  0  0
  5  6  1  0  0  0  0
  5  7  1  0  0  0  0
  7  8  1  0  0  0  0
  7  9  1  0  0  0  0
  7 10  1  0  0  0  0
  5 11  1  0  0  0  0
 11 12  1  0  0  0  0
 11 13  1  0  0  0  0
 11 14  1  0  0  0  0
 14 15  1  0  0  0  0
 14 16  1  0  0  0  0
 14 17  1  0  0  0  0
 17 18  1  0  0  0  0
 17 19  1  0  0  0  0
 17 20  1  0  0  0  0
M  END
> <VConfSearch Rank>
196

> <Conf_Id>
50

> <Delta U+W>
0.466

> <U+W>
-35.811

> <U>
22.369

> <W>
-58.180

> <W(PB)>
-60.103

> <W(SA)>
1.923

> <Valence>
2.168

> <Coulomb>
19.636

> <VdW>
0.566

> <VdW6>
-5.263

> <VdW12>
5.829

> <Bond>
0.162

> <Angle>
1.066

> <Pdih>
0.939

> <Idih>
0.000

> <Tether>
0.000

$$$$
VeraChem MOL file


 20 19  0  0  0  0  0  0  0  0999 V2000     
   21.5123   19.0127   24.1811 N   0  3  0  0  0  0  0  0  0  0  0  0
   22.2663   18.5379   23.6770 H   0  0  0  0  0  0  0  0  0  0  0  0
   21.2839   18.4431   24.9998 H   0  0  0  0  0  0  0  0  0  0  0  0
   21.8900   19.9002   24.5237 H   0  0  0  0  0  0  0  0  0  0  0  0
   20.3084   19.2284   23.3043 C   0  0  2  0  0  0  0  0  0  0  0  0
   20.6500   19.8389   22.4626 H   0  0  0  0  0  0  0  0  0  0  0  0
   19.2285   20.0103   24.0753 C   0  0  0  0  0  0  0  0  0  0  0  0
   18.8908   19.4524   24.9575 H   0  0  0  0  0  0  0  0  0  0  0  0
   18.3525   20.2114   23.4492 H   0  0  0  0  0  0  0  0  0  0  0  0
   19.6202   20.9768   24.4153 H   0  0  0  0  0  0  0  0  0  0  0  0
   19.7576   17.8954   22.7404 C   0  0  0  0  0  0  0  0  0  0  0  0
   20.5249   17.1169   22.8441 H   0  0  0  0  0  0  0  0  0  0  0  0
   18.9036   17.5498   23.3381 H   0  0  0  0  0  0  0  0  0  0  0  0
   19.3675   17.9615   21.2420 C   0  0  0  0  0  0  0  0  0  0  0  0
   19.0643   16.9573   20.9138 H   0  0  0  0  0  0  0  0  0  0  0  0
   20.2512   18.2240   20.6435 H   0  0  0  0  0  0  0  0  0  0  0  0
   18.2243   18.9524   20.9294 C   0  0  0  0  0  0  0  0  0  0  0  0
   17.3391   18.7428   21.5438 H   0  0  0  0  0  0  0  0  0  0  0  0
   17.9264   18.8739   19.8758 H   0  0  0  0  0  0  0  0  0  0  0  0
   18.5338   19.9901   21.1057 H   0  0  0  0  0  0  0  0  0  0  0  0
  1  2  1  0  0  0  0
  1  3  1  0  0  0  0
  1  4  1  0  0  0  0
  1  5  1  0  0  0  0
  5  6  1  0  0  0  0
  5  7  1  0  0  0  0
  7  8  1  0  0  0  0
  7  9  1  0  0  0  0
  7 10  1  0  0  0  0
  5 11  1  0  0  0  0
 11 12  1  0  0  0  0
 11 13  1  0  0  0  0
 11 14  1  0  0  0  0
 14 15  1  0  0  0  0
 14 16  1  0  0  0  0
 14 17  1  0  0  0  0
 17 18  1  0  0  0  0
 17 19  1  0  0  0  0
 17 20  1  0  0  0  0
M  END
> <VConfSearch Rank>
197

> <Conf_Id>
3

> <Delta U+W>
3.093

> <U+W>
-33.184

> <U>
25.256

> <W>
-58.439

> <W(PB)>
-60.337

> <W(SA)>
1.898

> <Valence>
4.963

> <Coulomb>
19.511

> <VdW>
0.782

> <VdW6>
-5.429

> <VdW12>
6.211

> <Bond>
0.174

> <Angle>
1.377

> <Pdih>
3.412

> <Idih>
0.000

> <Tether>
0.000

$$$$
VeraChem MOL file


 20 19  0  0  0  0  0  0  0  0999 V2000     
   19.1991   18.1557   20.6751 N   0  3  0  0  0  0  0  0  0  0  0  0
   18.3762   18.4510   20.1429 H   0  0  0  0  0  0  0  0  0  0  0  0
   19.1228   17.1442   20.8132 H   0  0  0  0  0  0  0  0  0  0  0  0
   20.0184   18.3235   20.0859 H   0  0  0  0  0  0  0  0  0  0  0  0
   19.3005   18.8888   21.9846 C   0  0  2  0  0  0  0  0  0  0  0  0
   18.3870   18.6540   22.5390 H   0  0  0  0  0  0  0  0  0  0  0  0
   19.3466   20.4089   21.7450 C   0  0  0  0  0  0  0  0  0  0  0  0
   19.2799   20.9624   22.6888 H   0  0  0  0  0  0  0  0  0  0  0  0
   18.5024   20.7279   21.1215 H   0  0  0  0  0  0  0  0  0  0  0  0
   20.2741   20.7031   21.2384 H   0  0  0  0  0  0  0  0  0  0  0  0
   20.5114   18.3939   22.8111 C   0  0  0  0  0  0  0  0  0  0  0  0
   20.4661   17.2990   22.8795 H   0  0  0  0  0  0  0  0  0  0  0  0
   21.4391   18.6270   22.2719 H   0  0  0  0  0  0  0  0  0  0  0  0
   20.6030   18.9687   24.2479 C   0  0  0  0  0  0  0  0  0  0  0  0
   20.7836   20.0515   24.2149 H   0  0  0  0  0  0  0  0  0  0  0  0
   21.4808   18.5333   24.7457 H   0  0  0  0  0  0  0  0  0  0  0  0
   19.3471   18.6740   25.0995 C   0  0  0  0  0  0  0  0  0  0  0  0
   19.1446   17.5960   25.1447 H   0  0  0  0  0  0  0  0  0  0  0  0
   18.4585   19.1738   24.6939 H   0  0  0  0  0  0  0  0  0  0  0  0
   19.4872   19.0318   26.1278 H   0  0  0  0  0  0  0  0  0  0  0  0
  1  2  1  0  0  0  0
  1  3  1  0  0  0  0
  1  4  1  0  0  0  0
  1  5  1  0  0  0  0
  5  6  1  0  0  0  0
  5  7  1  0  0  0  0
  7  8  1  0  0  0  0
  7  9  1  0  0  0  0
  7 10  1  0  0  0  0
  5 11  1  0  0  0  0
 11 12  1  0  0  0  0
 11 13  1  0  0  0  0
 11 14  1  0  0  0  0
 14 15  1  0  0  0  0
 14 16  1  0  0  0  0
 14 17  1  0  0  0  0
 17 18  1  0  0  0  0
 17 19  1  0  0  0  0
 17 20  1  0  0  0  0
M  END
> <VConfSearch Rank>
198

> <Conf_Id>
64

> <Delta U+W>
0.544

> <U+W>
-35.732

> <U>
22.800

> <W>
-58.532

> <W(PB)>
-60.437

> <W(SA)>
1.905

> <Valence>
2.662

> <Coulomb>
19.485

> <VdW>
0.653

> <VdW6>
-5.460

> <VdW12>
6.113

> <Bond>
0.174

> <Angle>
1.378

> <Pdih>
1.109

> <Idih>
0.000

> <Tether>
0.000

$$$$
VeraChem MOL file


 20 19  0  0  0  0  0  0  0  0999 V2000     
   21.7746   18.2584   22.4453 N   0  3  0  0  0  0  0  0  0  0  0  0
   21.9011   19.2668   22.5567 H   0  0  0  0  0  0  0  0  0  0  0  0
   22.3289   17.9684   21.6352 H   0  0  0  0  0  0  0  0  0  0  0  0
   22.1802   17.8051   23.2685 H   0  0  0  0  0  0  0  0  0  0  0  0
   20.3227   17.9007   22.2752 C   0  0  2  0  0  0  0  0  0  0  0  0
   20.2947   16.8134   22.1536 H   0  0  0  0  0  0  0  0  0  0  0  0
   19.7523   18.5213   20.9894 C   0  0  0  0  0  0  0  0  0  0  0  0
   19.8716   19.6110   20.9823 H   0  0  0  0  0  0  0  0  0  0  0  0
   18.6865   18.2854   20.8808 H   0  0  0  0  0  0  0  0  0  0  0  0
   20.2722   18.1237   20.1093 H   0  0  0  0  0  0  0  0  0  0  0  0
   19.4818   18.2362   23.5327 C   0  0  0  0  0  0  0  0  0  0  0  0
   18.4793   17.8010   23.4271 H   0  0  0  0  0  0  0  0  0  0  0  0
   19.9366   17.7088   24.3815 H   0  0  0  0  0  0  0  0  0  0  0  0
   19.3665   19.7417   23.9004 C   0  0  0  0  0  0  0  0  0  0  0  0
   20.2685   20.2893   23.5974 H   0  0  0  0  0  0  0  0  0  0  0  0
   19.3181   19.8277   24.9951 H   0  0  0  0  0  0  0  0  0  0  0  0
   18.1074   20.4257   23.3175 C   0  0  0  0  0  0  0  0  0  0  0  0
   18.1036   20.4207   22.2221 H   0  0  0  0  0  0  0  0  0  0  0  0
   18.0547   21.4727   23.6432 H   0  0  0  0  0  0  0  0  0  0  0  0
   17.1932   19.9249   23.6617 H   0  0  0  0  0  0  0  0  0  0  0  0
  1  2  1  0  0  0  0
  1  3  1  0  0  0  0
  1  4  1  0  0  0  0
  1  5  1  0  0  0  0
  5  6  1  0  0  0  0
  5  7  1  0  0  0  0
  7  8  1  0  0  0  0
  7  9  1  0  0  0  0
  7 10  1  0  0  0  0
  5 11  1  0  0  0  0
 11 12  1  0  0  0  0
 11 13  1  0  0  0  0
 11 14  1  0  0  0  0
 14 15  1  0  0  0  0
 14 16  1  0  0  0  0
 14 17  1  0  0  0  0
 17 18  1  0  0  0  0
 17 19  1  0  0  0  0
 17 20  1  0  0  0  0
M  END
> <VConfSearch Rank>
199

> <Conf_Id>
35

> <Delta U+W>
3.004

> <U+W>
-33.272

> <U>
25.367

> <W>
-58.639

> <W(PB)>
-60.512

> <W(SA)>
1.873

> <Valence>
4.943

> <Coulomb>
19.661

> <VdW>
0.764

> <VdW6>
-5.871

> <VdW12>
6.636

> <Bond>
0.230

> <Angle>
1.857

> <Pdih>
2.855

> <Idih>
0.000

> <Tether>
0.000

$$$$
VeraChem MOL file


 20 19  0  0  0  0  0  0  0  0999 V2000     
   19.4286   18.8852   24.4383 N   0  3  0  0  0  0  0  0  0  0  0  0
   18.8010   18.3704   25.0617 H   0  0  0  0  0  0  0  0  0  0  0  0
   19.7550   19.7104   24.9484 H   0  0  0  0  0  0  0  0  0  0  0  0
   20.2426   18.2938   24.2604 H   0  0  0  0  0  0  0  0  0  0  0  0
   18.7419   19.2666   23.1556 C   0  0  2  0  0  0  0  0  0  0  0  0
   17.9104   19.9128   23.4537 H   0  0  0  0  0  0  0  0  0  0  0  0
   18.1378   18.0367   22.4549 C   0  0  0  0  0  0  0  0  0  0  0  0
   18.9055   17.2940   22.2073 H   0  0  0  0  0  0  0  0  0  0  0  0
   17.6289   18.3282   21.5279 H   0  0  0  0  0  0  0  0  0  0  0  0
   17.3975   17.5508   23.1020 H   0  0  0  0  0  0  0  0  0  0  0  0
   19.6423   20.1025   22.2101 C   0  0  0  0  0  0  0  0  0  0  0  0
   18.9890   20.5911   21.4752 H   0  0  0  0  0  0  0  0  0  0  0  0
   20.0973   20.9205   22.7837 H   0  0  0  0  0  0  0  0  0  0  0  0
   20.7525   19.3452   21.4287 C   0  0  0  0  0  0  0  0  0  0  0  0
   21.2627   20.0688   20.7777 H   0  0  0  0  0  0  0  0  0  0  0  0
   20.3047   18.6050   20.7518 H   0  0  0  0  0  0  0  0  0  0  0  0
   21.8149   18.6603   22.3182 C   0  0  0  0  0  0  0  0  0  0  0  0
   22.2193   19.3571   23.0639 H   0  0  0  0  0  0  0  0  0  0  0  0
   22.6536   18.3070   21.7042 H   0  0  0  0  0  0  0  0  0  0  0  0
   21.4051   17.7853   22.8356 H   0  0  0  0  0  0  0  0  0  0  0  0
  1  2  1  0  0  0  0
  1  3  1  0  0  0  0
  1  4  1  0  0  0  0
  1  5  1  0  0  0  0
  5  6  1  0  0  0  0
  5  7  1  0  0  0  0
  7  8  1  0  0  0  0
  7  9  1  0  0  0  0
  7 10  1  0  0  0  0
  5 11  1  0  0  0  0
 11 12  1  0  0  0  0
 11 13  1  0  0  0  0
 11 14  1  0  0  0  0
 14 15  1  0  0  0  0
 14 16  1  0  0  0  0
 14 17  1  0  0  0  0
 17 18  1  0  0  0  0
 17 19  1  0  0  0  0
 17 20  1  0  0  0  0
M  END
> <VConfSearch Rank>
200

> <Conf_Id>
55

> <Delta U+W>
2.767

> <U+W>
-33.509

> <U>
24.552

> <W>
-58.061

> <W(PB)>
-59.930

> <W(SA)>
1.869

> <Valence>
3.726

> <Coulomb>
20.219

> <VdW>
0.606

> <VdW6>
-6.395

> <VdW12>
7.001

> <Bond>
0.241

> <Angle>
2.098

> <Pdih>
1.387

> <Idih>
0.000

> <Tether>
0.000

$$$$
VeraChem MOL file


 20 19  0  0  0  0  0  0  0  0999 V2000     
   17.9159   19.6240   23.0214 N   0  3  0  0  0  0  0  0  0  0  0  0
   18.1685   20.5569   23.3568 H   0  0  0  0  0  0  0  0  0  0  0  0
   16.9898   19.4047   23.3982 H   0  0  0  0  0  0  0  0  0  0  0  0
   17.8249   19.6772   22.0039 H   0  0  0  0  0  0  0  0  0  0  0  0
   18.9353   18.5958   23.4320 C   0  0  2  0  0  0  0  0  0  0  0  0
   18.5930   17.6361   23.0324 H   0  0  0  0  0  0  0  0  0  0  0  0
   19.0017   18.4828   24.9640 C   0  0  0  0  0  0  0  0  0  0  0  0
   18.0159   18.2386   25.3786 H   0  0  0  0  0  0  0  0  0  0  0  0
   19.3398   19.4229   25.4175 H   0  0  0  0  0  0  0  0  0  0  0  0
   19.6953   17.6887   25.2669 H   0  0  0  0  0  0  0  0  0  0  0  0
   20.3379   18.8866   22.8538 C   0  0  0  0  0  0  0  0  0  0  0  0
   20.6953   19.8577   23.2215 H   0  0  0  0  0  0  0  0  0  0  0  0
   21.0402   18.1315   23.2315 H   0  0  0  0  0  0  0  0  0  0  0  0
   20.3708   18.8687   21.3065 C   0  0  0  0  0  0  0  0  0  0  0  0
   19.7178   19.6546   20.9036 H   0  0  0  0  0  0  0  0  0  0  0  0
   19.9791   17.9097   20.9389 H   0  0  0  0  0  0  0  0  0  0  0  0
   21.8011   19.0780   20.7645 C   0  0  0  0  0  0  0  0  0  0  0  0
   22.2096   20.0435   21.0903 H   0  0  0  0  0  0  0  0  0  0  0  0
   21.8057   19.0639   19.6668 H   0  0  0  0  0  0  0  0  0  0  0  0
   22.4764   18.2860   21.1136 H   0  0  0  0  0  0  0  0  0  0  0  0
  1  2  1  0  0  0  0
  1  3  1  0  0  0  0
  1  4  1  0  0  0  0
  1  5  1  0  0  0  0
  5  6  1  0  0  0  0
  5  7  1  0  0  0  0
  7  8  1  0  0  0  0
  7  9  1  0  0  0  0
  7 10  1  0  0  0  0
  5 11  1  0  0  0  0
 11 12  1  0  0  0  0
 11 13  1  0  0  0  0
 11 14  1  0  0  0  0
 14 15  1  0  0  0  0
 14 16  1  0  0  0  0
 14 17  1  0  0  0  0
 17 18  1  0  0  0  0
 17 19  1  0  0  0  0
 17 20  1  0  0  0  0
M  END
> <VConfSearch Rank>
201

> <Conf_Id>
74

> <Delta U+W>
0.000

> <U+W>
-36.276

> <U>
22.080

> <W>
-58.356

> <W(PB)>
-60.289

> <W(SA)>
1.932

> <Valence>
1.885

> <Coulomb>
19.559

> <VdW>
0.637

> <VdW6>
-4.482

> <VdW12>
5.119

> <Bond>
0.136

> <Angle>
0.867

> <Pdih>
0.882

> <Idih>
0.000

> <Tether>
0.000

$$$$
VeraChem MOL file


 20 19  0  0  0  0  0  0  0  0999 V2000     
   19.1703   20.1163   20.7216 N   0  3  0  0  0  0  0  0  0  0  0  0
   18.6239   20.8993   21.0909 H   0  0  0  0  0  0  0  0  0  0  0  0
   18.5097   19.4369   20.3358 H   0  0  0  0  0  0  0  0  0  0  0  0
   19.7259   20.4771   19.9413 H   0  0  0  0  0  0  0  0  0  0  0  0
   20.0428   19.4994   21.7802 C   0  0  2  0  0  0  0  0  0  0  0  0
   20.7118   20.2924   22.1286 H   0  0  0  0  0  0  0  0  0  0  0  0
   20.8992   18.3716   21.1756 C   0  0  0  0  0  0  0  0  0  0  0  0
   21.4445   18.7307   20.2942 H   0  0  0  0  0  0  0  0  0  0  0  0
   20.2772   17.5221   20.8675 H   0  0  0  0  0  0  0  0  0  0  0  0
   21.6457   18.0094   21.8917 H   0  0  0  0  0  0  0  0  0  0  0  0
   19.2026   19.0122   22.9836 C   0  0  0  0  0  0  0  0  0  0  0  0
   18.5386   19.8287   23.2969 H   0  0  0  0  0  0  0  0  0  0  0  0
   18.5514   18.1857   22.6695 H   0  0  0  0  0  0  0  0  0  0  0  0
   20.0510   18.5738   24.2022 C   0  0  0  0  0  0  0  0  0  0  0  0
   20.7476   19.3782   24.4775 H   0  0  0  0  0  0  0  0  0  0  0  0
   20.6612   17.6974   23.9465 H   0  0  0  0  0  0  0  0  0  0  0  0
   19.1649   18.2263   25.4179 C   0  0  0  0  0  0  0  0  0  0  0  0
   18.5685   19.0922   25.7335 H   0  0  0  0  0  0  0  0  0  0  0  0
   19.7817   17.9143   26.2707 H   0  0  0  0  0  0  0  0  0  0  0  0
   18.4761   17.4044   25.1823 H   0  0  0  0  0  0  0  0  0  0  0  0
  1  2  1  0  0  0  0
  1  3  1  0  0  0  0
  1  4  1  0  0  0  0
  1  5  1  0  0  0  0
  5  6  1  0  0  0  0
  5  7  1  0  0  0  0
  7  8  1  0  0  0  0
  7  9  1  0  0  0  0
  7 10  1  0  0  0  0
  5 11  1  0  0  0  0
 11 12  1  0  0  0  0
 11 13  1  0  0  0  0
 11 14  1  0  0  0  0
 14 15  1  0  0  0  0
 14 16  1  0  0  0  0
 14 17  1  0  0  0  0
 17 18  1  0  0  0  0
 17 19  1  0  0  0  0
 17 20  1  0  0  0  0
M  END
> <VConfSearch Rank>
202

> <Conf_Id>
80

> <Delta U+W>
0.460

> <U+W>
-35.817

> <U>
22.495

> <W>
-58.311

> <W(PB)>
-60.259

> <W(SA)>
1.948

> <Valence>
2.419

> <Coulomb>
19.304

> <VdW>
0.772

> <VdW6>
-4.635

> <VdW12>
5.407

> <Bond>
0.149

> <Angle>
1.142

> <Pdih>
1.129

> <Idih>
0.000

> <Tether>
0.000

$$$$
VeraChem MOL file


 20 19  0  0  0  0  0  0  0  0999 V2000     
   19.9593   19.9312   24.8800 N   0  3  0  0  0  0  0  0  0  0  0  0
   19.1481   20.5215   25.0834 H   0  0  0  0  0  0  0  0  0  0  0  0
   20.7267   20.5492   24.6045 H   0  0  0  0  0  0  0  0  0  0  0  0
   20.2322   19.4800   25.7572 H   0  0  0  0  0  0  0  0  0  0  0  0
   19.6554   18.9178   23.8107 C   0  0  2  0  0  0  0  0  0  0  0  0
   18.8341   18.3046   24.1945 H   0  0  0  0  0  0  0  0  0  0  0  0
   20.8704   18.0020   23.5845 C   0  0  0  0  0  0  0  0  0  0  0  0
   21.2365   17.6013   24.5377 H   0  0  0  0  0  0  0  0  0  0  0  0
   21.6940   18.5444   23.1039 H   0  0  0  0  0  0  0  0  0  0  0  0
   20.6039   17.1440   22.9569 H   0  0  0  0  0  0  0  0  0  0  0  0
   19.1725   19.6084   22.5117 C   0  0  0  0  0  0  0  0  0  0  0  0
   18.3331   20.2636   22.7797 H   0  0  0  0  0  0  0  0  0  0  0  0
   19.9556   20.2716   22.1210 H   0  0  0  0  0  0  0  0  0  0  0  0
   18.6820   18.6437   21.3998 C   0  0  0  0  0  0  0  0  0  0  0  0
   17.8254   19.1053   20.8885 H   0  0  0  0  0  0  0  0  0  0  0  0
   18.3018   17.7123   21.8423 H   0  0  0  0  0  0  0  0  0  0  0  0
   19.7604   18.3337   20.3349 C   0  0  0  0  0  0  0  0  0  0  0  0
   20.0919   19.2524   19.8339 H   0  0  0  0  0  0  0  0  0  0  0  0
   19.3580   17.6624   19.5651 H   0  0  0  0  0  0  0  0  0  0  0  0
   20.6425   17.8496   20.7686 H   0  0  0  0  0  0  0  0  0  0  0  0
  1  2  1  0  0  0  0
  1  3  1  0  0  0  0
  1  4  1  0  0  0  0
  1  5  1  0  0  0  0
  5  6  1  0  0  0  0
  5  7  1  0  0  0  0
  7  8  1  0  0  0  0
  7  9  1  0  0  0  0
  7 10  1  0  0  0  0
  5 11  1  0  0  0  0
 11 12  1  0  0  0  0
 11 13  1  0  0  0  0
 11 14  1  0  0  0  0
 14 15  1  0  0  0  0
 14 16  1  0  0  0  0
 14 17  1  0  0  0  0
 17 18  1  0  0  0  0
 17 19  1  0  0  0  0
 17 20  1  0  0  0  0
M  END
> <VConfSearch Rank>
203

> <Conf_Id>
52

> <Delta U+W>
2.995

> <U+W>
-33.282

> <U>
25.224

> <W>
-58.506

> <W(PB)>
-60.411

> <W(SA)>
1.905

> <Valence>
4.945

> <Coulomb>
19.467

> <VdW>
0.813

> <VdW6>
-5.458

> <VdW12>
6.270

> <Bond>
0.200

> <Angle>
1.675

> <Pdih>
3.070

> <Idih>
0.000

> <Tether>
0.000

$$$$
VeraChem MOL file


 20 19  0  0  0  0  0  0  0  0999 V2000     
   18.5384   19.4326   23.7361 N   0  3  0  0  0  0  0  0  0  0  0  0
   18.6189   18.7921   24.5296 H   0  0  0  0  0  0  0  0  0  0  0  0
   17.5792   19.7897   23.7271 H   0  0  0  0  0  0  0  0  0  0  0  0
   19.1607   20.2232   23.9167 H   0  0  0  0  0  0  0  0  0  0  0  0
   18.8856   18.7487   22.4419 C   0  0  2  0  0  0  0  0  0  0  0  0
   18.7301   19.4776   21.6404 H   0  0  0  0  0  0  0  0  0  0  0  0
   17.9330   17.5643   22.2060 C   0  0  0  0  0  0  0  0  0  0  0  0
   18.0596   16.7934   22.9763 H   0  0  0  0  0  0  0  0  0  0  0  0
   18.1168   17.1034   21.2275 H   0  0  0  0  0  0  0  0  0  0  0  0
   16.8877   17.8967   22.2234 H   0  0  0  0  0  0  0  0  0  0  0  0
   20.3578   18.2755   22.3897 C   0  0  0  0  0  0  0  0  0  0  0  0
   20.6151   17.7490   23.3182 H   0  0  0  0  0  0  0  0  0  0  0  0
   20.4586   17.5333   21.5865 H   0  0  0  0  0  0  0  0  0  0  0  0
   21.3918   19.3971   22.1075 C   0  0  0  0  0  0  0  0  0  0  0  0
   21.1545   19.8878   21.1530 H   0  0  0  0  0  0  0  0  0  0  0  0
   22.3762   18.9282   21.9696 H   0  0  0  0  0  0  0  0  0  0  0  0
   21.5127   20.4637   23.2197 C   0  0  0  0  0  0  0  0  0  0  0  0
   22.3923   21.0966   23.0435 H   0  0  0  0  0  0  0  0  0  0  0  0
   21.6305   19.9994   24.2075 H   0  0  0  0  0  0  0  0  0  0  0  0
   20.6409   21.1279   23.2395 H   0  0  0  0  0  0  0  0  0  0  0  0
  1  2  1  0  0  0  0
  1  3  1  0  0  0  0
  1  4  1  0  0  0  0
  1  5  1  0  0  0  0
  5  6  1  0  0  0  0
  5  7  1  0  0  0  0
  7  8  1  0  0  0  0
  7  9  1  0  0  0  0
  7 10  1  0  0  0  0
  5 11  1  0  0  0  0
 11 12  1  0  0  0  0
 11 13  1  0  0  0  0
 11 14  1  0  0  0  0
 14 15  1  0  0  0  0
 14 16  1  0  0  0  0
 14 17  1  0  0  0  0
 17 18  1  0  0  0  0
 17 19  1  0  0  0  0
 17 20  1  0  0  0  0
M  END
> <VConfSearch Rank>
204

> <Conf_Id>
54

> <Delta U+W>
2.752

> <U+W>
-33.525

> <U>
24.337

> <W>
-57.862

> <W(PB)>
-59.764

> <W(SA)>
1.901

> <Valence>
3.593

> <Coulomb>
20.067

> <VdW>
0.677

> <VdW6>
-5.466

> <VdW12>
6.144

> <Bond>
0.191

> <Angle>
1.557

> <Pdih>
1.845

> <Idih>
0.000

> <Tether>
0.000

$$$$
VeraChem MOL file


 20 19  0  0  0  0  0  0  0  0999 V2000     
   21.4560   17.8445   22.3136 N   0  3  0  0  0  0  0  0  0  0  0  0
   22.3263   17.8170   21.7755 H   0  0  0  0  0  0  0  0  0  0  0  0
   21.1579   16.8761   22.4587 H   0  0  0  0  0  0  0  0  0  0  0  0
   21.6766   18.2390   23.2307 H   0  0  0  0  0  0  0  0  0  0  0  0
   20.3980   18.6493   21.6087 C   0  0  2  0  0  0  0  0  0  0  0  0
   20.2443   18.1642   20.6396 H   0  0  0  0  0  0  0  0  0  0  0  0
   20.8839   20.0842   21.3370 C   0  0  0  0  0  0  0  0  0  0  0  0
   20.1092   20.6680   20.8247 H   0  0  0  0  0  0  0  0  0  0  0  0
   21.7715   20.0729   20.6926 H   0  0  0  0  0  0  0  0  0  0  0  0
   21.1505   20.6051   22.2642 H   0  0  0  0  0  0  0  0  0  0  0  0
   19.0412   18.6255   22.3527 C   0  0  0  0  0  0  0  0  0  0  0  0
   18.2951   19.1523   21.7430 H   0  0  0  0  0  0  0  0  0  0  0  0
   18.6979   17.5845   22.4152 H   0  0  0  0  0  0  0  0  0  0  0  0
   19.0644   19.2396   23.7763 C   0  0  0  0  0  0  0  0  0  0  0  0
   19.3560   20.2973   23.7294 H   0  0  0  0  0  0  0  0  0  0  0  0
   19.8131   18.7295   24.3972 H   0  0  0  0  0  0  0  0  0  0  0  0
   17.6853   19.1324   24.4619 C   0  0  0  0  0  0  0  0  0  0  0  0
   17.7167   19.5727   25.4670 H   0  0  0  0  0  0  0  0  0  0  0  0
   17.3746   18.0844   24.5636 H   0  0  0  0  0  0  0  0  0  0  0  0
   16.9156   19.6628   23.8863 H   0  0  0  0  0  0  0  0  0  0  0  0
  1  2  1  0  0  0  0
  1  3  1  0  0  0  0
  1  4  1  0  0  0  0
  1  5  1  0  0  0  0
  5  6  1  0  0  0  0
  5  7  1  0  0  0  0
  7  8  1  0  0  0  0
  7  9  1  0  0  0  0
  7 10  1  0  0  0  0
  5 11  1  0  0  0  0
 11 12  1  0  0  0  0
 11 13  1  0  0  0  0
 11 14  1  0  0  0  0
 14 15  1  0  0  0  0
 14 16  1  0  0  0  0
 14 17  1  0  0  0  0
 17 18  1  0  0  0  0
 17 19  1  0  0  0  0
 17 20  1  0  0  0  0
M  END
> <VConfSearch Rank>
205

> <Conf_Id>
63

> <Delta U+W>
0.420

> <U+W>
-35.856

> <U>
22.625

> <W>
-58.481

> <W(PB)>
-60.400

> <W(SA)>
1.919

> <Valence>
2.404

> <Coulomb>
19.464

> <VdW>
0.757

> <VdW6>
-5.074

> <VdW12>
5.830

> <Bond>
0.172

> <Angle>
1.207

> <Pdih>
1.025

> <Idih>
0.000

> <Tether>
0.000

$$$$
VeraChem MOL file


 20 19  0  0  0  0  0  0  0  0999 V2000     
   18.2209   19.0351   23.7583 N   0  3  0  0  0  0  0  0  0  0  0  0
   18.4220   20.0355   23.8340 H   0  0  0  0  0  0  0  0  0  0  0  0
   18.3974   18.6152   24.6742 H   0  0  0  0  0  0  0  0  0  0  0  0
   17.2205   18.9382   23.5649 H   0  0  0  0  0  0  0  0  0  0  0  0
   19.0555   18.3893   22.6857 C   0  0  2  0  0  0  0  0  0  0  0  0
   18.8047   18.8916   21.7466 H   0  0  0  0  0  0  0  0  0  0  0  0
   18.6983   16.9009   22.5421 C   0  0  0  0  0  0  0  0  0  0  0  0
   17.6303   16.7770   22.3245 H   0  0  0  0  0  0  0  0  0  0  0  0
   18.9262   16.3467   23.4611 H   0  0  0  0  0  0  0  0  0  0  0  0
   19.2604   16.4429   21.7188 H   0  0  0  0  0  0  0  0  0  0  0  0
   20.5716   18.5571   22.9352 C   0  0  0  0  0  0  0  0  0  0  0  0
   20.8464   18.0447   23.8667 H   0  0  0  0  0  0  0  0  0  0  0  0
   21.1239   18.0506   22.1325 H   0  0  0  0  0  0  0  0  0  0  0  0
   21.0437   20.0314   23.0094 C   0  0  0  0  0  0  0  0  0  0  0  0
   22.1273   20.0458   23.1925 H   0  0  0  0  0  0  0  0  0  0  0  0
   20.5856   20.5342   23.8719 H   0  0  0  0  0  0  0  0  0  0  0  0
   20.7432   20.8295   21.7202 C   0  0  0  0  0  0  0  0  0  0  0  0
   21.1918   20.3454   20.8429 H   0  0  0  0  0  0  0  0  0  0  0  0
   21.1571   21.8437   21.7905 H   0  0  0  0  0  0  0  0  0  0  0  0
   19.6642   20.9244   21.5448 H   0  0  0  0  0  0  0  0  0  0  0  0
  1  2  1  0  0  0  0
  1  3  1  0  0  0  0
  1  4  1  0  0  0  0
  1  5  1  0  0  0  0
  5  6  1  0  0  0  0
  5  7  1  0  0  0  0
  7  8  1  0  0  0  0
  7  9  1  0  0  0  0
  7 10  1  0  0  0  0
  5 11  1  0  0  0  0
 11 12  1  0  0  0  0
 11 13  1  0  0  0  0
 11 14  1  0  0  0  0
 14 15  1  0  0  0  0
 14 16  1  0  0  0  0
 14 17  1  0  0  0  0
 17 18  1  0  0  0  0
 17 19  1  0  0  0  0
 17 20  1  0  0  0  0
M  END
> <VConfSearch Rank>
206

> <Conf_Id>
50

> <Delta U+W>
0.466

> <U+W>
-35.811

> <U>
22.369

> <W>
-58.180

> <W(PB)>
-60.103

> <W(SA)>
1.923

> <Valence>
2.168

> <Coulomb>
19.636

> <VdW>
0.566

> <VdW6>
-5.263

> <VdW12>
5.829

> <Bond>
0.162

> <Angle>
1.066

> <Pdih>
0.939

> <Idih>
0.000

> <Tether>
0.000

$$$$
VeraChem MOL file


 20 19  0  0  0  0  0  0  0  0999 V2000     
   19.2167   16.6459   22.5331 N   0  3  0  0  0  0  0  0  0  0  0  0
   20.0725   16.2368   22.1482 H   0  0  0  0  0  0  0  0  0  0  0  0
   18.4908   16.5706   21.8161 H   0  0  0  0  0  0  0  0  0  0  0  0
   18.9286   16.0585   23.3204 H   0  0  0  0  0  0  0  0  0  0  0  0
   19.4270   18.0737   22.9593 C   0  0  2  0  0  0  0  0  0  0  0  0
   20.2158   18.0523   23.7177 H   0  0  0  0  0  0  0  0  0  0  0  0
   18.1406   18.6271   23.6004 C   0  0  0  0  0  0  0  0  0  0  0  0
   17.3087   18.6217   22.8851 H   0  0  0  0  0  0  0  0  0  0  0  0
   18.2756   19.6559   23.9512 H   0  0  0  0  0  0  0  0  0  0  0  0
   17.8476   18.0191   24.4650 H   0  0  0  0  0  0  0  0  0  0  0  0
   19.9103   18.9619   21.7864 C   0  0  0  0  0  0  0  0  0  0  0  0
   20.2871   18.3188   20.9801 H   0  0  0  0  0  0  0  0  0  0  0  0
   19.0676   19.5164   21.3525 H   0  0  0  0  0  0  0  0  0  0  0  0
   21.0512   19.9390   22.1680 C   0  0  0  0  0  0  0  0  0  0  0  0
   21.3789   20.4668   21.2613 H   0  0  0  0  0  0  0  0  0  0  0  0
   21.9218   19.3678   22.5198 H   0  0  0  0  0  0  0  0  0  0  0  0
   20.6581   20.9836   23.2360 C   0  0  0  0  0  0  0  0  0  0  0  0
   19.7638   21.5433   22.9328 H   0  0  0  0  0  0  0  0  0  0  0  0
   21.4712   21.7063   23.3827 H   0  0  0  0  0  0  0  0  0  0  0  0
   20.4615   20.5106   24.2062 H   0  0  0  0  0  0  0  0  0  0  0  0
  1  2  1  0  0  0  0
  1  3  1  0  0  0  0
  1  4  1  0  0  0  0
  1  5  1  0  0  0  0
  5  6  1  0  0  0  0
  5  7  1  0  0  0  0
  7  8  1  0  0  0  0
  7  9  1  0  0  0  0
  7 10  1  0  0  0  0
  5 11  1  0  0  0  0
 11 12  1  0  0  0  0
 11 13  1  0  0  0  0
 11 14  1  0  0  0  0
 14 15  1  0  0  0  0
 14 16  1  0  0  0  0
 14 17  1  0  0  0  0
 17 18  1  0  0  0  0
 17 19  1  0  0  0  0
 17 20  1  0  0  0  0
M  END
> <VConfSearch Rank>
207

> <Conf_Id>
3

> <Delta U+W>
3.093

> <U+W>
-33.184

> <U>
25.256

> <W>
-58.439

> <W(PB)>
-60.337

> <W(SA)>
1.898

> <Valence>
4.963

> <Coulomb>
19.511

> <VdW>
0.782

> <VdW6>
-5.429

> <VdW12>
6.211

> <Bond>
0.174

> <Angle>
1.377

> <Pdih>
3.412

> <Idih>
0.000

> <Tether>
0.000

$$$$
VeraChem MOL file


 20 19  0  0  0  0  0  0  0  0999 V2000     
   17.4894   18.3388   23.0074 N   0  3  0  0  0  0  0  0  0  0  0  0
   17.1413   17.3995   22.7970 H   0  0  0  0  0  0  0  0  0  0  0  0
   16.9954   18.9895   22.3907 H   0  0  0  0  0  0  0  0  0  0  0  0
   17.2128   18.5573   23.9679 H   0  0  0  0  0  0  0  0  0  0  0  0
   18.9802   18.4268   22.8280 C   0  0  2  0  0  0  0  0  0  0  0  0
   19.1784   18.1754   21.7818 H   0  0  0  0  0  0  0  0  0  0  0  0
   19.6889   17.3911   23.7196 C   0  0  0  0  0  0  0  0  0  0  0  0
   20.7618   17.3450   23.4999 H   0  0  0  0  0  0  0  0  0  0  0  0
   19.2793   16.3881   23.5479 H   0  0  0  0  0  0  0  0  0  0  0  0
   19.5656   17.6316   24.7828 H   0  0  0  0  0  0  0  0  0  0  0  0
   19.4915   19.8640   23.0878 C   0  0  0  0  0  0  0  0  0  0  0  0
   18.8963   20.5629   22.4855 H   0  0  0  0  0  0  0  0  0  0  0  0
   19.3060   20.1317   24.1364 H   0  0  0  0  0  0  0  0  0  0  0  0
   20.9898   20.0950   22.7637 C   0  0  0  0  0  0  0  0  0  0  0  0
   21.6221   19.5075   23.4429 H   0  0  0  0  0  0  0  0  0  0  0  0
   21.2343   21.1480   22.9620 H   0  0  0  0  0  0  0  0  0  0  0  0
   21.3504   19.7649   21.2974 C   0  0  0  0  0  0  0  0  0  0  0  0
   20.7282   20.3392   20.5987 H   0  0  0  0  0  0  0  0  0  0  0  0
   21.2163   18.6978   21.0796 H   0  0  0  0  0  0  0  0  0  0  0  0
   22.3999   20.0144   21.0940 H   0  0  0  0  0  0  0  0  0  0  0  0
  1  2  1  0  0  0  0
  1  3  1  0  0  0  0
  1  4  1  0  0  0  0
  1  5  1  0  0  0  0
  5  6  1  0  0  0  0
  5  7  1  0  0  0  0
  7  8  1  0  0  0  0
  7  9  1  0  0  0  0
  7 10  1  0  0  0  0
  5 11  1  0  0  0  0
 11 12  1  0  0  0  0
 11 13  1  0  0  0  0
 11 14  1  0  0  0  0
 14 15  1  0  0  0  0
 14 16  1  0  0  0  0
 14 17  1  0  0  0  0
 17 18  1  0  0  0  0
 17 19  1  0  0  0  0
 17 20  1  0  0  0  0
M  END
> <VConfSearch Rank>
208

> <Conf_Id>
64

> <Delta U+W>
0.544

> <U+W>
-35.732

> <U>
22.800

> <W>
-58.532

> <W(PB)>
-60.437

> <W(SA)>
1.905

> <Valence>
2.662

> <Coulomb>
19.485

> <VdW>
0.653

> <VdW6>
-5.460

> <VdW12>
6.113

> <Bond>
0.174

> <Angle>
1.378

> <Pdih>
1.109

> <Idih>
0.000

> <Tether>
0.000

$$$$
VeraChem MOL file


 20 19  0  0  0  0  0  0  0  0999 V2000     
   17.9909   18.7308   23.7978 N   0  3  0  0  0  0  0  0  0  0  0  0
   17.7381   19.4370   23.1032 H   0  0  0  0  0  0  0  0  0  0  0  0
   17.6773   19.0733   24.7100 H   0  0  0  0  0  0  0  0  0  0  0  0
   17.4509   17.8868   23.5886 H   0  0  0  0  0  0  0  0  0  0  0  0
   19.4707   18.4570   23.7919 C   0  0  2  0  0  0  0  0  0  0  0  0
   19.6389   17.7047   24.5689 H   0  0  0  0  0  0  0  0  0  0  0  0
   20.2622   19.7134   24.1903 C   0  0  0  0  0  0  0  0  0  0  0  0
   20.0361   20.5572   23.5281 H   0  0  0  0  0  0  0  0  0  0  0  0
   21.3419   19.5223   24.1571 H   0  0  0  0  0  0  0  0  0  0  0  0
   20.0096   20.0164   25.2137 H   0  0  0  0  0  0  0  0  0  0  0  0
   19.9505   17.8395   22.4542 C   0  0  0  0  0  0  0  0  0  0  0  0
   20.9889   17.4994   22.5618 H   0  0  0  0  0  0  0  0  0  0  0  0
   19.3646   16.9264   22.2858 H   0  0  0  0  0  0  0  0  0  0  0  0
   19.8192   18.7411   21.1952 C   0  0  0  0  0  0  0  0  0  0  0  0
   18.9630   19.4220   21.2884 H   0  0  0  0  0  0  0  0  0  0  0  0
   19.5977   18.0988   20.3313 H   0  0  0  0  0  0  0  0  0  0  0  0
   21.1029   19.5412   20.8713 C   0  0  0  0  0  0  0  0  0  0  0  0
   21.3666   20.2417   21.6710 H   0  0  0  0  0  0  0  0  0  0  0  0
   20.9685   20.1252   19.9516 H   0  0  0  0  0  0  0  0  0  0  0  0
   21.9562   18.8685   20.7152 H   0  0  0  0  0  0  0  0  0  0  0  0
  1  2  1  0  0  0  0
  1  3  1  0  0  0  0
  1  4  1  0  0  0  0
  1  5  1  0  0  0  0
  5  6  1  0  0  0  0
  5  7  1  0  0  0  0
  7  8  1  0  0  0  0
  7  9  1  0  0  0  0
  7 10  1  0  0  0  0
  5 11  1  0  0  0  0
 11 12  1  0  0  0  0
 11 13  1  0  0  0  0
 11 14  1  0  0  0  0
 14 15  1  0  0  0  0
 14 16  1  0  0  0  0
 14 17  1  0  0  0  0
 17 18  1  0  0  0  0
 17 19  1  0  0  0  0
 17 20  1  0  0  0  0
M  END
> <VConfSearch Rank>
209

> <Conf_Id>
35

> <Delta U+W>
3.004

> <U+W>
-33.272

> <U>
25.367

> <W>
-58.639

> <W(PB)>
-60.512

> <W(SA)>
1.873

> <Valence>
4.943

> <Coulomb>
19.661

> <VdW>
0.764

> <VdW6>
-5.871

> <VdW12>
6.636

> <Bond>
0.230

> <Angle>
1.857

> <Pdih>
2.855

> <Idih>
0.000

> <Tether>
0.000

$$$$
VeraChem MOL file


 20 19  0  0  0  0  0  0  0  0999 V2000     
   20.2919   20.0771   21.3891 N   0  3  0  0  0  0  0  0  0  0  0  0
   20.2465   21.0772   21.1761 H   0  0  0  0  0  0  0  0  0  0  0  0
   20.4713   19.5861   20.5091 H   0  0  0  0  0  0  0  0  0  0  0  0
   21.1010   19.9256   21.9944 H   0  0  0  0  0  0  0  0  0  0  0  0
   19.0258   19.5936   22.0415 C   0  0  2  0  0  0  0  0  0  0  0  0
   18.2344   19.7764   21.3078 H   0  0  0  0  0  0  0  0  0  0  0  0
   18.6886   20.4207   23.2947 C   0  0  0  0  0  0  0  0  0  0  0  0
   19.4863   20.3629   24.0447 H   0  0  0  0  0  0  0  0  0  0  0  0
   17.7572   20.0678   23.7545 H   0  0  0  0  0  0  0  0  0  0  0  0
   18.5507   21.4767   23.0325 H   0  0  0  0  0  0  0  0  0  0  0  0
   19.0319   18.0692   22.3235 C   0  0  0  0  0  0  0  0  0  0  0  0
   17.9928   17.7589   22.4950 H   0  0  0  0  0  0  0  0  0  0  0  0
   19.3468   17.5407   21.4142 H   0  0  0  0  0  0  0  0  0  0  0  0
   19.8809   17.5700   23.5263 C   0  0  0  0  0  0  0  0  0  0  0  0
   19.7398   16.4836   23.6133 H   0  0  0  0  0  0  0  0  0  0  0  0
   19.4973   17.9926   24.4648 H   0  0  0  0  0  0  0  0  0  0  0  0
   21.3957   17.8542   23.4091 C   0  0  0  0  0  0  0  0  0  0  0  0
   21.7902   17.5183   22.4413 H   0  0  0  0  0  0  0  0  0  0  0  0
   21.9443   17.3193   24.1953 H   0  0  0  0  0  0  0  0  0  0  0  0
   21.6171   18.9205   23.5318 H   0  0  0  0  0  0  0  0  0  0  0  0
  1  2  1  0  0  0  0
  1  3  1  0  0  0  0
  1  4  1  0  0  0  0
  1  5  1  0  0  0  0
  5  6  1  0  0  0  0
  5  7  1  0  0  0  0
  7  8  1  0  0  0  0
  7  9  1  0  0  0  0
  7 10  1  0  0  0  0
  5 11  1  0  0  0  0
 11 12  1  0  0  0  0
 11 13  1  0  0  0  0
 11 14  1  0  0  0  0
 14 15  1  0  0  0  0
 14 16  1  0  0  0  0
 14 17  1  0  0  0  0
 17 18  1  0  0  0  0
 17 19  1  0  0  0  0
 17 20  1  0  0  0  0
M  END
> <VConfSearch Rank>
210

> <Conf_Id>
55

> <Delta U+W>
2.767

> <U+W>
-33.509

> <U>
24.552

> <W>
-58.061

> <W(PB)>
-59.930

> <W(SA)>
1.869

> <Valence>
3.726

> <Coulomb>
20.219

> <VdW>
0.606

> <VdW6>
-6.395

> <VdW12>
7.001

> <Bond>
0.241

> <Angle>
2.098

> <Pdih>
1.387

> <Idih>
0.000

> <Tether>
0.000

$$$$
VeraChem MOL file


 20 19  0  0  0  0  0  0  0  0999 V2000     
   18.4279   20.2604   22.0491 N   0  3  0  0  0  0  0  0  0  0  0  0
   17.5860   19.7151   22.2502 H   0  0  0  0  0  0  0  0  0  0  0  0
   18.1958   20.9137   21.2961 H   0  0  0  0  0  0  0  0  0  0  0  0
   18.6390   20.8180   22.8805 H   0  0  0  0  0  0  0  0  0  0  0  0
   19.5829   19.3725   21.6716 C   0  0  2  0  0  0  0  0  0  0  0  0
   20.4360   20.0305   21.4788 H   0  0  0  0  0  0  0  0  0  0  0  0
   19.2701   18.5995   20.3798 C   0  0  0  0  0  0  0  0  0  0  0  0
   19.0289   19.2903   19.5625 H   0  0  0  0  0  0  0  0  0  0  0  0
   18.4177   17.9227   20.5181 H   0  0  0  0  0  0  0  0  0  0  0  0
   20.1338   18.0009   20.0645 H   0  0  0  0  0  0  0  0  0  0  0  0
   19.9736   18.3942   22.8014 C   0  0  0  0  0  0  0  0  0  0  0  0
   19.1247   17.7365   23.0310 H   0  0  0  0  0  0  0  0  0  0  0  0
   20.7840   17.7453   22.4435 H   0  0  0  0  0  0  0  0  0  0  0  0
   20.4421   19.1127   24.0897 C   0  0  0  0  0  0  0  0  0  0  0  0
   19.6284   19.7260   24.4999 H   0  0  0  0  0  0  0  0  0  0  0  0
   21.2683   19.7976   23.8521 H   0  0  0  0  0  0  0  0  0  0  0  0
   20.9049   18.1079   25.1665 C   0  0  0  0  0  0  0  0  0  0  0  0
   20.0906   17.4275   25.4479 H   0  0  0  0  0  0  0  0  0  0  0  0
   21.2321   18.6340   26.0727 H   0  0  0  0  0  0  0  0  0  0  0  0
   21.7471   17.5025   24.8068 H   0  0  0  0  0  0  0  0  0  0  0  0
  1  2  1  0  0  0  0
  1  3  1  0  0  0  0
  1  4  1  0  0  0  0
  1  5  1  0  0  0  0
  5  6  1  0  0  0  0
  5  7  1  0  0  0  0
  7  8  1  0  0  0  0
  7  9  1  0  0  0  0
  7 10  1  0  0  0  0
  5 11  1  0  0  0  0
 11 12  1  0  0  0  0
 11 13  1  0  0  0  0
 11 14  1  0  0  0  0
 14 15  1  0  0  0  0
 14 16  1  0  0  0  0
 14 17  1  0  0  0  0
 17 18  1  0  0  0  0
 17 19  1  0  0  0  0
 17 20  1  0  0  0  0
M  END
> <VConfSearch Rank>
211

> <Conf_Id>
74

> <Delta U+W>
0.000

> <U+W>
-36.276

> <U>
22.080

> <W>
-58.356

> <W(PB)>
-60.289

> <W(SA)>
1.932

> <Valence>
1.885

> <Coulomb>
19.559

> <VdW>
0.637

> <VdW6>
-4.482

> <VdW12>
5.119

> <Bond>
0.136

> <Angle>
0.867

> <Pdih>
0.882

> <Idih>
0.000

> <Tether>
0.000

$$$$
VeraChem MOL file


 20 19  0  0  0  0  0  0  0  0999 V2000     
   21.1489   17.0492   23.1479 N   0  3  0  0  0  0  0  0  0  0  0  0
   21.9793   17.4958   23.5464 H   0  0  0  0  0  0  0  0  0  0  0  0
   21.3661   16.8092   22.1774 H   0  0  0  0  0  0  0  0  0  0  0  0
   21.0061   16.1709   23.6537 H   0  0  0  0  0  0  0  0  0  0  0  0
   19.9407   17.9404   23.2397 C   0  0  2  0  0  0  0  0  0  0  0  0
   19.7850   18.1396   24.3046 H   0  0  0  0  0  0  0  0  0  0  0  0
   18.6980   17.2128   22.6946 C   0  0  0  0  0  0  0  0  0  0  0  0
   18.5771   16.2371   23.1811 H   0  0  0  0  0  0  0  0  0  0  0  0
   18.7779   17.0458   21.6133 H   0  0  0  0  0  0  0  0  0  0  0  0
   17.7835   17.7853   22.8875 H   0  0  0  0  0  0  0  0  0  0  0  0
   20.1857   19.2903   22.5261 C   0  0  0  0  0  0  0  0  0  0  0  0
   21.1391   19.7031   22.8817 H   0  0  0  0  0  0  0  0  0  0  0  0
   20.3032   19.1223   21.4473 H   0  0  0  0  0  0  0  0  0  0  0  0
   19.0738   20.3391   22.7728 C   0  0  0  0  0  0  0  0  0  0  0  0
   18.9123   20.4610   23.8531 H   0  0  0  0  0  0  0  0  0  0  0  0
   18.1229   19.9942   22.3453 H   0  0  0  0  0  0  0  0  0  0  0  0
   19.4324   21.7063   22.1517 C   0  0  0  0  0  0  0  0  0  0  0  0
   20.3577   22.1077   22.5853 H   0  0  0  0  0  0  0  0  0  0  0  0
   18.6325   22.4360   22.3326 H   0  0  0  0  0  0  0  0  0  0  0  0
   19.5721   21.6223   21.0660 H   0  0  0  0  0  0  0  0  0  0  0  0
  1  2  1  0  0  0  0
  1  3  1  0  0  0  0
  1  4  1  0  0  0  0
  1  5  1  0  0  0  0
  5  6  1  0  0  0  0
  5  7  1  0  0  0  0
  7  8  1  0  0  0  0
  7  9  1  0  0  0  0
  7 10  1  0  0  0  0
  5 11  1  0  0  0  0
 11 12  1  0  0  0  0
 11 13  1  0  0  0  0
 11 14  1  0  0  0  0
 14 15  1  0  0  0  0
 14 16  1  0  0  0  0
 14 17  1  0  0  0  0
 17 18  1  0  0  0  0
 17 19  1  0  0  0  0
 17 20  1  0  0  0  0
M  END
> <VConfSearch Rank>
212

> <Conf_Id>
80

> <Delta U+W>
0.460

> <U+W>
-35.817

> <U>
22.495

> <W>
-58.311

> <W(PB)>
-60.259

> <W(SA)>
1.948

> <Valence>
2.419

> <Coulomb>
19.304

> <VdW>
0.772

> <VdW6>
-4.635

> <VdW12>
5.407

> <Bond>
0.149

> <Angle>
1.142

> <Pdih>
1.129

> <Idih>
0.000

> <Tether>
0.000

$$$$
VeraChem MOL file


 20 19  0  0  0  0  0  0  0  0999 V2000     
   18.3739   18.9206   24.6930 N   0  3  0  0  0  0  0  0  0  0  0  0
   18.4874   19.7973   25.2091 H   0  0  0  0  0  0  0  0  0  0  0  0
   18.9077   18.2020   25.1884 H   0  0  0  0  0  0  0  0  0  0  0  0
   17.3857   18.6606   24.7526 H   0  0  0  0  0  0  0  0  0  0  0  0
   18.8229   19.0548   23.2636 C   0  0  2  0  0  0  0  0  0  0  0  0
   18.1970   19.8343   22.8180 H   0  0  0  0  0  0  0  0  0  0  0  0
   18.5689   17.7435   22.5006 C   0  0  0  0  0  0  0  0  0  0  0  0
   17.5379   17.4009   22.6514 H   0  0  0  0  0  0  0  0  0  0  0  0
   19.2453   16.9487   22.8385 H   0  0  0  0  0  0  0  0  0  0  0  0
   18.7060   17.8839   21.4224 H   0  0  0  0  0  0  0  0  0  0  0  0
   20.2976   19.5203   23.1858 C   0  0  0  0  0  0  0  0  0  0  0  0
   20.3861   20.4355   23.7860 H   0  0  0  0  0  0  0  0  0  0  0  0
   20.9540   18.7833   23.6671 H   0  0  0  0  0  0  0  0  0  0  0  0
   20.8089   19.8420   21.7565 C   0  0  0  0  0  0  0  0  0  0  0  0
   21.4862   20.7058   21.8130 H   0  0  0  0  0  0  0  0  0  0  0  0
   19.9744   20.1557   21.1137 H   0  0  0  0  0  0  0  0  0  0  0  0
   21.5829   18.6730   21.1027 C   0  0  0  0  0  0  0  0  0  0  0  0
   22.4629   18.4026   21.7007 H   0  0  0  0  0  0  0  0  0  0  0  0
   21.9357   18.9577   20.1030 H   0  0  0  0  0  0  0  0  0  0  0  0
   20.9625   17.7767   20.9925 H   0  0  0  0  0  0  0  0  0  0  0  0
  1  2  1  0  0  0  0
  1  3  1  0  0  0  0
  1  4  1  0  0  0  0
  1  5  1  0  0  0  0
  5  6  1  0  0  0  0
  5  7  1  0  0  0  0
  7  8  1  0  0  0  0
  7  9  1  0  0  0  0
  7 10  1  0  0  0  0
  5 11  1  0  0  0  0
 11 12  1  0  0  0  0
 11 13  1  0  0  0  0
 11 14  1  0  0  0  0
 14 15  1  0  0  0  0
 14 16  1  0  0  0  0
 14 17  1  0  0  0  0
 17 18  1  0  0  0  0
 17 19  1  0  0  0  0
 17 20  1  0  0  0  0
M  END
> <VConfSearch Rank>
213

> <Conf_Id>
52

> <Delta U+W>
2.995

> <U+W>
-33.282

> <U>
25.224

> <W>
-58.506

> <W(PB)>
-60.411

> <W(SA)>
1.905

> <Valence>
4.945

> <Coulomb>
19.467

> <VdW>
0.813

> <VdW6>
-5.458

> <VdW12>
6.270

> <Bond>
0.200

> <Angle>
1.675

> <Pdih>
3.070

> <Idih>
0.000

> <Tether>
0.000

$$$$
VeraChem MOL file


 20 19  0  0  0  0  0  0  0  0999 V2000     
   18.3467   19.5102   22.1001 N   0  3  0  0  0  0  0  0  0  0  0  0
   17.6268   19.0953   22.6967 H   0  0  0  0  0  0  0  0  0  0  0  0
   17.9082   19.7357   21.2032 H   0  0  0  0  0  0  0  0  0  0  0  0
   18.6335   20.3904   22.5339 H   0  0  0  0  0  0  0  0  0  0  0  0
   19.5167   18.5809   21.9252 C   0  0  2  0  0  0  0  0  0  0  0  0
   20.2173   19.0701   21.2413 H   0  0  0  0  0  0  0  0  0  0  0  0
   19.0475   17.2683   21.2750 C   0  0  0  0  0  0  0  0  0  0  0  0
   18.3520   16.7277   21.9291 H   0  0  0  0  0  0  0  0  0  0  0  0
   19.8994   16.6102   21.0634 H   0  0  0  0  0  0  0  0  0  0  0  0
   18.5385   17.4659   20.3236 H   0  0  0  0  0  0  0  0  0  0  0  0
   20.2562   18.2909   23.2530 C   0  0  0  0  0  0  0  0  0  0  0  0
   19.5311   18.0397   24.0383 H   0  0  0  0  0  0  0  0  0  0  0  0
   20.8762   17.3943   23.1198 H   0  0  0  0  0  0  0  0  0  0  0  0
   21.1948   19.4277   23.7364 C   0  0  0  0  0  0  0  0  0  0  0  0
   21.9468   19.6406   22.9636 H   0  0  0  0  0  0  0  0  0  0  0  0
   21.7536   19.0620   24.6093 H   0  0  0  0  0  0  0  0  0  0  0  0
   20.4770   20.7381   24.1325 C   0  0  0  0  0  0  0  0  0  0  0  0
   21.1747   21.4113   24.6476 H   0  0  0  0  0  0  0  0  0  0  0  0
   19.6386   20.5442   24.8143 H   0  0  0  0  0  0  0  0  0  0  0  0
   20.1046   21.2768   23.2535 H   0  0  0  0  0  0  0  0  0  0  0  0
  1  2  1  0  0  0  0
  1  3  1  0  0  0  0
  1  4  1  0  0  0  0
  1  5  1  0  0  0  0
  5  6  1  0  0  0  0
  5  7  1  0  0  0  0
  7  8  1  0  0  0  0
  7  9  1  0  0  0  0
  7 10  1  0  0  0  0
  5 11  1  0  0  0  0
 11 12  1  0  0  0  0
 11 13  1  0  0  0  0
 11 14  1  0  0  0  0
 14 15  1  0  0  0  0
 14 16  1  0  0  0  0
 14 17  1  0  0  0  0
 17 18  1  0  0  0  0
 17 19  1  0  0  0  0
 17 20  1  0  0  0  0
M  END
> <VConfSearch Rank>
214

> <Conf_Id>
54

> <Delta U+W>
2.752

> <U+W>
-33.525

> <U>
24.337

> <W>
-57.862

> <W(PB)>
-59.764

> <W(SA)>
1.901

> <Valence>
3.593

> <Coulomb>
20.067

> <VdW>
0.677

> <VdW6>
-5.466

> <VdW12>
6.144

> <Bond>
0.191

> <Angle>
1.557

> <Pdih>
1.845

> <Idih>
0.000

> <Tether>
0.000

$$$$
VeraChem MOL file


 20 19  0  0  0  0  0  0  0  0999 V2000     
   21.4098   19.6766   23.7040 N   0  3  0  0  0  0  0  0  0  0  0  0
   21.9494   19.6080   24.5711 H   0  0  0  0  0  0  0  0  0  0  0  0
   21.5146   20.6335   23.3561 H   0  0  0  0  0  0  0  0  0  0  0  0
   21.8467   19.0522   23.0224 H   0  0  0  0  0  0  0  0  0  0  0  0
   19.9641   19.3237   23.9257 C   0  0  2  0  0  0  0  0  0  0  0  0
   19.5920   20.0288   24.6757 H   0  0  0  0  0  0  0  0  0  0  0  0
   19.8241   17.9073   24.5114 C   0  0  0  0  0  0  0  0  0  0  0  0
   18.7687   17.6532   24.6698 H   0  0  0  0  0  0  0  0  0  0  0  0
   20.3305   17.8420   25.4822 H   0  0  0  0  0  0  0  0  0  0  0  0
   20.2651   17.1499   23.8526 H   0  0  0  0  0  0  0  0  0  0  0  0
   19.1053   19.5144   22.6524 C   0  0  0  0  0  0  0  0  0  0  0  0
   18.0531   19.3283   22.9053 H   0  0  0  0  0  0  0  0  0  0  0  0
   19.1605   20.5688   22.3514 H   0  0  0  0  0  0  0  0  0  0  0  0
   19.5086   18.6208   21.4511 C   0  0  0  0  0  0  0  0  0  0  0  0
   19.4100   17.5598   21.7166 H   0  0  0  0  0  0  0  0  0  0  0  0
   20.5624   18.7879   21.1909 H   0  0  0  0  0  0  0  0  0  0  0  0
   18.6332   18.9083   20.2124 C   0  0  0  0  0  0  0  0  0  0  0  0
   18.9286   18.2674   19.3716 H   0  0  0  0  0  0  0  0  0  0  0  0
   18.7343   19.9530   19.8905 H   0  0  0  0  0  0  0  0  0  0  0  0
   17.5731   18.7173   20.4247 H   0  0  0  0  0  0  0  0  0  0  0  0
  1  2  1  0  0  0  0
  1  3  1  0  0  0  0
  1  4  1  0  0  0  0
  1  5  1  0  0  0  0
  5  6  1  0  0  0  0
  5  7  1  0  0  0  0
  7  8  1  0  0  0  0
  7  9  1  0  0  0  0
  7 10  1  0  0  0  0
  5 11  1  0  0  0  0
 11 12  1  0  0  0  0
 11 13  1  0  0  0  0
 11 14  1  0  0  0  0
 14 15  1  0  0  0  0
 14 16  1  0  0  0  0
 14 17  1  0  0  0  0
 17 18  1  0  0  0  0
 17 19  1  0  0  0  0
 17 20  1  0  0  0  0
M  END
> <VConfSearch Rank>
215

> <Conf_Id>
63

> <Delta U+W>
0.420

> <U+W>
-35.856

> <U>
22.625

> <W>
-58.481

> <W(PB)>
-60.400

> <W(SA)>
1.919

> <Valence>
2.404

> <Coulomb>
19.464

> <VdW>
0.757

> <VdW6>
-5.074

> <VdW12>
5.830

> <Bond>
0.172

> <Angle>
1.207

> <Pdih>
1.025

> <Idih>
0.000

> <Tether>
0.000

$$$$
VeraChem MOL file


 20 19  0  0  0  0  0  0  0  0999 V2000     
   19.5516   20.6926   22.3295 N   0  3  0  0  0  0  0  0  0  0  0  0
   20.4260   20.5377   21.8214 H   0  0  0  0  0  0  0  0  0  0  0  0
   19.7655   21.2813   23.1383 H   0  0  0  0  0  0  0  0  0  0  0  0
   18.9323   21.2289   21.7160 H   0  0  0  0  0  0  0  0  0  0  0  0
   18.9233   19.3905   22.7464 C   0  0  2  0  0  0  0  0  0  0  0  0
   18.7259   18.8283   21.8288 H   0  0  0  0  0  0  0  0  0  0  0  0
   17.5810   19.6372   23.4541 C   0  0  0  0  0  0  0  0  0  0  0  0
   16.8992   20.2029   22.8074 H   0  0  0  0  0  0  0  0  0  0  0  0
   17.7196   20.2038   24.3833 H   0  0  0  0  0  0  0  0  0  0  0  0
   17.0913   18.6875   23.7031 H   0  0  0  0  0  0  0  0  0  0  0  0
   19.8562   18.5441   23.6421 C   0  0  0  0  0  0  0  0  0  0  0  0
   20.0533   19.0853   24.5770 H   0  0  0  0  0  0  0  0  0  0  0  0
   19.3360   17.6198   23.9269 H   0  0  0  0  0  0  0  0  0  0  0  0
   21.2061   18.1702   22.9788 C   0  0  0  0  0  0  0  0  0  0  0  0
   21.7964   17.5767   23.6910 H   0  0  0  0  0  0  0  0  0  0  0  0
   21.7953   19.0755   22.7796 H   0  0  0  0  0  0  0  0  0  0  0  0
   21.0359   17.3608   21.6729 C   0  0  0  0  0  0  0  0  0  0  0  0
   20.4491   16.4495   21.8473 H   0  0  0  0  0  0  0  0  0  0  0  0
   22.0143   17.0580   21.2780 H   0  0  0  0  0  0  0  0  0  0  0  0
   20.5330   17.9485   20.8947 H   0  0  0  0  0  0  0  0  0  0  0  0
  1  2  1  0  0  0  0
  1  3  1  0  0  0  0
  1  4  1  0  0  0  0
  1  5  1  0  0  0  0
  5  6  1  0  0  0  0
  5  7  1  0  0  0  0
  7  8  1  0  0  0  0
  7  9  1  0  0  0  0
  7 10  1  0  0  0  0
  5 11  1  0  0  0  0
 11 12  1  0  0  0  0
 11 13  1  0  0  0  0
 11 14  1  0  0  0  0
 14 15  1  0  0  0  0
 14 16  1  0  0  0  0
 14 17  1  0  0  0  0
 17 18  1  0  0  0  0
 17 19  1  0  0  0  0
 17 20  1  0  0  0  0
M  END
> <VConfSearch Rank>
216

> <Conf_Id>
50

> <Delta U+W>
0.466

> <U+W>
-35.811

> <U>
22.369

> <W>
-58.180

> <W(PB)>
-60.103

> <W(SA)>
1.923

> <Valence>
2.168

> <Coulomb>
19.636

> <VdW>
0.566

> <VdW6>
-5.263

> <VdW12>
5.829

> <Bond>
0.162

> <Angle>
1.066

> <Pdih>
0.939

> <Idih>
0.000

> <Tether>
0.000

$$$$
VeraChem MOL file


 20 19  0  0  0  0  0  0  0  0999 V2000     
   19.6156   20.2595   20.9004 N   0  3  0  0  0  0  0  0  0  0  0  0
   18.7732   19.9652   20.3987 H   0  0  0  0  0  0  0  0  0  0  0  0
   20.4210   20.0127   20.3197 H   0  0  0  0  0  0  0  0  0  0  0  0
   19.5881   21.2808   20.9640 H   0  0  0  0  0  0  0  0  0  0  0  0
   19.7007   19.6250   22.2623 C   0  0  2  0  0  0  0  0  0  0  0  0
   18.8031   19.9416   22.8025 H   0  0  0  0  0  0  0  0  0  0  0  0
   20.9392   20.1505   23.0118 C   0  0  0  0  0  0  0  0  0  0  0  0
   21.8626   19.8951   22.4772 H   0  0  0  0  0  0  0  0  0  0  0  0
   21.0079   19.7302   24.0210 H   0  0  0  0  0  0  0  0  0  0  0  0
   20.8963   21.2421   23.1110 H   0  0  0  0  0  0  0  0  0  0  0  0
   19.6938   18.0785   22.1810 C   0  0  0  0  0  0  0  0  0  0  0  0
   19.3258   17.7722   21.1929 H   0  0  0  0  0  0  0  0  0  0  0  0
   20.7172   17.6862   22.2497 H   0  0  0  0  0  0  0  0  0  0  0  0
   18.7902   17.3985   23.2407 C   0  0  0  0  0  0  0  0  0  0  0  0
   18.7876   16.3151   23.0563 H   0  0  0  0  0  0  0  0  0  0  0  0
   17.7518   17.7330   23.1071 H   0  0  0  0  0  0  0  0  0  0  0  0
   19.2265   17.6528   24.7006 C   0  0  0  0  0  0  0  0  0  0  0  0
   20.2752   17.3680   24.8562 H   0  0  0  0  0  0  0  0  0  0  0  0
   18.6131   17.0613   25.3925 H   0  0  0  0  0  0  0  0  0  0  0  0
   19.1067   18.7078   24.9769 H   0  0  0  0  0  0  0  0  0  0  0  0
  1  2  1  0  0  0  0
  1  3  1  0  0  0  0
  1  4  1  0  0  0  0
  1  5  1  0  0  0  0
  5  6  1  0  0  0  0
  5  7  1  0  0  0  0
  7  8  1  0  0  0  0
  7  9  1  0  0  0  0
  7 10  1  0  0  0  0
  5 11  1  0  0  0  0
 11 12  1  0  0  0  0
 11 13  1  0  0  0  0
 11 14  1  0  0  0  0
 14 15  1  0  0  0  0
 14 16  1  0  0  0  0
 14 17  1  0  0  0  0
 17 18  1  0  0  0  0
 17 19  1  0  0  0  0
 17 20  1  0  0  0  0
M  END
> <VConfSearch Rank>
217

> <Conf_Id>
3

> <Delta U+W>
3.093

> <U+W>
-33.184

> <U>
25.256

> <W>
-58.439

> <W(PB)>
-60.337

> <W(SA)>
1.898

> <Valence>
4.963

> <Coulomb>
19.511

> <VdW>
0.782

> <VdW6>
-5.429

> <VdW12>
6.211

> <Bond>
0.174

> <Angle>
1.377

> <Pdih>
3.412

> <Idih>
0.000

> <Tether>
0.000

$$$$
VeraChem MOL file


 20 19  0  0  0  0  0  0  0  0999 V2000     
   17.5424   18.9435   23.5687 N   0  3  0  0  0  0  0  0  0  0  0  0
   16.7632   19.3946   23.0818 H   0  0  0  0  0  0  0  0  0  0  0  0
   17.6344   19.4002   24.4801 H   0  0  0  0  0  0  0  0  0  0  0  0
   17.2726   17.9715   23.7389 H   0  0  0  0  0  0  0  0  0  0  0  0
   18.8152   19.0322   22.7720 C   0  0  2  0  0  0  0  0  0  0  0  0
   19.0192   20.0988   22.6380 H   0  0  0  0  0  0  0  0  0  0  0  0
   18.6232   18.3958   21.3834 C   0  0  0  0  0  0  0  0  0  0  0  0
   19.4928   18.5745   20.7404 H   0  0  0  0  0  0  0  0  0  0  0  0
   17.7513   18.8278   20.8772 H   0  0  0  0  0  0  0  0  0  0  0  0
   18.4695   17.3123   21.4609 H   0  0  0  0  0  0  0  0  0  0  0  0
   20.0018   18.4032   23.5405 C   0  0  0  0  0  0  0  0  0  0  0  0
   20.0382   18.8382   24.5479 H   0  0  0  0  0  0  0  0  0  0  0  0
   19.8168   17.3297   23.6791 H   0  0  0  0  0  0  0  0  0  0  0  0
   21.3890   18.5961   22.8759 C   0  0  0  0  0  0  0  0  0  0  0  0
   21.4323   18.0575   21.9197 H   0  0  0  0  0  0  0  0  0  0  0  0
   22.1531   18.1331   23.5158 H   0  0  0  0  0  0  0  0  0  0  0  0
   21.7538   20.0819   22.6556 C   0  0  0  0  0  0  0  0  0  0  0  0
   21.7145   20.6423   23.5988 H   0  0  0  0  0  0  0  0  0  0  0  0
   21.0733   20.5628   21.9417 H   0  0  0  0  0  0  0  0  0  0  0  0
   22.7716   20.1726   22.2544 H   0  0  0  0  0  0  0  0  0  0  0  0
  1  2  1  0  0  0  0
  1  3  1  0  0  0  0
  1  4  1  0  0  0  0
  1  5  1  0  0  0  0
  5  6  1  0  0  0  0
  5  7  1  0  0  0  0
  7  8  1  0  0  0  0
  7  9  1  0  0  0  0
  7 10  1  0  0  0  0
  5 11  1  0  0  0  0
 11 12  1  0  0  0  0
 11 13  1  0  0  0  0
 11 14  1  0  0  0  0
 14 15  1  0  0  0  0
 14 16  1  0  0  0  0
 14 17  1  0  0  0  0
 17 18  1  0  0  0  0
 17 19  1  0  0  0  0
 17 20  1  0  0  0  0
M  END
> <VConfSearch Rank>
218

> <Conf_Id>
64

> <Delta U+W>
0.544

> <U+W>
-35.732

> <U>
22.800

> <W>
-58.532

> <W(PB)>
-60.437

> <W(SA)>
1.905

> <Valence>
2.662

> <Coulomb>
19.485

> <VdW>
0.653

> <VdW6>
-5.460

> <VdW12>
6.113

> <Bond>
0.174

> <Angle>
1.378

> <Pdih>
1.109

> <Idih>
0.000

> <Tether>
0.000

$$$$
VeraChem MOL file


 20 19  0  0  0  0  0  0  0  0999 V2000     
   19.8221   19.4710   24.7376 N   0  3  0  0  0  0  0  0  0  0  0  0
   19.5646   20.3517   24.2867 H   0  0  0  0  0  0  0  0  0  0  0  0
   20.5711   19.6765   25.4042 H   0  0  0  0  0  0  0  0  0  0  0  0
   19.0128   19.1547   25.2785 H   0  0  0  0  0  0  0  0  0  0  0  0
   20.2509   18.4401   23.7285 C   0  0  2  0  0  0  0  0  0  0  0  0
   20.5139   17.5480   24.3055 H   0  0  0  0  0  0  0  0  0  0  0  0
   21.5168   18.8952   22.9841 C   0  0  0  0  0  0  0  0  0  0  0  0
   21.3660   19.8617   22.4893 H   0  0  0  0  0  0  0  0  0  0  0  0
   21.8122   18.1575   22.2279 H   0  0  0  0  0  0  0  0  0  0  0  0
   22.3534   19.0066   23.6845 H   0  0  0  0  0  0  0  0  0  0  0  0
   19.1000   18.0366   22.7727 C   0  0  0  0  0  0  0  0  0  0  0  0
   19.4086   17.1667   22.1780 H   0  0  0  0  0  0  0  0  0  0  0  0
   18.2678   17.6800   23.3938 H   0  0  0  0  0  0  0  0  0  0  0  0
   18.5632   19.1528   21.8340 C   0  0  0  0  0  0  0  0  0  0  0  0
   18.6558   20.1398   22.3060 H   0  0  0  0  0  0  0  0  0  0  0  0
   17.4861   18.9920   21.6860 H   0  0  0  0  0  0  0  0  0  0  0  0
   19.2343   19.1641   20.4404 C   0  0  0  0  0  0  0  0  0  0  0  0
   20.3096   19.3645   20.5005 H   0  0  0  0  0  0  0  0  0  0  0  0
   18.7884   19.9417   19.8067 H   0  0  0  0  0  0  0  0  0  0  0  0
   19.0972   18.2017   19.9304 H   0  0  0  0  0  0  0  0  0  0  0  0
  1  2  1  0  0  0  0
  1  3  1  0  0  0  0
  1  4  1  0  0  0  0
  1  5  1  0  0  0  0
  5  6  1  0  0  0  0
  5  7  1  0  0  0  0
  7  8  1  0  0  0  0
  7  9  1  0  0  0  0
  7 10  1  0  0  0  0
  5 11  1  0  0  0  0
 11 12  1  0  0  0  0
 11 13  1  0  0  0  0
 11 14  1  0  0  0  0
 14 15  1  0  0  0  0
 14 16  1  0  0  0  0
 14 17  1  0  0  0  0
 17 18  1  0  0  0  0
 17 19  1  0  0  0  0
 17 20  1  0  0  0  0
M  END
> <VConfSearch Rank>
219

> <Conf_Id>
35

> <Delta U+W>
3.004

> <U+W>
-33.272

> <U>
25.367

> <W>
-58.639

> <W(PB)>
-60.512

> <W(SA)>
1.873

> <Valence>
4.943

> <Coulomb>
19.661

> <VdW>
0.764

> <VdW6>
-5.871

> <VdW12>
6.636

> <Bond>
0.230

> <Angle>
1.857

> <Pdih>
2.855

> <Idih>
0.000

> <Tether>
0.000

$$$$
VeraChem MOL file


 20 19  0  0  0  0  0  0  0  0999 V2000     
   18.4985   20.1747   22.8366 N   0  3  0  0  0  0  0  0  0  0  0  0
   17.4956   20.1965   23.0402 H   0  0  0  0  0  0  0  0  0  0  0  0
   18.7372   21.0622   22.3862 H   0  0  0  0  0  0  0  0  0  0  0  0
   18.9953   20.1410   23.7288 H   0  0  0  0  0  0  0  0  0  0  0  0
   18.8599   19.0014   21.9676 C   0  0  2  0  0  0  0  0  0  0  0  0
   18.3003   19.1465   21.0383 H   0  0  0  0  0  0  0  0  0  0  0  0
   18.3829   17.6758   22.5872 C   0  0  0  0  0  0  0  0  0  0  0  0
   18.8324   17.5044   23.5725 H   0  0  0  0  0  0  0  0  0  0  0  0
   18.6403   16.8288   21.9392 H   0  0  0  0  0  0  0  0  0  0  0  0
   17.2932   17.6800   22.7118 H   0  0  0  0  0  0  0  0  0  0  0  0
   20.3620   18.9684   21.5857 C   0  0  0  0  0  0  0  0  0  0  0  0
   20.4716   18.2944   20.7260 H   0  0  0  0  0  0  0  0  0  0  0  0
   20.6569   19.9597   21.2173 H   0  0  0  0  0  0  0  0  0  0  0  0
   21.3660   18.5089   22.6800 C   0  0  0  0  0  0  0  0  0  0  0  0
   22.3711   18.4993   22.2356 H   0  0  0  0  0  0  0  0  0  0  0  0
   21.1630   17.4693   22.9709 H   0  0  0  0  0  0  0  0  0  0  0  0
   21.4017   19.4037   23.9398 C   0  0  0  0  0  0  0  0  0  0  0  0
   21.5179   20.4623   23.6733 H   0  0  0  0  0  0  0  0  0  0  0  0
   22.2506   19.1267   24.5784 H   0  0  0  0  0  0  0  0  0  0  0  0
   20.4944   19.2873   24.5435 H   0  0  0  0  0  0  0  0  0  0  0  0
  1  2  1  0  0  0  0
  1  3  1  0  0  0  0
  1  4  1  0  0  0  0
  1  5  1  0  0  0  0
  5  6  1  0  0  0  0
  5  7  1  0  0  0  0
  7  8  1  0  0  0  0
  7  9  1  0  0  0  0
  7 10  1  0  0  0  0
  5 11  1  0  0  0  0
 11 12  1  0  0  0  0
 11 13  1  0  0  0  0
 11 14  1  0  0  0  0
 14 15  1  0  0  0  0
 14 16  1  0  0  0  0
 14 17  1  0  0  0  0
 17 18  1  0  0  0  0
 17 19  1  0  0  0  0
 17 20  1  0  0  0  0
M  END
> <VConfSearch Rank>
220

> <Conf_Id>
55

> <Delta U+W>
2.767

> <U+W>
-33.509

> <U>
24.552

> <W>
-58.061

> <W(PB)>
-59.930

> <W(SA)>
1.869

> <Valence>
3.726

> <Coulomb>
20.219

> <VdW>
0.606

> <VdW6>
-6.395

> <VdW12>
7.001

> <Bond>
0.241

> <Angle>
2.098

> <Pdih>
1.387

> <Idih>
0.000

> <Tether>
0.000

$$$$
VeraChem MOL file


 20 19  0  0  0  0  0  0  0  0999 V2000     
   20.2504   20.0062   24.3082 N   0  3  0  0  0  0  0  0  0  0  0  0
   21.2650   19.9382   24.1967 H   0  0  0  0  0  0  0  0  0  0  0  0
   20.0631   20.1775   25.2998 H   0  0  0  0  0  0  0  0  0  0  0  0
   19.9392   20.8335   23.7931 H   0  0  0  0  0  0  0  0  0  0  0  0
   19.5577   18.7610   23.8239 C   0  0  2  0  0  0  0  0  0  0  0  0
   18.4851   18.9186   23.9743 H   0  0  0  0  0  0  0  0  0  0  0  0
   19.9870   17.5442   24.6600 C   0  0  0  0  0  0  0  0  0  0  0  0
   19.7823   17.7126   25.7245 H   0  0  0  0  0  0  0  0  0  0  0  0
   21.0593   17.3420   24.5461 H   0  0  0  0  0  0  0  0  0  0  0  0
   19.4358   16.6464   24.3539 H   0  0  0  0  0  0  0  0  0  0  0  0
   19.8002   18.4929   22.3220 C   0  0  0  0  0  0  0  0  0  0  0  0
   20.8742   18.3543   22.1398 H   0  0  0  0  0  0  0  0  0  0  0  0
   19.3120   17.5482   22.0476 H   0  0  0  0  0  0  0  0  0  0  0  0
   19.2559   19.6188   21.4101 C   0  0  0  0  0  0  0  0  0  0  0  0
   19.7699   20.5649   21.6268 H   0  0  0  0  0  0  0  0  0  0  0  0
   18.1889   19.7811   21.6189 H   0  0  0  0  0  0  0  0  0  0  0  0
   19.4382   19.2795   19.9151 C   0  0  0  0  0  0  0  0  0  0  0  0
   20.4988   19.1411   19.6680 H   0  0  0  0  0  0  0  0  0  0  0  0
   19.0484   20.0884   19.2837 H   0  0  0  0  0  0  0  0  0  0  0  0
   18.9026   18.3585   19.6502 H   0  0  0  0  0  0  0  0  0  0  0  0
  1  2  1  0  0  0  0
  1  3  1  0  0  0  0
  1  4  1  0  0  0  0
  1  5  1  0  0  0  0
  5  6  1  0  0  0  0
  5  7  1  0  0  0  0
  7  8  1  0  0  0  0
  7  9  1  0  0  0  0
  7 10  1  0  0  0  0
  5 11  1  0  0  0  0
 11 12  1  0  0  0  0
 11 13  1  0  0  0  0
 11 14  1  0  0  0  0
 14 15  1  0  0  0  0
 14 16  1  0  0  0  0
 14 17  1  0  0  0  0
 17 18  1  0  0  0  0
 17 19  1  0  0  0  0
 17 20  1  0  0  0  0
M  END
> <VConfSearch Rank>
221

> <Conf_Id>
74

> <Delta U+W>
0.000

> <U+W>
-36.276

> <U>
22.080

> <W>
-58.356

> <W(PB)>
-60.289

> <W(SA)>
1.932

> <Valence>
1.885

> <Coulomb>
19.559

> <VdW>
0.637

> <VdW6>
-4.482

> <VdW12>
5.119

> <Bond>
0.136

> <Angle>
0.867

> <Pdih>
0.882

> <Idih>
0.000

> <Tether>
0.000

$$$$
VeraChem MOL file


 20 19  0  0  0  0  0  0  0  0999 V2000     
   18.1363   20.3582   23.7777 N   0  3  0  0  0  0  0  0  0  0  0  0
   17.4964   20.5618   23.0051 H   0  0  0  0  0  0  0  0  0  0  0  0
   18.7345   21.1785   23.9042 H   0  0  0  0  0  0  0  0  0  0  0  0
   17.5679   20.2629   24.6236 H   0  0  0  0  0  0  0  0  0  0  0  0
   18.9467   19.1183   23.5161 C   0  0  2  0  0  0  0  0  0  0  0  0
   18.2290   18.3005   23.3979 H   0  0  0  0  0  0  0  0  0  0  0  0
   19.8471   18.8040   24.7249 C   0  0  0  0  0  0  0  0  0  0  0  0
   19.2561   18.7705   25.6484 H   0  0  0  0  0  0  0  0  0  0  0  0
   20.6269   19.5658   24.8481 H   0  0  0  0  0  0  0  0  0  0  0  0
   20.3338   17.8279   24.6173 H   0  0  0  0  0  0  0  0  0  0  0  0
   19.7554   19.2451   22.2041 C   0  0  0  0  0  0  0  0  0  0  0  0
   19.0755   19.5748   21.4074 H   0  0  0  0  0  0  0  0  0  0  0  0
   20.5130   20.0328   22.3114 H   0  0  0  0  0  0  0  0  0  0  0  0
   20.4331   17.9268   21.7572 C   0  0  0  0  0  0  0  0  0  0  0  0
   19.6852   17.1227   21.7107 H   0  0  0  0  0  0  0  0  0  0  0  0
   21.1879   17.6178   22.4925 H   0  0  0  0  0  0  0  0  0  0  0  0
   21.1120   18.0741   20.3784 C   0  0  0  0  0  0  0  0  0  0  0  0
   20.3813   18.3410   19.6037 H   0  0  0  0  0  0  0  0  0  0  0  0
   21.5901   17.1324   20.0790 H   0  0  0  0  0  0  0  0  0  0  0  0
   21.8861   18.8523   20.4006 H   0  0  0  0  0  0  0  0  0  0  0  0
  1  2  1  0  0  0  0
  1  3  1  0  0  0  0
  1  4  1  0  0  0  0
  1  5  1  0  0  0  0
  5  6  1  0  0  0  0
  5  7  1  0  0  0  0
  7  8  1  0  0  0  0
  7  9  1  0  0  0  0
  7 10  1  0  0  0  0
  5 11  1  0  0  0  0
 11 12  1  0  0  0  0
 11 13  1  0  0  0  0
 11 14  1  0  0  0  0
 14 15  1  0  0  0  0
 14 16  1  0  0  0  0
 14 17  1  0  0  0  0
 17 18  1  0  0  0  0
 17 19  1  0  0  0  0
 17 20  1  0  0  0  0
M  END
> <VConfSearch Rank>
222

> <Conf_Id>
80

> <Delta U+W>
0.460

> <U+W>
-35.817

> <U>
22.495

> <W>
-58.311

> <W(PB)>
-60.259

> <W(SA)>
1.948

> <Valence>
2.419

> <Coulomb>
19.304

> <VdW>
0.772

> <VdW6>
-4.635

> <VdW12>
5.407

> <Bond>
0.149

> <Angle>
1.142

> <Pdih>
1.129

> <Idih>
0.000

> <Tether>
0.000

$$$$
VeraChem MOL file


 20 19  0  0  0  0  0  0  0  0999 V2000     
   20.3495   20.5337   24.3697 N   0  3  0  0  0  0  0  0  0  0  0  0
   20.6905   20.0941   25.2289 H   0  0  0  0  0  0  0  0  0  0  0  0
   19.3878   20.8376   24.5417 H   0  0  0  0  0  0  0  0  0  0  0  0
   20.9117   21.3752   24.2171 H   0  0  0  0  0  0  0  0  0  0  0  0
   20.4307   19.5967   23.1957 C   0  0  2  0  0  0  0  0  0  0  0  0
   21.4874   19.3335   23.0866 H   0  0  0  0  0  0  0  0  0  0  0  0
   19.9815   20.3132   21.9107 C   0  0  0  0  0  0  0  0  0  0  0  0
   20.5030   21.2717   21.7990 H   0  0  0  0  0  0  0  0  0  0  0  0
   18.9026   20.5113   21.9216 H   0  0  0  0  0  0  0  0  0  0  0  0
   20.2178   19.7140   21.0241 H   0  0  0  0  0  0  0  0  0  0  0  0
   19.6374   18.2952   23.4675 C   0  0  0  0  0  0  0  0  0  0  0  0
   20.0014   17.8798   24.4166 H   0  0  0  0  0  0  0  0  0  0  0  0
   18.5760   18.5247   23.6301 H   0  0  0  0  0  0  0  0  0  0  0  0
   19.7889   17.1964   22.3825 C   0  0  0  0  0  0  0  0  0  0  0  0
   19.8078   16.2153   22.8777 H   0  0  0  0  0  0  0  0  0  0  0  0
   20.7572   17.2943   21.8720 H   0  0  0  0  0  0  0  0  0  0  0  0
   18.6350   17.1864   21.3521 C   0  0  0  0  0  0  0  0  0  0  0  0
   17.6701   17.0132   21.8460 H   0  0  0  0  0  0  0  0  0  0  0  0
   18.7817   16.3825   20.6191 H   0  0  0  0  0  0  0  0  0  0  0  0
   18.5659   18.1301   20.7997 H   0  0  0  0  0  0  0  0  0  0  0  0
  1  2  1  0  0  0  0
  1  3  1  0  0  0  0
  1  4  1  0  0  0  0
  1  5  1  0  0  0  0
  5  6  1  0  0  0  0
  5  7  1  0  0  0  0
  7  8  1  0  0  0  0
  7  9  1  0  0  0  0
  7 10  1  0  0  0  0
  5 11  1  0  0  0  0
 11 12  1  0  0  0  0
 11 13  1  0  0  0  0
 11 14  1  0  0  0  0
 14 15  1  0  0  0  0
 14 16  1  0  0  0  0
 14 17  1  0  0  0  0
 17 18  1  0  0  0  0
 17 19  1  0  0  0  0
 17 20  1  0  0  0  0
M  END
> <VConfSearch Rank>
223

> <Conf_Id>
52

> <Delta U+W>
2.995

> <U+W>
-33.282

> <U>
25.224

> <W>
-58.506

> <W(PB)>
-60.411

> <W(SA)>
1.905

> <Valence>
4.945

> <Coulomb>
19.467

> <VdW>
0.813

> <VdW6>
-5.458

> <VdW12>
6.270

> <Bond>
0.200

> <Angle>
1.675

> <Pdih>
3.070

> <Idih>
0.000

> <Tether>
0.000

$$$$
VeraChem MOL file


 20 19  0  0  0  0  0  0  0  0999 V2000     
   20.7707   19.2106   23.9912 N   0  3  0  0  0  0  0  0  0  0  0  0
   20.1885   19.5813   24.7462 H   0  0  0  0  0  0  0  0  0  0  0  0
   21.7415   19.4536   24.2059 H   0  0  0  0  0  0  0  0  0  0  0  0
   20.6940   18.1916   24.0180 H   0  0  0  0  0  0  0  0  0  0  0  0
   20.3474   19.7553   22.6543 C   0  0  2  0  0  0  0  0  0  0  0  0
   21.0415   19.3549   21.9088 H   0  0  0  0  0  0  0  0  0  0  0  0
   20.4717   21.2883   22.6526 C   0  0  0  0  0  0  0  0  0  0  0  0
   19.7824   21.7434   23.3748 H   0  0  0  0  0  0  0  0  0  0  0  0
   20.2466   21.6980   21.6601 H   0  0  0  0  0  0  0  0  0  0  0  0
   21.4920   21.5959   22.9132 H   0  0  0  0  0  0  0  0  0  0  0  0
   18.9127   19.3300   22.2603 C   0  0  0  0  0  0  0  0  0  0  0  0
   18.2295   19.4905   23.1047 H   0  0  0  0  0  0  0  0  0  0  0  0
   18.5591   19.9923   21.4588 H   0  0  0  0  0  0  0  0  0  0  0  0
   18.7859   17.8743   21.7395 C   0  0  0  0  0  0  0  0  0  0  0  0
   19.4376   17.7357   20.8654 H   0  0  0  0  0  0  0  0  0  0  0  0
   17.7586   17.7291   21.3766 H   0  0  0  0  0  0  0  0  0  0  0  0
   19.0903   16.7804   22.7884 C   0  0  0  0  0  0  0  0  0  0  0  0
   18.7859   15.7964   22.4086 H   0  0  0  0  0  0  0  0  0  0  0  0
   18.5425   16.9594   23.7229 H   0  0  0  0  0  0  0  0  0  0  0  0
   20.1621   16.7192   23.0094 H   0  0  0  0  0  0  0  0  0  0  0  0
  1  2  1  0  0  0  0
  1  3  1  0  0  0  0
  1  4  1  0  0  0  0
  1  5  1  0  0  0  0
  5  6  1  0  0  0  0
  5  7  1  0  0  0  0
  7  8  1  0  0  0  0
  7  9  1  0  0  0  0
  7 10  1  0  0  0  0
  5 11  1  0  0  0  0
 11 12  1  0  0  0  0
 11 13  1  0  0  0  0
 11 14  1  0  0  0  0
 14 15  1  0  0  0  0
 14 16  1  0  0  0  0
 14 17  1  0  0  0  0
 17 18  1  0  0  0  0
 17 19  1  0  0  0  0
 17 20  1  0  0  0  0
M  END
> <VConfSearch Rank>
224

> <Conf_Id>
54

> <Delta U+W>
2.752

> <U+W>
-33.525

> <U>
24.337

> <W>
-57.862

> <W(PB)>
-59.764

> <W(SA)>
1.901

> <Valence>
3.593

> <Coulomb>
20.067

> <VdW>
0.677

> <VdW6>
-5.466

> <VdW12>
6.144

> <Bond>
0.191

> <Angle>
1.557

> <Pdih>
1.845

> <Idih>
0.000

> <Tether>
0.000

$$$$
VeraChem MOL file


 20 19  0  0  0  0  0  0  0  0999 V2000     
   19.4341   20.8431   21.9228 N   0  3  0  0  0  0  0  0  0  0  0  0
   19.8871   21.6494   21.4842 H   0  0  0  0  0  0  0  0  0  0  0  0
   18.6342   21.1963   22.4547 H   0  0  0  0  0  0  0  0  0  0  0  0
   19.0679   20.2531   21.1723 H   0  0  0  0  0  0  0  0  0  0  0  0
   20.3912   20.0844   22.8016 C   0  0  2  0  0  0  0  0  0  0  0  0
   20.7390   20.7969   23.5561 H   0  0  0  0  0  0  0  0  0  0  0  0
   21.6216   19.6162   22.0042 C   0  0  0  0  0  0  0  0  0  0  0  0
   22.3159   19.0620   22.6478 H   0  0  0  0  0  0  0  0  0  0  0  0
   22.1638   20.4774   21.5951 H   0  0  0  0  0  0  0  0  0  0  0  0
   21.3397   18.9692   21.1651 H   0  0  0  0  0  0  0  0  0  0  0  0
   19.7074   18.9179   23.5544 C   0  0  0  0  0  0  0  0  0  0  0  0
   20.4353   18.4664   24.2415 H   0  0  0  0  0  0  0  0  0  0  0  0
   18.9124   19.3325   24.1881 H   0  0  0  0  0  0  0  0  0  0  0  0
   19.1088   17.8136   22.6452 C   0  0  0  0  0  0  0  0  0  0  0  0
   19.8991   17.3501   22.0396 H   0  0  0  0  0  0  0  0  0  0  0  0
   18.3847   18.2504   21.9445 H   0  0  0  0  0  0  0  0  0  0  0  0
   18.4074   16.7162   23.4741 C   0  0  0  0  0  0  0  0  0  0  0  0
   17.9909   15.9411   22.8176 H   0  0  0  0  0  0  0  0  0  0  0  0
   17.5826   17.1341   24.0660 H   0  0  0  0  0  0  0  0  0  0  0  0
   19.1109   16.2310   24.1631 H   0  0  0  0  0  0  0  0  0  0  0  0
  1  2  1  0  0  0  0
  1  3  1  0  0  0  0
  1  4  1  0  0  0  0
  1  5  1  0  0  0  0
  5  6  1  0  0  0  0
  5  7  1  0  0  0  0
  7  8  1  0  0  0  0
  7  9  1  0  0  0  0
  7 10  1  0  0  0  0
  5 11  1  0  0  0  0
 11 12  1  0  0  0  0
 11 13  1  0  0  0  0
 11 14  1  0  0  0  0
 14 15  1  0  0  0  0
 14 16  1  0  0  0  0
 14 17  1  0  0  0  0
 17 18  1  0  0  0  0
 17 19  1  0  0  0  0
 17 20  1  0  0  0  0
M  END
> <VConfSearch Rank>
225

> <Conf_Id>
63

> <Delta U+W>
0.420

> <U+W>
-35.856

> <U>
22.625

> <W>
-58.481

> <W(PB)>
-60.400

> <W(SA)>
1.919

> <Valence>
2.404

> <Coulomb>
19.464

> <VdW>
0.757

> <VdW6>
-5.074

> <VdW12>
5.830

> <Bond>
0.172

> <Angle>
1.207

> <Pdih>
1.025

> <Idih>
0.000

> <Tether>
0.000

$$$$
VeraChem MOL file


 20 19  0  0  0  0  0  0  0  0999 V2000     
   19.8311   17.4080   23.5677 N   0  3  0  0  0  0  0  0  0  0  0  0
   20.1086   17.9573   24.3851 H   0  0  0  0  0  0  0  0  0  0  0  0
   20.6611   16.9119   23.2338 H   0  0  0  0  0  0  0  0  0  0  0  0
   19.1608   16.7032   23.8862 H   0  0  0  0  0  0  0  0  0  0  0  0
   19.2434   18.2837   22.4944 C   0  0  2  0  0  0  0  0  0  0  0  0
   18.3662   18.7706   22.9309 H   0  0  0  0  0  0  0  0  0  0  0  0
   18.7753   17.4376   21.2991 C   0  0  0  0  0  0  0  0  0  0  0  0
   18.0477   16.6818   21.6195 H   0  0  0  0  0  0  0  0  0  0  0  0
   19.6181   16.9207   20.8236 H   0  0  0  0  0  0  0  0  0  0  0  0
   18.2898   18.0667   20.5427 H   0  0  0  0  0  0  0  0  0  0  0  0
   20.2241   19.3822   22.0249 C   0  0  0  0  0  0  0  0  0  0  0  0
   21.1054   18.9127   21.5681 H   0  0  0  0  0  0  0  0  0  0  0  0
   19.7460   19.9728   21.2321 H   0  0  0  0  0  0  0  0  0  0  0  0
   20.6872   20.3430   23.1494 C   0  0  0  0  0  0  0  0  0  0  0  0
   21.3803   21.0800   22.7200 H   0  0  0  0  0  0  0  0  0  0  0  0
   21.2628   19.7929   23.9061 H   0  0  0  0  0  0  0  0  0  0  0  0
   19.5168   21.0917   23.8268 C   0  0  0  0  0  0  0  0  0  0  0  0
   18.9258   21.6499   23.0889 H   0  0  0  0  0  0  0  0  0  0  0  0
   19.8959   21.8107   24.5645 H   0  0  0  0  0  0  0  0  0  0  0  0
   18.8450   20.4018   24.3528 H   0  0  0  0  0  0  0  0  0  0  0  0
  1  2  1  0  0  0  0
  1  3  1  0  0  0  0
  1  4  1  0  0  0  0
  1  5  1  0  0  0  0
  5  6  1  0  0  0  0
  5  7  1  0  0  0  0
  7  8  1  0  0  0  0
  7  9  1  0  0  0  0
  7 10  1  0  0  0  0
  5 11  1  0  0  0  0
 11 12  1  0  0  0  0
 11 13  1  0  0  0  0
 11 14  1  0  0  0  0
 14 15  1  0  0  0  0
 14 16  1  0  0  0  0
 14 17  1  0  0  0  0
 17 18  1  0  0  0  0
 17 19  1  0  0  0  0
 17 20  1  0  0  0  0
M  END
> <VConfSearch Rank>
226

> <Conf_Id>
50

> <Delta U+W>
0.466

> <U+W>
-35.811

> <U>
22.369

> <W>
-58.180

> <W(PB)>
-60.103

> <W(SA)>
1.923

> <Valence>
2.168

> <Coulomb>
19.636

> <VdW>
0.566

> <VdW6>
-5.263

> <VdW12>
5.829

> <Bond>
0.162

> <Angle>
1.066

> <Pdih>
0.939

> <Idih>
0.000

> <Tether>
0.000

$$$$
VeraChem MOL file


 20 19  0  0  0  0  0  0  0  0999 V2000     
   19.2382   16.6765   23.2182 N   0  3  0  0  0  0  0  0  0  0  0  0
   18.6840   16.6982   24.0786 H   0  0  0  0  0  0  0  0  0  0  0  0
   20.1324   16.2315   23.4399 H   0  0  0  0  0  0  0  0  0  0  0  0
   18.7491   16.0648   22.5591 H   0  0  0  0  0  0  0  0  0  0  0  0
   19.4331   18.0557   22.6486 C   0  0  2  0  0  0  0  0  0  0  0  0
   18.4308   18.4472   22.4487 H   0  0  0  0  0  0  0  0  0  0  0  0
   20.2049   17.9721   21.3185 C   0  0  0  0  0  0  0  0  0  0  0  0
   21.2020   17.5390   21.4667 H   0  0  0  0  0  0  0  0  0  0  0  0
   20.3320   18.9604   20.8636 H   0  0  0  0  0  0  0  0  0  0  0  0
   19.6665   17.3439   20.5983 H   0  0  0  0  0  0  0  0  0  0  0  0
   20.1288   19.0042   23.6559 C   0  0  0  0  0  0  0  0  0  0  0  0
   20.0590   18.5725   24.6631 H   0  0  0  0  0  0  0  0  0  0  0  0
   21.2029   19.0739   23.4382 H   0  0  0  0  0  0  0  0  0  0  0  0
   19.5044   20.4213   23.7175 C   0  0  0  0  0  0  0  0  0  0  0  0
   20.0092   20.9929   24.5089 H   0  0  0  0  0  0  0  0  0  0  0  0
   18.4507   20.3456   24.0208 H   0  0  0  0  0  0  0  0  0  0  0  0
   19.6010   21.2127   22.3944 C   0  0  0  0  0  0  0  0  0  0  0  0
   20.6389   21.2697   22.0414 H   0  0  0  0  0  0  0  0  0  0  0  0
   19.2386   22.2394   22.5345 H   0  0  0  0  0  0  0  0  0  0  0  0
   18.9894   20.7543   21.6074 H   0  0  0  0  0  0  0  0  0  0  0  0
  1  2  1  0  0  0  0
  1  3  1  0  0  0  0
  1  4  1  0  0  0  0
  1  5  1  0  0  0  0
  5  6  1  0  0  0  0
  5  7  1  0  0  0  0
  7  8  1  0  0  0  0
  7  9  1  0  0  0  0
  7 10  1  0  0  0  0
  5 11  1  0  0  0  0
 11 12  1  0  0  0  0
 11 13  1  0  0  0  0
 11 14  1  0  0  0  0
 14 15  1  0  0  0  0
 14 16  1  0  0  0  0
 14 17  1  0  0  0  0
 17 18  1  0  0  0  0
 17 19  1  0  0  0  0
 17 20  1  0  0  0  0
M  END
> <VConfSearch Rank>
227

> <Conf_Id>
3

> <Delta U+W>
3.093

> <U+W>
-33.184

> <U>
25.256

> <W>
-58.439

> <W(PB)>
-60.337

> <W(SA)>
1.898

> <Valence>
4.963

> <Coulomb>
19.511

> <VdW>
0.782

> <VdW6>
-5.429

> <VdW12>
6.211

> <Bond>
0.174

> <Angle>
1.377

> <Pdih>
3.412

> <Idih>
0.000

> <Tether>
0.000

$$$$
VeraChem MOL file


 20 19  0  0  0  0  0  0  0  0999 V2000     
   21.7016   19.4650   23.6709 N   0  3  0  0  0  0  0  0  0  0  0  0
   21.9174   19.3420   24.6639 H   0  0  0  0  0  0  0  0  0  0  0  0
   21.8033   20.4616   23.4606 H   0  0  0  0  0  0  0  0  0  0  0  0
   22.4191   18.9652   23.1398 H   0  0  0  0  0  0  0  0  0  0  0  0
   20.3217   18.9657   23.3410 C   0  0  2  0  0  0  0  0  0  0  0  0
   19.6294   19.5506   23.9540 H   0  0  0  0  0  0  0  0  0  0  0  0
   20.1816   17.4828   23.7302 C   0  0  0  0  0  0  0  0  0  0  0  0
   19.1453   17.1408   23.6270 H   0  0  0  0  0  0  0  0  0  0  0  0
   20.4714   17.3285   24.7768 H   0  0  0  0  0  0  0  0  0  0  0  0
   20.8180   16.8459   23.1034 H   0  0  0  0  0  0  0  0  0  0  0  0
   19.9786   19.2106   21.8522 C   0  0  0  0  0  0  0  0  0  0  0  0
   20.1738   20.2649   21.6155 H   0  0  0  0  0  0  0  0  0  0  0  0
   20.6607   18.6257   21.2211 H   0  0  0  0  0  0  0  0  0  0  0  0
   18.5162   18.8845   21.4545 C   0  0  0  0  0  0  0  0  0  0  0  0
   18.3251   17.8074   21.5527 H   0  0  0  0  0  0  0  0  0  0  0  0
   18.3812   19.1170   20.3889 H   0  0  0  0  0  0  0  0  0  0  0  0
   17.4739   19.6772   22.2758 C   0  0  0  0  0  0  0  0  0  0  0  0
   17.6467   20.7583   22.1951 H   0  0  0  0  0  0  0  0  0  0  0  0
   17.5039   19.4028   23.3378 H   0  0  0  0  0  0  0  0  0  0  0  0
   16.4594   19.4720   21.9100 H   0  0  0  0  0  0  0  0  0  0  0  0
  1  2  1  0  0  0  0
  1  3  1  0  0  0  0
  1  4  1  0  0  0  0
  1  5  1  0  0  0  0
  5  6  1  0  0  0  0
  5  7  1  0  0  0  0
  7  8  1  0  0  0  0
  7  9  1  0  0  0  0
  7 10  1  0  0  0  0
  5 11  1  0  0  0  0
 11 12  1  0  0  0  0
 11 13  1  0  0  0  0
 11 14  1  0  0  0  0
 14 15  1  0  0  0  0
 14 16  1  0  0  0  0
 14 17  1  0  0  0  0
 17 18  1  0  0  0  0
 17 19  1  0  0  0  0
 17 20  1  0  0  0  0
M  END
> <VConfSearch Rank>
228

> <Conf_Id>
64

> <Delta U+W>
0.544

> <U+W>
-35.732

> <U>
22.800

> <W>
-58.532

> <W(PB)>
-60.437

> <W(SA)>
1.905

> <Valence>
2.662

> <Coulomb>
19.485

> <VdW>
0.653

> <VdW6>
-5.460

> <VdW12>
6.113

> <Bond>
0.174

> <Angle>
1.378

> <Pdih>
1.109

> <Idih>
0.000

> <Tether>
0.000

$$$$
VeraChem MOL file


 20 19  0  0  0  0  0  0  0  0999 V2000     
   18.2774   19.6105   21.3900 N   0  3  0  0  0  0  0  0  0  0  0  0
   18.8389   19.0213   20.7714 H   0  0  0  0  0  0  0  0  0  0  0  0
   18.1109   20.4946   20.9018 H   0  0  0  0  0  0  0  0  0  0  0  0
   17.3691   19.1537   21.5085 H   0  0  0  0  0  0  0  0  0  0  0  0
   18.9624   19.8321   22.7115 C   0  0  2  0  0  0  0  0  0  0  0  0
   18.2938   20.4766   23.2908 H   0  0  0  0  0  0  0  0  0  0  0  0
   20.2845   20.5938   22.5226 C   0  0  0  0  0  0  0  0  0  0  0  0
   20.9576   20.0659   21.8371 H   0  0  0  0  0  0  0  0  0  0  0  0
   20.7983   20.7292   23.4823 H   0  0  0  0  0  0  0  0  0  0  0  0
   20.0960   21.5895   22.1031 H   0  0  0  0  0  0  0  0  0  0  0  0
   19.1315   18.5183   23.5154 C   0  0  0  0  0  0  0  0  0  0  0  0
   19.4715   18.7547   24.5323 H   0  0  0  0  0  0  0  0  0  0  0  0
   18.1328   18.0797   23.6405 H   0  0  0  0  0  0  0  0  0  0  0  0
   20.0601   17.4427   22.8862 C   0  0  0  0  0  0  0  0  0  0  0  0
   20.0352   17.4962   21.7899 H   0  0  0  0  0  0  0  0  0  0  0  0
   19.6656   16.4503   23.1460 H   0  0  0  0  0  0  0  0  0  0  0  0
   21.5209   17.5162   23.3897 C   0  0  0  0  0  0  0  0  0  0  0  0
   22.0014   18.4652   23.1281 H   0  0  0  0  0  0  0  0  0  0  0  0
   22.1198   16.7097   22.9471 H   0  0  0  0  0  0  0  0  0  0  0  0
   21.5667   17.4028   24.4807 H   0  0  0  0  0  0  0  0  0  0  0  0
  1  2  1  0  0  0  0
  1  3  1  0  0  0  0
  1  4  1  0  0  0  0
  1  5  1  0  0  0  0
  5  6  1  0  0  0  0
  5  7  1  0  0  0  0
  7  8  1  0  0  0  0
  7  9  1  0  0  0  0
  7 10  1  0  0  0  0
  5 11  1  0  0  0  0
 11 12  1  0  0  0  0
 11 13  1  0  0  0  0
 11 14  1  0  0  0  0
 14 15  1  0  0  0  0
 14 16  1  0  0  0  0
 14 17  1  0  0  0  0
 17 18  1  0  0  0  0
 17 19  1  0  0  0  0
 17 20  1  0  0  0  0
M  END
> <VConfSearch Rank>
229

> <Conf_Id>
35

> <Delta U+W>
3.004

> <U+W>
-33.272

> <U>
25.367

> <W>
-58.639

> <W(PB)>
-60.512

> <W(SA)>
1.873

> <Valence>
4.943

> <Coulomb>
19.661

> <VdW>
0.764

> <VdW6>
-5.871

> <VdW12>
6.636

> <Bond>
0.230

> <Angle>
1.857

> <Pdih>
2.855

> <Idih>
0.000

> <Tether>
0.000

$$$$
VeraChem MOL file


 20 19  0  0  0  0  0  0  0  0999 V2000     
   18.5445   19.7475   21.7058 N   0  3  0  0  0  0  0  0  0  0  0  0
   18.2231   20.6927   21.4800 H   0  0  0  0  0  0  0  0  0  0  0  0
   17.7909   19.1017   21.4556 H   0  0  0  0  0  0  0  0  0  0  0  0
   19.3405   19.5379   21.1006 H   0  0  0  0  0  0  0  0  0  0  0  0
   18.9169   19.6233   23.1578 C   0  0  2  0  0  0  0  0  0  0  0  0
   17.9981   19.8401   23.7116 H   0  0  0  0  0  0  0  0  0  0  0  0
   19.9569   20.6828   23.5634 C   0  0  0  0  0  0  0  0  0  0  0  0
   20.8800   20.5885   22.9792 H   0  0  0  0  0  0  0  0  0  0  0  0
   20.2112   20.5910   24.6265 H   0  0  0  0  0  0  0  0  0  0  0  0
   19.5597   21.6924   23.4024 H   0  0  0  0  0  0  0  0  0  0  0  0
   19.3503   18.1883   23.5529 C   0  0  0  0  0  0  0  0  0  0  0  0
   19.2959   18.1141   24.6471 H   0  0  0  0  0  0  0  0  0  0  0  0
   18.6053   17.4755   23.1760 H   0  0  0  0  0  0  0  0  0  0  0  0
   20.7687   17.7260   23.1159 C   0  0  0  0  0  0  0  0  0  0  0  0
   20.9323   16.7137   23.5112 H   0  0  0  0  0  0  0  0  0  0  0  0
   21.5364   18.3540   23.5881 H   0  0  0  0  0  0  0  0  0  0  0  0
   20.9937   17.6915   21.5871 C   0  0  0  0  0  0  0  0  0  0  0  0
   20.1914   17.1410   21.0788 H   0  0  0  0  0  0  0  0  0  0  0  0
   21.9412   17.1885   21.3540 H   0  0  0  0  0  0  0  0  0  0  0  0
   21.0539   18.7011   21.1650 H   0  0  0  0  0  0  0  0  0  0  0  0
  1  2  1  0  0  0  0
  1  3  1  0  0  0  0
  1  4  1  0  0  0  0
  1  5  1  0  0  0  0
  5  6  1  0  0  0  0
  5  7  1  0  0  0  0
  7  8  1  0  0  0  0
  7  9  1  0  0  0  0
  7 10  1  0  0  0  0
  5 11  1  0  0  0  0
 11 12  1  0  0  0  0
 11 13  1  0  0  0  0
 11 14  1  0  0  0  0
 14 15  1  0  0  0  0
 14 16  1  0  0  0  0
 14 17  1  0  0  0  0
 17 18  1  0  0  0  0
 17 19  1  0  0  0  0
 17 20  1  0  0  0  0
M  END
> <VConfSearch Rank>
230

> <Conf_Id>
55

> <Delta U+W>
2.767

> <U+W>
-33.509

> <U>
24.552

> <W>
-58.061

> <W(PB)>
-59.930

> <W(SA)>
1.869

> <Valence>
3.726

> <Coulomb>
20.219

> <VdW>
0.606

> <VdW6>
-6.395

> <VdW12>
7.001

> <Bond>
0.241

> <Angle>
2.098

> <Pdih>
1.387

> <Idih>
0.000

> <Tether>
0.000

$$$$
VeraChem MOL file


 20 19  0  0  0  0  0  0  0  0999 V2000     
   20.7050   19.8812   24.1706 N   0  3  0  0  0  0  0  0  0  0  0  0
   20.5519   19.1803   24.8999 H   0  0  0  0  0  0  0  0  0  0  0  0
   20.8650   20.7777   24.6379 H   0  0  0  0  0  0  0  0  0  0  0  0
   21.5700   19.6342   23.6833 H   0  0  0  0  0  0  0  0  0  0  0  0
   19.5385   19.9546   23.2226 C   0  0  2  0  0  0  0  0  0  0  0  0
   19.7848   20.7188   22.4788 H   0  0  0  0  0  0  0  0  0  0  0  0
   18.2667   20.3976   23.9644 C   0  0  0  0  0  0  0  0  0  0  0  0
   18.4234   21.3627   24.4617 H   0  0  0  0  0  0  0  0  0  0  0  0
   17.9750   19.6640   24.7262 H   0  0  0  0  0  0  0  0  0  0  0  0
   17.4290   20.5162   23.2660 H   0  0  0  0  0  0  0  0  0  0  0  0
   19.2911   18.6219   22.4817 C   0  0  0  0  0  0  0  0  0  0  0  0
   19.0645   17.8310   23.2090 H   0  0  0  0  0  0  0  0  0  0  0  0
   18.4003   18.7289   21.8483 H   0  0  0  0  0  0  0  0  0  0  0  0
   20.4845   18.1912   21.5952 C   0  0  0  0  0  0  0  0  0  0  0  0
   21.3760   18.0225   22.2141 H   0  0  0  0  0  0  0  0  0  0  0  0
   20.7334   18.9981   20.8916 H   0  0  0  0  0  0  0  0  0  0  0  0
   20.1713   16.9026   20.8047 C   0  0  0  0  0  0  0  0  0  0  0  0
   19.9477   16.0681   21.4821 H   0  0  0  0  0  0  0  0  0  0  0  0
   21.0279   16.6112   20.1831 H   0  0  0  0  0  0  0  0  0  0  0  0
   19.3080   17.0451   20.1416 H   0  0  0  0  0  0  0  0  0  0  0  0
  1  2  1  0  0  0  0
  1  3  1  0  0  0  0
  1  4  1  0  0  0  0
  1  5  1  0  0  0  0
  5  6  1  0  0  0  0
  5  7  1  0  0  0  0
  7  8  1  0  0  0  0
  7  9  1  0  0  0  0
  7 10  1  0  0  0  0
  5 11  1  0  0  0  0
 11 12  1  0  0  0  0
 11 13  1  0  0  0  0
 11 14  1  0  0  0  0
 14 15  1  0  0  0  0
 14 16  1  0  0  0  0
 14 17  1  0  0  0  0
 17 18  1  0  0  0  0
 17 19  1  0  0  0  0
 17 20  1  0  0  0  0
M  END
> <VConfSearch Rank>
231

> <Conf_Id>
74

> <Delta U+W>
0.000

> <U+W>
-36.276

> <U>
22.080

> <W>
-58.356

> <W(PB)>
-60.289

> <W(SA)>
1.932

> <Valence>
1.885

> <Coulomb>
19.559

> <VdW>
0.637

> <VdW6>
-4.482

> <VdW12>
5.119

> <Bond>
0.136

> <Angle>
0.867

> <Pdih>
0.882

> <Idih>
0.000

> <Tether>
0.000

$$$$
VeraChem MOL file


 20 19  0  0  0  0  0  0  0  0999 V2000     
   21.3891   19.7895   21.2153 N   0  3  0  0  0  0  0  0  0  0  0  0
   21.5988   18.9658   20.6449 H   0  0  0  0  0  0  0  0  0  0  0  0
   22.1530   19.8996   21.8868 H   0  0  0  0  0  0  0  0  0  0  0  0
   21.4119   20.6017   20.5928 H   0  0  0  0  0  0  0  0  0  0  0  0
   20.0593   19.6627   21.9067 C   0  0  2  0  0  0  0  0  0  0  0  0
   19.3103   19.5532   21.1162 H   0  0  0  0  0  0  0  0  0  0  0  0
   19.7454   20.9449   22.6994 C   0  0  0  0  0  0  0  0  0  0  0  0
   19.8373   21.8288   22.0565 H   0  0  0  0  0  0  0  0  0  0  0  0
   20.4329   21.0671   23.5455 H   0  0  0  0  0  0  0  0  0  0  0  0
   18.7206   20.9333   23.0879 H   0  0  0  0  0  0  0  0  0  0  0  0
   20.0103   18.3997   22.7976 C   0  0  0  0  0  0  0  0  0  0  0  0
   20.3474   17.5411   22.2019 H   0  0  0  0  0  0  0  0  0  0  0  0
   20.7246   18.5030   23.6252 H   0  0  0  0  0  0  0  0  0  0  0  0
   18.6024   18.0851   23.3598 C   0  0  0  0  0  0  0  0  0  0  0  0
   17.8752   18.0440   22.5366 H   0  0  0  0  0  0  0  0  0  0  0  0
   18.2740   18.8860   24.0355 H   0  0  0  0  0  0  0  0  0  0  0  0
   18.5818   16.7459   24.1277 C   0  0  0  0  0  0  0  0  0  0  0  0
   18.8632   15.9101   23.4738 H   0  0  0  0  0  0  0  0  0  0  0  0
   17.5781   16.5405   24.5221 H   0  0  0  0  0  0  0  0  0  0  0  0
   19.2789   16.7661   24.9756 H   0  0  0  0  0  0  0  0  0  0  0  0
  1  2  1  0  0  0  0
  1  3  1  0  0  0  0
  1  4  1  0  0  0  0
  1  5  1  0  0  0  0
  5  6  1  0  0  0  0
  5  7  1  0  0  0  0
  7  8  1  0  0  0  0
  7  9  1  0  0  0  0
  7 10  1  0  0  0  0
  5 11  1  0  0  0  0
 11 12  1  0  0  0  0
 11 13  1  0  0  0  0
 11 14  1  0  0  0  0
 14 15  1  0  0  0  0
 14 16  1  0  0  0  0
 14 17  1  0  0  0  0
 17 18  1  0  0  0  0
 17 19  1  0  0  0  0
 17 20  1  0  0  0  0
M  END
> <VConfSearch Rank>
232

> <Conf_Id>
80

> <Delta U+W>
0.460

> <U+W>
-35.817

> <U>
22.495

> <W>
-58.311

> <W(PB)>
-60.259

> <W(SA)>
1.948

> <Valence>
2.419

> <Coulomb>
19.304

> <VdW>
0.772

> <VdW6>
-4.635

> <VdW12>
5.407

> <Bond>
0.149

> <Angle>
1.142

> <Pdih>
1.129

> <Idih>
0.000

> <Tether>
0.000

$$$$
VeraChem MOL file


 20 19  0  0  0  0  0  0  0  0999 V2000     
   19.8462   19.1732   25.1105 N   0  3  0  0  0  0  0  0  0  0  0  0
   19.4471   20.0734   25.3901 H   0  0  0  0  0  0  0  0  0  0  0  0
   20.8645   19.2643   25.1487 H   0  0  0  0  0  0  0  0  0  0  0  0
   19.5753   18.4886   25.8215 H   0  0  0  0  0  0  0  0  0  0  0  0
   19.3799   18.7594   23.7415 C   0  0  2  0  0  0  0  0  0  0  0  0
   18.2897   18.6826   23.7996 H   0  0  0  0  0  0  0  0  0  0  0  0
   19.9385   17.3709   23.3860 C   0  0  0  0  0  0  0  0  0  0  0  0
   19.7468   16.6570   24.1964 H   0  0  0  0  0  0  0  0  0  0  0  0
   21.0214   17.4093   23.2146 H   0  0  0  0  0  0  0  0  0  0  0  0
   19.4562   16.9724   22.4863 H   0  0  0  0  0  0  0  0  0  0  0  0
   19.7298   19.8369   22.6861 C   0  0  0  0  0  0  0  0  0  0  0  0
   19.3235   20.7922   23.0436 H   0  0  0  0  0  0  0  0  0  0  0  0
   20.8176   19.9767   22.6328 H   0  0  0  0  0  0  0  0  0  0  0  0
   19.1518   19.5789   21.2694 C   0  0  0  0  0  0  0  0  0  0  0  0
   18.8549   20.5423   20.8314 H   0  0  0  0  0  0  0  0  0  0  0  0
   18.2312   18.9821   21.3350 H   0  0  0  0  0  0  0  0  0  0  0  0
   20.1604   18.9095   20.3062 C   0  0  0  0  0  0  0  0  0  0  0  0
   21.0523   19.5361   20.1753 H   0  0  0  0  0  0  0  0  0  0  0  0
   19.7082   18.7650   19.3164 H   0  0  0  0  0  0  0  0  0  0  0  0
   20.4883   17.9284   20.6673 H   0  0  0  0  0  0  0  0  0  0  0  0
  1  2  1  0  0  0  0
  1  3  1  0  0  0  0
  1  4  1  0  0  0  0
  1  5  1  0  0  0  0
  5  6  1  0  0  0  0
  5  7  1  0  0  0  0
  7  8  1  0  0  0  0
  7  9  1  0  0  0  0
  7 10  1  0  0  0  0
  5 11  1  0  0  0  0
 11 12  1  0  0  0  0
 11 13  1  0  0  0  0
 11 14  1  0  0  0  0
 14 15  1  0  0  0  0
 14 16  1  0  0  0  0
 14 17  1  0  0  0  0
 17 18  1  0  0  0  0
 17 19  1  0  0  0  0
 17 20  1  0  0  0  0
M  END
> <VConfSearch Rank>
233

> <Conf_Id>
52

> <Delta U+W>
2.995

> <U+W>
-33.282

> <U>
25.224

> <W>
-58.506

> <W(PB)>
-60.411

> <W(SA)>
1.905

> <Valence>
4.945

> <Coulomb>
19.467

> <VdW>
0.813

> <VdW6>
-5.458

> <VdW12>
6.270

> <Bond>
0.200

> <Angle>
1.675

> <Pdih>
3.070

> <Idih>
0.000

> <Tether>
0.000

$$$$
VeraChem MOL file


 20 19  0  0  0  0  0  0  0  0999 V2000     
   19.1622   20.4689   22.3309 N   0  3  0  0  0  0  0  0  0  0  0  0
   19.7826   21.1405   22.7895 H   0  0  0  0  0  0  0  0  0  0  0  0
   18.2825   20.9523   22.1305 H   0  0  0  0  0  0  0  0  0  0  0  0
   19.5889   20.2200   21.4360 H   0  0  0  0  0  0  0  0  0  0  0  0
   18.9414   19.2523   23.1879 C   0  0  2  0  0  0  0  0  0  0  0  0
   18.2348   18.6075   22.6563 H   0  0  0  0  0  0  0  0  0  0  0  0
   18.3033   19.6652   24.5251 C   0  0  0  0  0  0  0  0  0  0  0  0
   18.9798   20.3029   25.1078 H   0  0  0  0  0  0  0  0  0  0  0  0
   18.0585   18.7836   25.1305 H   0  0  0  0  0  0  0  0  0  0  0  0
   17.3716   20.2192   24.3567 H   0  0  0  0  0  0  0  0  0  0  0  0
   20.2407   18.4492   23.4354 C   0  0  0  0  0  0  0  0  0  0  0  0
   21.0505   19.1291   23.7313 H   0  0  0  0  0  0  0  0  0  0  0  0
   20.0815   17.7818   24.2929 H   0  0  0  0  0  0  0  0  0  0  0  0
   20.6945   17.5637   22.2452 C   0  0  0  0  0  0  0  0  0  0  0  0
   19.8961   16.8542   21.9861 H   0  0  0  0  0  0  0  0  0  0  0  0
   21.5453   16.9527   22.5783 H   0  0  0  0  0  0  0  0  0  0  0  0
   21.1215   18.3439   20.9811 C   0  0  0  0  0  0  0  0  0  0  0  0
   21.6138   17.6697   20.2681 H   0  0  0  0  0  0  0  0  0  0  0  0
   21.8322   19.1440   21.2262 H   0  0  0  0  0  0  0  0  0  0  0  0
   20.2587   18.7795   20.4641 H   0  0  0  0  0  0  0  0  0  0  0  0
  1  2  1  0  0  0  0
  1  3  1  0  0  0  0
  1  4  1  0  0  0  0
  1  5  1  0  0  0  0
  5  6  1  0  0  0  0
  5  7  1  0  0  0  0
  7  8  1  0  0  0  0
  7  9  1  0  0  0  0
  7 10  1  0  0  0  0
  5 11  1  0  0  0  0
 11 12  1  0  0  0  0
 11 13  1  0  0  0  0
 11 14  1  0  0  0  0
 14 15  1  0  0  0  0
 14 16  1  0  0  0  0
 14 17  1  0  0  0  0
 17 18  1  0  0  0  0
 17 19  1  0  0  0  0
 17 20  1  0  0  0  0
M  END
> <VConfSearch Rank>
234

> <Conf_Id>
54

> <Delta U+W>
2.752

> <U+W>
-33.525

> <U>
24.337

> <W>
-57.862

> <W(PB)>
-59.764

> <W(SA)>
1.901

> <Valence>
3.593

> <Coulomb>
20.067

> <VdW>
0.677

> <VdW6>
-5.466

> <VdW12>
6.144

> <Bond>
0.191

> <Angle>
1.557

> <Pdih>
1.845

> <Idih>
0.000

> <Tether>
0.000

$$$$
VeraChem MOL file


 20 19  0  0  0  0  0  0  0  0999 V2000     
   18.4403   18.5355   24.2328 N   0  3  0  0  0  0  0  0  0  0  0  0
   18.1813   18.7757   25.1934 H   0  0  0  0  0  0  0  0  0  0  0  0
   18.1969   17.5517   24.0896 H   0  0  0  0  0  0  0  0  0  0  0  0
   17.8509   19.0919   23.6095 H   0  0  0  0  0  0  0  0  0  0  0  0
   19.9017   18.7867   23.9773 C   0  0  2  0  0  0  0  0  0  0  0  0
   20.4456   18.1664   24.6967 H   0  0  0  0  0  0  0  0  0  0  0  0
   20.2683   20.2544   24.2604 C   0  0  0  0  0  0  0  0  0  0  0  0
   21.3339   20.4339   24.0713 H   0  0  0  0  0  0  0  0  0  0  0  0
   20.0711   20.5033   25.3103 H   0  0  0  0  0  0  0  0  0  0  0  0
   19.6874   20.9455   23.6382 H   0  0  0  0  0  0  0  0  0  0  0  0
   20.3416   18.3395   22.5626 C   0  0  0  0  0  0  0  0  0  0  0  0
   21.4289   18.4658   22.4748 H   0  0  0  0  0  0  0  0  0  0  0  0
   20.1551   17.2619   22.4656 H   0  0  0  0  0  0  0  0  0  0  0  0
   19.6442   19.0835   21.3945 C   0  0  0  0  0  0  0  0  0  0  0  0
   19.8621   20.1587   21.4446 H   0  0  0  0  0  0  0  0  0  0  0  0
   18.5541   18.9750   21.4727 H   0  0  0  0  0  0  0  0  0  0  0  0
   20.1060   18.5443   20.0236 C   0  0  0  0  0  0  0  0  0  0  0  0
   19.6059   19.0815   19.2072 H   0  0  0  0  0  0  0  0  0  0  0  0
   19.8698   17.4774   19.9183 H   0  0  0  0  0  0  0  0  0  0  0  0
   21.1890   18.6689   19.8944 H   0  0  0  0  0  0  0  0  0  0  0  0
  1  2  1  0  0  0  0
  1  3  1  0  0  0  0
  1  4  1  0  0  0  0
  1  5  1  0  0  0  0
  5  6  1  0  0  0  0
  5  7  1  0  0  0  0
  7  8  1  0  0  0  0
  7  9  1  0  0  0  0
  7 10  1  0  0  0  0
  5 11  1  0  0  0  0
 11 12  1  0  0  0  0
 11 13  1  0  0  0  0
 11 14  1  0  0  0  0
 14 15  1  0  0  0  0
 14 16  1  0  0  0  0
 14 17  1  0  0  0  0
 17 18  1  0  0  0  0
 17 19  1  0  0  0  0
 17 20  1  0  0  0  0
M  END
> <VConfSearch Rank>
235

> <Conf_Id>
63

> <Delta U+W>
0.420

> <U+W>
-35.856

> <U>
22.625

> <W>
-58.481

> <W(PB)>
-60.400

> <W(SA)>
1.919

> <Valence>
2.404

> <Coulomb>
19.464

> <VdW>
0.757

> <VdW6>
-5.074

> <VdW12>
5.830

> <Bond>
0.172

> <Angle>
1.207

> <Pdih>
1.025

> <Idih>
0.000

> <Tether>
0.000

$$$$
VeraChem MOL file


 20 19  0  0  0  0  0  0  0  0999 V2000     
   18.0811   18.4258   23.2739 N   0  3  0  0  0  0  0  0  0  0  0  0
   17.7435   19.2799   22.8226 H   0  0  0  0  0  0  0  0  0  0  0  0
   17.9688   18.5459   24.2835 H   0  0  0  0  0  0  0  0  0  0  0  0
   17.4626   17.6629   22.9859 H   0  0  0  0  0  0  0  0  0  0  0  0
   19.5131   18.1435   22.9082 C   0  0  2  0  0  0  0  0  0  0  0  0
   19.5431   18.0268   21.8208 H   0  0  0  0  0  0  0  0  0  0  0  0
   19.9863   16.8261   23.5438 C   0  0  0  0  0  0  0  0  0  0  0  0
   19.3406   15.9936   23.2384 H   0  0  0  0  0  0  0  0  0  0  0  0
   19.9721   16.8854   24.6393 H   0  0  0  0  0  0  0  0  0  0  0  0
   21.0092   16.5863   23.2280 H   0  0  0  0  0  0  0  0  0  0  0  0
   20.4617   19.3000   23.2978 C   0  0  0  0  0  0  0  0  0  0  0  0
   20.4580   19.4224   24.3890 H   0  0  0  0  0  0  0  0  0  0  0  0
   21.4893   19.0269   23.0235 H   0  0  0  0  0  0  0  0  0  0  0  0
   20.1145   20.6570   22.6345 C   0  0  0  0  0  0  0  0  0  0  0  0
   20.8380   21.4111   22.9748 H   0  0  0  0  0  0  0  0  0  0  0  0
   19.1311   21.0068   22.9767 H   0  0  0  0  0  0  0  0  0  0  0  0
   20.1394   20.6005   21.0899 C   0  0  0  0  0  0  0  0  0  0  0  0
   21.1143   20.2530   20.7236 H   0  0  0  0  0  0  0  0  0  0  0  0
   19.9586   21.5967   20.6657 H   0  0  0  0  0  0  0  0  0  0  0  0
   19.3662   19.9286   20.6967 H   0  0  0  0  0  0  0  0  0  0  0  0
  1  2  1  0  0  0  0
  1  3  1  0  0  0  0
  1  4  1  0  0  0  0
  1  5  1  0  0  0  0
  5  6  1  0  0  0  0
  5  7  1  0  0  0  0
  7  8  1  0  0  0  0
  7  9  1  0  0  0  0
  7 10  1  0  0  0  0
  5 11  1  0  0  0  0
 11 12  1  0  0  0  0
 11 13  1  0  0  0  0
 11 14  1  0  0  0  0
 14 15  1  0  0  0  0
 14 16  1  0  0  0  0
 14 17  1  0  0  0  0
 17 18  1  0  0  0  0
 17 19  1  0  0  0  0
 17 20  1  0  0  0  0
M  END
> <VConfSearch Rank>
236

> <Conf_Id>
50

> <Delta U+W>
0.466

> <U+W>
-35.811

> <U>
22.369

> <W>
-58.180

> <W(PB)>
-60.103

> <W(SA)>
1.923

> <Valence>
2.168

> <Coulomb>
19.636

> <VdW>
0.566

> <VdW6>
-5.263

> <VdW12>
5.829

> <Bond>
0.162

> <Angle>
1.066

> <Pdih>
0.939

> <Idih>
0.000

> <Tether>
0.000

$$$$
VeraChem MOL file


 20 19  0  0  0  0  0  0  0  0999 V2000     
   21.2305   20.2596   21.7076 N   0  3  0  0  0  0  0  0  0  0  0  0
   22.0083   19.6385   21.4683 H   0  0  0  0  0  0  0  0  0  0  0  0
   21.5699   20.9192   22.4124 H   0  0  0  0  0  0  0  0  0  0  0  0
   21.0062   20.8003   20.8680 H   0  0  0  0  0  0  0  0  0  0  0  0
   20.0363   19.4887   22.2016 C   0  0  2  0  0  0  0  0  0  0  0  0
   19.7512   18.8143   21.3881 H   0  0  0  0  0  0  0  0  0  0  0  0
   18.8659   20.4507   22.4785 C   0  0  0  0  0  0  0  0  0  0  0  0
   19.1274   21.1772   23.2579 H   0  0  0  0  0  0  0  0  0  0  0  0
   17.9708   19.9121   22.8078 H   0  0  0  0  0  0  0  0  0  0  0  0
   18.6011   21.0078   21.5715 H   0  0  0  0  0  0  0  0  0  0  0  0
   20.3767   18.6285   23.4435 C   0  0  0  0  0  0  0  0  0  0  0  0
   21.4670   18.5220   23.5191 H   0  0  0  0  0  0  0  0  0  0  0  0
   20.0657   19.1422   24.3630 H   0  0  0  0  0  0  0  0  0  0  0  0
   19.7759   17.2005   23.4016 C   0  0  0  0  0  0  0  0  0  0  0  0
   20.1332   16.6437   24.2793 H   0  0  0  0  0  0  0  0  0  0  0  0
   20.1622   16.6651   22.5229 H   0  0  0  0  0  0  0  0  0  0  0  0
   18.2317   17.1646   23.3855 C   0  0  0  0  0  0  0  0  0  0  0  0
   17.8132   17.7284   24.2293 H   0  0  0  0  0  0  0  0  0  0  0  0
   17.8715   16.1305   23.4628 H   0  0  0  0  0  0  0  0  0  0  0  0
   17.8306   17.5821   22.4536 H   0  0  0  0  0  0  0  0  0  0  0  0
  1  2  1  0  0  0  0
  1  3  1  0  0  0  0
  1  4  1  0  0  0  0
  1  5  1  0  0  0  0
  5  6  1  0  0  0  0
  5  7  1  0  0  0  0
  7  8  1  0  0  0  0
  7  9  1  0  0  0  0
  7 10  1  0  0  0  0
  5 11  1  0  0  0  0
 11 12  1  0  0  0  0
 11 13  1  0  0  0  0
 11 14  1  0  0  0  0
 14 15  1  0  0  0  0
 14 16  1  0  0  0  0
 14 17  1  0  0  0  0
 17 18  1  0  0  0  0
 17 19  1  0  0  0  0
 17 20  1  0  0  0  0
M  END
> <VConfSearch Rank>
237

> <Conf_Id>
3

> <Delta U+W>
3.093

> <U+W>
-33.184

> <U>
25.256

> <W>
-58.439

> <W(PB)>
-60.337

> <W(SA)>
1.898

> <Valence>
4.963

> <Coulomb>
19.511

> <VdW>
0.782

> <VdW6>
-5.429

> <VdW12>
6.211

> <Bond>
0.174

> <Angle>
1.377

> <Pdih>
3.412

> <Idih>
0.000

> <Tether>
0.000

$$$$
VeraChem MOL file


 20 19  0  0  0  0  0  0  0  0999 V2000     
   17.7157   18.6470   21.6353 N   0  3  0  0  0  0  0  0  0  0  0  0
   16.8627   18.2971   22.0797 H   0  0  0  0  0  0  0  0  0  0  0  0
   17.9646   17.9849   20.8954 H   0  0  0  0  0  0  0  0  0  0  0  0
   17.4815   19.5354   21.1853 H   0  0  0  0  0  0  0  0  0  0  0  0
   18.8297   18.8096   22.6328 C   0  0  2  0  0  0  0  0  0  0  0  0
   19.0053   17.8180   23.0606 H   0  0  0  0  0  0  0  0  0  0  0  0
   18.3994   19.7587   23.7661 C   0  0  0  0  0  0  0  0  0  0  0  0
   19.1431   19.7796   24.5711 H   0  0  0  0  0  0  0  0  0  0  0  0
   17.4517   19.4281   24.2085 H   0  0  0  0  0  0  0  0  0  0  0  0
   18.2637   20.7826   23.3965 H   0  0  0  0  0  0  0  0  0  0  0  0
   20.1334   19.2798   21.9446 C   0  0  0  0  0  0  0  0  0  0  0  0
   20.3443   18.6128   21.0984 H   0  0  0  0  0  0  0  0  0  0  0  0
   19.9775   20.2778   21.5140 H   0  0  0  0  0  0  0  0  0  0  0  0
   21.3829   19.3138   22.8616 C   0  0  0  0  0  0  0  0  0  0  0  0
   21.2597   20.0719   23.6467 H   0  0  0  0  0  0  0  0  0  0  0  0
   22.2479   19.6372   22.2657 H   0  0  0  0  0  0  0  0  0  0  0  0
   21.7010   17.9440   23.5032 C   0  0  0  0  0  0  0  0  0  0  0  0
   21.8259   17.1682   22.7366 H   0  0  0  0  0  0  0  0  0  0  0  0
   20.9054   17.6250   24.1883 H   0  0  0  0  0  0  0  0  0  0  0  0
   22.6329   17.9970   24.0809 H   0  0  0  0  0  0  0  0  0  0  0  0
  1  2  1  0  0  0  0
  1  3  1  0  0  0  0
  1  4  1  0  0  0  0
  1  5  1  0  0  0  0
  5  6  1  0  0  0  0
  5  7  1  0  0  0  0
  7  8  1  0  0  0  0
  7  9  1  0  0  0  0
  7 10  1  0  0  0  0
  5 11  1  0  0  0  0
 11 12  1  0  0  0  0
 11 13  1  0  0  0  0
 11 14  1  0  0  0  0
 14 15  1  0  0  0  0
 14 16  1  0  0  0  0
 14 17  1  0  0  0  0
 17 18  1  0  0  0  0
 17 19  1  0  0  0  0
 17 20  1  0  0  0  0
M  END
> <VConfSearch Rank>
238

> <Conf_Id>
64

> <Delta U+W>
0.544

> <U+W>
-35.732

> <U>
22.800

> <W>
-58.532

> <W(PB)>
-60.437

> <W(SA)>
1.905

> <Valence>
2.662

> <Coulomb>
19.485

> <VdW>
0.653

> <VdW6>
-5.460

> <VdW12>
6.113

> <Bond>
0.174

> <Angle>
1.378

> <Pdih>
1.109

> <Idih>
0.000

> <Tether>
0.000

$$$$
VeraChem MOL file


 20 19  0  0  0  0  0  0  0  0999 V2000     
   21.4667   17.6606   22.9138 N   0  3  0  0  0  0  0  0  0  0  0  0
   20.7114   16.9829   22.7891 H   0  0  0  0  0  0  0  0  0  0  0  0
   22.0252   17.3520   23.7140 H   0  0  0  0  0  0  0  0  0  0  0  0
   22.0668   17.6075   22.0863 H   0  0  0  0  0  0  0  0  0  0  0  0
   20.9305   19.0515   23.1205 C   0  0  2  0  0  0  0  0  0  0  0  0
   21.8071   19.6933   23.2540 H   0  0  0  0  0  0  0  0  0  0  0  0
   20.1010   19.1328   24.4124 C   0  0  0  0  0  0  0  0  0  0  0  0
   19.2754   18.4117   24.4055 H   0  0  0  0  0  0  0  0  0  0  0  0
   19.6855   20.1390   24.5477 H   0  0  0  0  0  0  0  0  0  0  0  0
   20.7284   18.9122   25.2846 H   0  0  0  0  0  0  0  0  0  0  0  0
   20.1688   19.5802   21.8791 C   0  0  0  0  0  0  0  0  0  0  0  0
   19.9530   20.6485   22.0119 H   0  0  0  0  0  0  0  0  0  0  0  0
   20.8577   19.5297   21.0257 H   0  0  0  0  0  0  0  0  0  0  0  0
   18.8662   18.8229   21.4984 C   0  0  0  0  0  0  0  0  0  0  0  0
   18.9342   17.7626   21.7752 H   0  0  0  0  0  0  0  0  0  0  0  0
   18.7631   18.8402   20.4043 H   0  0  0  0  0  0  0  0  0  0  0  0
   17.5877   19.4498   22.1027 C   0  0  0  0  0  0  0  0  0  0  0  0
   17.5945   19.4289   23.1979 H   0  0  0  0  0  0  0  0  0  0  0  0
   16.6972   18.9024   21.7674 H   0  0  0  0  0  0  0  0  0  0  0  0
   17.4741   20.4943   21.7846 H   0  0  0  0  0  0  0  0  0  0  0  0
  1  2  1  0  0  0  0
  1  3  1  0  0  0  0
  1  4  1  0  0  0  0
  1  5  1  0  0  0  0
  5  6  1  0  0  0  0
  5  7  1  0  0  0  0
  7  8  1  0  0  0  0
  7  9  1  0  0  0  0
  7 10  1  0  0  0  0
  5 11  1  0  0  0  0
 11 12  1  0  0  0  0
 11 13  1  0  0  0  0
 11 14  1  0  0  0  0
 14 15  1  0  0  0  0
 14 16  1  0  0  0  0
 14 17  1  0  0  0  0
 17 18  1  0  0  0  0
 17 19  1  0  0  0  0
 17 20  1  0  0  0  0
M  END
> <VConfSearch Rank>
239

> <Conf_Id>
35

> <Delta U+W>
3.004

> <U+W>
-33.272

> <U>
25.367

> <W>
-58.639

> <W(PB)>
-60.512

> <W(SA)>
1.873

> <Valence>
4.943

> <Coulomb>
19.661

> <VdW>
0.764

> <VdW6>
-5.871

> <VdW12>
6.636

> <Bond>
0.230

> <Angle>
1.857

> <Pdih>
2.855

> <Idih>
0.000

> <Tether>
0.000

$$$$
VeraChem MOL file


 20 19  0  0  0  0  0  0  0  0999 V2000     
   19.0332   18.1717   21.3030 N   0  3  0  0  0  0  0  0  0  0  0  0
   18.1738   17.6563   21.0950 H   0  0  0  0  0  0  0  0  0  0  0  0
   19.6987   17.9701   20.5519 H   0  0  0  0  0  0  0  0  0  0  0  0
   18.8150   19.1689   21.2588 H   0  0  0  0  0  0  0  0  0  0  0  0
   19.5907   17.7955   22.6484 C   0  0  2  0  0  0  0  0  0  0  0  0
   19.8121   16.7257   22.5808 H   0  0  0  0  0  0  0  0  0  0  0  0
   18.5429   17.9769   23.7610 C   0  0  0  0  0  0  0  0  0  0  0  0
   18.1990   19.0159   23.8278 H   0  0  0  0  0  0  0  0  0  0  0  0
   18.9561   17.6875   24.7352 H   0  0  0  0  0  0  0  0  0  0  0  0
   17.6668   17.3451   23.5705 H   0  0  0  0  0  0  0  0  0  0  0  0
   20.9274   18.5102   22.9734 C   0  0  0  0  0  0  0  0  0  0  0  0
   21.4079   17.9597   23.7929 H   0  0  0  0  0  0  0  0  0  0  0  0
   21.6047   18.4042   22.1159 H   0  0  0  0  0  0  0  0  0  0  0  0
   20.8537   20.0071   23.3862 C   0  0  0  0  0  0  0  0  0  0  0  0
   21.8724   20.3440   23.6237 H   0  0  0  0  0  0  0  0  0  0  0  0
   20.2825   20.1176   24.3179 H   0  0  0  0  0  0  0  0  0  0  0  0
   20.2721   20.9467   22.3055 C   0  0  0  0  0  0  0  0  0  0  0  0
   20.7684   20.7962   21.3379 H   0  0  0  0  0  0  0  0  0  0  0  0
   20.4194   21.9953   22.5949 H   0  0  0  0  0  0  0  0  0  0  0  0
   19.1938   20.7972   22.1783 H   0  0  0  0  0  0  0  0  0  0  0  0
  1  2  1  0  0  0  0
  1  3  1  0  0  0  0
  1  4  1  0  0  0  0
  1  5  1  0  0  0  0
  5  6  1  0  0  0  0
  5  7  1  0  0  0  0
  7  8  1  0  0  0  0
  7  9  1  0  0  0  0
  7 10  1  0  0  0  0
  5 11  1  0  0  0  0
 11 12  1  0  0  0  0
 11 13  1  0  0  0  0
 11 14  1  0  0  0  0
 14 15  1  0  0  0  0
 14 16  1  0  0  0  0
 14 17  1  0  0  0  0
 17 18  1  0  0  0  0
 17 19  1  0  0  0  0
 17 20  1  0  0  0  0
M  END
> <VConfSearch Rank>
240

> <Conf_Id>
55

> <Delta U+W>
2.767

> <U+W>
-33.509

> <U>
24.552

> <W>
-58.061

> <W(PB)>
-59.930

> <W(SA)>
1.869

> <Valence>
3.726

> <Coulomb>
20.219

> <VdW>
0.606

> <VdW6>
-6.395

> <VdW12>
7.001

> <Bond>
0.241

> <Angle>
2.098

> <Pdih>
1.387

> <Idih>
0.000

> <Tether>
0.000

$$$$
VeraChem MOL file


 20 19  0  0  0  0  0  0  0  0999 V2000     
   20.3140   17.1235   22.2615 N   0  3  0  0  0  0  0  0  0  0  0  0
   19.3918   16.6828   22.3053 H   0  0  0  0  0  0  0  0  0  0  0  0
   21.0102   16.3913   22.4253 H   0  0  0  0  0  0  0  0  0  0  0  0
   20.4482   17.4617   21.3054 H   0  0  0  0  0  0  0  0  0  0  0  0
   20.4405   18.2383   23.2647 C   0  0  2  0  0  0  0  0  0  0  0  0
   21.4463   18.6538   23.1484 H   0  0  0  0  0  0  0  0  0  0  0  0
   20.3075   17.6940   24.6965 C   0  0  0  0  0  0  0  0  0  0  0  0
   21.0554   16.9145   24.8869 H   0  0  0  0  0  0  0  0  0  0  0  0
   19.3132   17.2626   24.8669 H   0  0  0  0  0  0  0  0  0  0  0  0
   20.4644   18.4916   25.4332 H   0  0  0  0  0  0  0  0  0  0  0  0
   19.4192   19.3719   23.0242 C   0  0  0  0  0  0  0  0  0  0  0  0
   18.3989   18.9753   23.1120 H   0  0  0  0  0  0  0  0  0  0  0  0
   19.5316   20.1239   23.8167 H   0  0  0  0  0  0  0  0  0  0  0  0
   19.5949   20.0643   21.6512 C   0  0  0  0  0  0  0  0  0  0  0  0
   19.4312   19.3436   20.8386 H   0  0  0  0  0  0  0  0  0  0  0  0
   20.6268   20.4294   21.5499 H   0  0  0  0  0  0  0  0  0  0  0  0
   18.6159   21.2455   21.4791 C   0  0  0  0  0  0  0  0  0  0  0  0
   17.5735   20.9074   21.5450 H   0  0  0  0  0  0  0  0  0  0  0  0
   18.7533   21.7236   20.5005 H   0  0  0  0  0  0  0  0  0  0  0  0
   18.7771   22.0088   22.2515 H   0  0  0  0  0  0  0  0  0  0  0  0
  1  2  1  0  0  0  0
  1  3  1  0  0  0  0
  1  4  1  0  0  0  0
  1  5  1  0  0  0  0
  5  6  1  0  0  0  0
  5  7  1  0  0  0  0
  7  8  1  0  0  0  0
  7  9  1  0  0  0  0
  7 10  1  0  0  0  0
  5 11  1  0  0  0  0
 11 12  1  0  0  0  0
 11 13  1  0  0  0  0
 11 14  1  0  0  0  0
 14 15  1  0  0  0  0
 14 16  1  0  0  0  0
 14 17  1  0  0  0  0
 17 18  1  0  0  0  0
 17 19  1  0  0  0  0
 17 20  1  0  0  0  0
M  END
> <VConfSearch Rank>
241

> <Conf_Id>
74

> <Delta U+W>
0.000

> <U+W>
-36.276

> <U>
22.080

> <W>
-58.356

> <W(PB)>
-60.289

> <W(SA)>
1.932

> <Valence>
1.885

> <Coulomb>
19.559

> <VdW>
0.637

> <VdW6>
-4.482

> <VdW12>
5.119

> <Bond>
0.136

> <Angle>
0.867

> <Pdih>
0.882

> <Idih>
0.000

> <Tether>
0.000

$$$$
VeraChem MOL file


 20 19  0  0  0  0  0  0  0  0999 V2000     
   17.5102   19.5483   23.3287 N   0  3  0  0  0  0  0  0  0  0  0  0
   17.1502   18.6718   23.7159 H   0  0  0  0  0  0  0  0  0  0  0  0
   17.1261   19.6472   22.3856 H   0  0  0  0  0  0  0  0  0  0  0  0
   17.1256   20.3093   23.8950 H   0  0  0  0  0  0  0  0  0  0  0  0
   19.0141   19.5751   23.3186 C   0  0  2  0  0  0  0  0  0  0  0  0
   19.3312   19.4671   24.3606 H   0  0  0  0  0  0  0  0  0  0  0  0
   19.5204   20.9316   22.7947 C   0  0  0  0  0  0  0  0  0  0  0  0
   19.0580   21.7571   23.3497 H   0  0  0  0  0  0  0  0  0  0  0  0
   19.2817   21.0610   21.7318 H   0  0  0  0  0  0  0  0  0  0  0  0
   20.6053   21.0275   22.9177 H   0  0  0  0  0  0  0  0  0  0  0  0
   19.5893   18.3873   22.5126 C   0  0  0  0  0  0  0  0  0  0  0  0
   19.1085   17.4645   22.8630 H   0  0  0  0  0  0  0  0  0  0  0  0
   19.3205   18.4946   21.4533 H   0  0  0  0  0  0  0  0  0  0  0  0
   21.1230   18.2241   22.6477 C   0  0  0  0  0  0  0  0  0  0  0  0
   21.3989   18.1801   23.7107 H   0  0  0  0  0  0  0  0  0  0  0  0
   21.6382   19.0947   22.2205 H   0  0  0  0  0  0  0  0  0  0  0  0
   21.6251   16.9494   21.9358 C   0  0  0  0  0  0  0  0  0  0  0  0
   21.1650   16.0494   22.3641 H   0  0  0  0  0  0  0  0  0  0  0  0
   22.7137   16.8514   22.0382 H   0  0  0  0  0  0  0  0  0  0  0  0
   21.3892   16.9768   20.8639 H   0  0  0  0  0  0  0  0  0  0  0  0
  1  2  1  0  0  0  0
  1  3  1  0  0  0  0
  1  4  1  0  0  0  0
  1  5  1  0  0  0  0
  5  6  1  0  0  0  0
  5  7  1  0  0  0  0
  7  8  1  0  0  0  0
  7  9  1  0  0  0  0
  7 10  1  0  0  0  0
  5 11  1  0  0  0  0
 11 12  1  0  0  0  0
 11 13  1  0  0  0  0
 11 14  1  0  0  0  0
 14 15  1  0  0  0  0
 14 16  1  0  0  0  0
 14 17  1  0  0  0  0
 17 18  1  0  0  0  0
 17 19  1  0  0  0  0
 17 20  1  0  0  0  0
M  END
> <VConfSearch Rank>
242

> <Conf_Id>
80

> <Delta U+W>
0.460

> <U+W>
-35.817

> <U>
22.495

> <W>
-58.311

> <W(PB)>
-60.259

> <W(SA)>
1.948

> <Valence>
2.419

> <Coulomb>
19.304

> <VdW>
0.772

> <VdW6>
-4.635

> <VdW12>
5.407

> <Bond>
0.149

> <Angle>
1.142

> <Pdih>
1.129

> <Idih>
0.000

> <Tether>
0.000

$$$$
VeraChem MOL file


 20 19  0  0  0  0  0  0  0  0999 V2000     
   19.9470   18.3055   25.0507 N   0  3  0  0  0  0  0  0  0  0  0  0
   20.7191   18.8098   25.4951 H   0  0  0  0  0  0  0  0  0  0  0  0
   20.2657   17.3490   24.8765 H   0  0  0  0  0  0  0  0  0  0  0  0
   19.1871   18.2531   25.7343 H   0  0  0  0  0  0  0  0  0  0  0  0
   19.5007   18.9785   23.7816 C   0  0  2  0  0  0  0  0  0  0  0  0
   19.1753   19.9839   24.0663 H   0  0  0  0  0  0  0  0  0  0  0  0
   18.2935   18.2372   23.1821 C   0  0  0  0  0  0  0  0  0  0  0  0
   17.5186   18.0803   23.9423 H   0  0  0  0  0  0  0  0  0  0  0  0
   18.5851   17.2570   22.7851 H   0  0  0  0  0  0  0  0  0  0  0  0
   17.8370   18.8198   22.3738 H   0  0  0  0  0  0  0  0  0  0  0  0
   20.6765   19.1190   22.7840 C   0  0  0  0  0  0  0  0  0  0  0  0
   21.4969   19.6237   23.3110 H   0  0  0  0  0  0  0  0  0  0  0  0
   21.0625   18.1281   22.5105 H   0  0  0  0  0  0  0  0  0  0  0  0
   20.3584   19.9421   21.5076 C   0  0  0  0  0  0  0  0  0  0  0  0
   21.2479   20.5292   21.2388 H   0  0  0  0  0  0  0  0  0  0  0  0
   19.5654   20.6748   21.7131 H   0  0  0  0  0  0  0  0  0  0  0  0
   19.9808   19.0665   20.2895 C   0  0  0  0  0  0  0  0  0  0  0  0
   20.7992   18.3825   20.0297 H   0  0  0  0  0  0  0  0  0  0  0  0
   19.7823   19.6950   19.4116 H   0  0  0  0  0  0  0  0  0  0  0  0
   19.0847   18.4640   20.4752 H   0  0  0  0  0  0  0  0  0  0  0  0
  1  2  1  0  0  0  0
  1  3  1  0  0  0  0
  1  4  1  0  0  0  0
  1  5  1  0  0  0  0
  5  6  1  0  0  0  0
  5  7  1  0  0  0  0
  7  8  1  0  0  0  0
  7  9  1  0  0  0  0
  7 10  1  0  0  0  0
  5 11  1  0  0  0  0
 11 12  1  0  0  0  0
 11 13  1  0  0  0  0
 11 14  1  0  0  0  0
 14 15  1  0  0  0  0
 14 16  1  0  0  0  0
 14 17  1  0  0  0  0
 17 18  1  0  0  0  0
 17 19  1  0  0  0  0
 17 20  1  0  0  0  0
M  END
> <VConfSearch Rank>
243

> <Conf_Id>
52

> <Delta U+W>
2.995

> <U+W>
-33.282

> <U>
25.224

> <W>
-58.506

> <W(PB)>
-60.411

> <W(SA)>
1.905

> <Valence>
4.945

> <Coulomb>
19.467

> <VdW>
0.813

> <VdW6>
-5.458

> <VdW12>
6.270

> <Bond>
0.200

> <Angle>
1.675

> <Pdih>
3.070

> <Idih>
0.000

> <Tether>
0.000

$$$$
VeraChem MOL file


 20 19  0  0  0  0  0  0  0  0999 V2000     
   20.7388   20.0324   23.5327 N   0  3  0  0  0  0  0  0  0  0  0  0
   20.1950   20.8924   23.6378 H   0  0  0  0  0  0  0  0  0  0  0  0
   21.7269   20.2814   23.6290 H   0  0  0  0  0  0  0  0  0  0  0  0
   20.4968   19.4199   24.3145 H   0  0  0  0  0  0  0  0  0  0  0  0
   20.4628   19.3670   22.2119 C   0  0  2  0  0  0  0  0  0  0  0  0
   21.1118   18.4878   22.1522 H   0  0  0  0  0  0  0  0  0  0  0  0
   20.8342   20.3177   21.0613 C   0  0  0  0  0  0  0  0  0  0  0  0
   20.1997   21.2128   21.0653 H   0  0  0  0  0  0  0  0  0  0  0  0
   20.7180   19.8207   20.0902 H   0  0  0  0  0  0  0  0  0  0  0  0
   21.8796   20.6393   21.1447 H   0  0  0  0  0  0  0  0  0  0  0  0
   18.9949   18.8980   22.0718 C   0  0  0  0  0  0  0  0  0  0  0  0
   18.3138   19.7028   22.3782 H   0  0  0  0  0  0  0  0  0  0  0  0
   18.7854   18.7167   21.0091 H   0  0  0  0  0  0  0  0  0  0  0  0
   18.6543   17.5906   22.8341 C   0  0  0  0  0  0  0  0  0  0  0  0
   19.3090   16.7786   22.4875 H   0  0  0  0  0  0  0  0  0  0  0  0
   17.6323   17.2919   22.5614 H   0  0  0  0  0  0  0  0  0  0  0  0
   18.7354   17.6968   24.3740 C   0  0  0  0  0  0  0  0  0  0  0  0
   18.2908   16.8072   24.8390 H   0  0  0  0  0  0  0  0  0  0  0  0
   18.1874   18.5734   24.7436 H   0  0  0  0  0  0  0  0  0  0  0  0
   19.7735   17.7528   24.7214 H   0  0  0  0  0  0  0  0  0  0  0  0
  1  2  1  0  0  0  0
  1  3  1  0  0  0  0
  1  4  1  0  0  0  0
  1  5  1  0  0  0  0
  5  6  1  0  0  0  0
  5  7  1  0  0  0  0
  7  8  1  0  0  0  0
  7  9  1  0  0  0  0
  7 10  1  0  0  0  0
  5 11  1  0  0  0  0
 11 12  1  0  0  0  0
 11 13  1  0  0  0  0
 11 14  1  0  0  0  0
 14 15  1  0  0  0  0
 14 16  1  0  0  0  0
 14 17  1  0  0  0  0
 17 18  1  0  0  0  0
 17 19  1  0  0  0  0
 17 20  1  0  0  0  0
M  END
> <VConfSearch Rank>
244

> <Conf_Id>
54

> <Delta U+W>
2.752

> <U+W>
-33.525

> <U>
24.337

> <W>
-57.862

> <W(PB)>
-59.764

> <W(SA)>
1.901

> <Valence>
3.593

> <Coulomb>
20.067

> <VdW>
0.677

> <VdW6>
-5.466

> <VdW12>
6.144

> <Bond>
0.191

> <Angle>
1.557

> <Pdih>
1.845

> <Idih>
0.000

> <Tether>
0.000

$$$$
VeraChem MOL file


 20 19  0  0  0  0  0  0  0  0999 V2000     
   19.0945   18.3830   24.5683 N   0  3  0  0  0  0  0  0  0  0  0  0
   18.3941   18.5637   25.2925 H   0  0  0  0  0  0  0  0  0  0  0  0
   19.9397   18.0496   25.0397 H   0  0  0  0  0  0  0  0  0  0  0  0
   18.7436   17.6174   23.9884 H   0  0  0  0  0  0  0  0  0  0  0  0
   19.3680   19.6140   23.7474 C   0  0  2  0  0  0  0  0  0  0  0  0
   19.7192   20.3752   24.4512 H   0  0  0  0  0  0  0  0  0  0  0  0
   18.0770   20.1436   23.0979 C   0  0  0  0  0  0  0  0  0  0  0  0
   18.2809   21.0398   22.4990 H   0  0  0  0  0  0  0  0  0  0  0  0
   17.3453   20.4181   23.8675 H   0  0  0  0  0  0  0  0  0  0  0  0
   17.6124   19.3935   22.4472 H   0  0  0  0  0  0  0  0  0  0  0  0
   20.4946   19.3960   22.7091 C   0  0  0  0  0  0  0  0  0  0  0  0
   20.7046   20.3514   22.2103 H   0  0  0  0  0  0  0  0  0  0  0  0
   21.4142   19.1284   23.2460 H   0  0  0  0  0  0  0  0  0  0  0  0
   20.1978   18.3142   21.6385 C   0  0  0  0  0  0  0  0  0  0  0  0
   19.3093   18.5904   21.0553 H   0  0  0  0  0  0  0  0  0  0  0  0
   19.9762   17.3532   22.1217 H   0  0  0  0  0  0  0  0  0  0  0  0
   21.3895   18.1294   20.6747 C   0  0  0  0  0  0  0  0  0  0  0  0
   21.1641   17.3628   19.9219 H   0  0  0  0  0  0  0  0  0  0  0  0
   22.2909   17.8139   21.2162 H   0  0  0  0  0  0  0  0  0  0  0  0
   21.6182   19.0636   20.1453 H   0  0  0  0  0  0  0  0  0  0  0  0
  1  2  1  0  0  0  0
  1  3  1  0  0  0  0
  1  4  1  0  0  0  0
  1  5  1  0  0  0  0
  5  6  1  0  0  0  0
  5  7  1  0  0  0  0
  7  8  1  0  0  0  0
  7  9  1  0  0  0  0
  7 10  1  0  0  0  0
  5 11  1  0  0  0  0
 11 12  1  0  0  0  0
 11 13  1  0  0  0  0
 11 14  1  0  0  0  0
 14 15  1  0  0  0  0
 14 16  1  0  0  0  0
 14 17  1  0  0  0  0
 17 18  1  0  0  0  0
 17 19  1  0  0  0  0
 17 20  1  0  0  0  0
M  END
> <VConfSearch Rank>
245

> <Conf_Id>
63

> <Delta U+W>
0.420

> <U+W>
-35.856

> <U>
22.625

> <W>
-58.481

> <W(PB)>
-60.400

> <W(SA)>
1.919

> <Valence>
2.404

> <Coulomb>
19.464

> <VdW>
0.757

> <VdW6>
-5.074

> <VdW12>
5.830

> <Bond>
0.172

> <Angle>
1.207

> <Pdih>
1.025

> <Idih>
0.000

> <Tether>
0.000

$$$$
VeraChem MOL file


 20 19  0  0  0  0  0  0  0  0999 V2000     
   21.0793   19.8151   23.4650 N   0  3  0  0  0  0  0  0  0  0  0  0
   20.5184   19.8358   24.3205 H   0  0  0  0  0  0  0  0  0  0  0  0
   21.1365   20.7732   23.1110 H   0  0  0  0  0  0  0  0  0  0  0  0
   22.0263   19.5288   23.7272 H   0  0  0  0  0  0  0  0  0  0  0  0
   20.4841   18.8846   22.4432 C   0  0  2  0  0  0  0  0  0  0  0  0
   20.4626   17.8898   22.8983 H   0  0  0  0  0  0  0  0  0  0  0  0
   21.3701   18.8173   21.1886 C   0  0  0  0  0  0  0  0  0  0  0  0
   22.3881   18.5020   21.4485 H   0  0  0  0  0  0  0  0  0  0  0  0
   21.4311   19.7938   20.6921 H   0  0  0  0  0  0  0  0  0  0  0  0
   20.9713   18.0922   20.4684 H   0  0  0  0  0  0  0  0  0  0  0  0
   19.0381   19.2738   22.0606 C   0  0  0  0  0  0  0  0  0  0  0  0
   19.0408   20.2643   21.5864 H   0  0  0  0  0  0  0  0  0  0  0  0
   18.6682   18.5718   21.3015 H   0  0  0  0  0  0  0  0  0  0  0  0
   18.0469   19.2850   23.2519 C   0  0  0  0  0  0  0  0  0  0  0  0
   17.0539   19.5759   22.8816 H   0  0  0  0  0  0  0  0  0  0  0  0
   18.3353   20.0562   23.9790 H   0  0  0  0  0  0  0  0  0  0  0  0
   17.9357   17.9157   23.9605 C   0  0  0  0  0  0  0  0  0  0  0  0
   17.6480   17.1275   23.2526 H   0  0  0  0  0  0  0  0  0  0  0  0
   17.1729   17.9516   24.7490 H   0  0  0  0  0  0  0  0  0  0  0  0
   18.8835   17.6248   24.4307 H   0  0  0  0  0  0  0  0  0  0  0  0
  1  2  1  0  0  0  0
  1  3  1  0  0  0  0
  1  4  1  0  0  0  0
  1  5  1  0  0  0  0
  5  6  1  0  0  0  0
  5  7  1  0  0  0  0
  7  8  1  0  0  0  0
  7  9  1  0  0  0  0
  7 10  1  0  0  0  0
  5 11  1  0  0  0  0
 11 12  1  0  0  0  0
 11 13  1  0  0  0  0
 11 14  1  0  0  0  0
 14 15  1  0  0  0  0
 14 16  1  0  0  0  0
 14 17  1  0  0  0  0
 17 18  1  0  0  0  0
 17 19  1  0  0  0  0
 17 20  1  0  0  0  0
M  END
> <VConfSearch Rank>
246

> <Conf_Id>
50

> <Delta U+W>
0.466

> <U+W>
-35.811

> <U>
22.369

> <W>
-58.180

> <W(PB)>
-60.103

> <W(SA)>
1.923

> <Valence>
2.168

> <Coulomb>
19.636

> <VdW>
0.566

> <VdW6>
-5.263

> <VdW12>
5.829

> <Bond>
0.162

> <Angle>
1.066

> <Pdih>
0.939

> <Idih>
0.000

> <Tether>
0.000

$$$$
VeraChem MOL file


 20 19  0  0  0  0  0  0  0  0999 V2000     
   21.8039   18.2731   22.0540 N   0  3  0  0  0  0  0  0  0  0  0  0
   22.3323   18.1209   22.9176 H   0  0  0  0  0  0  0  0  0  0  0  0
   22.2089   19.0877   21.5857 H   0  0  0  0  0  0  0  0  0  0  0  0
   21.9695   17.4623   21.4516 H   0  0  0  0  0  0  0  0  0  0  0  0
   20.3367   18.4654   22.3276 C   0  0  2  0  0  0  0  0  0  0  0  0
   19.9980   17.5528   22.8279 H   0  0  0  0  0  0  0  0  0  0  0  0
   19.5687   18.6154   21.0011 C   0  0  0  0  0  0  0  0  0  0  0  0
   19.9121   19.4954   20.4430 H   0  0  0  0  0  0  0  0  0  0  0  0
   18.4917   18.7232   21.1691 H   0  0  0  0  0  0  0  0  0  0  0  0
   19.7173   17.7330   20.3669 H   0  0  0  0  0  0  0  0  0  0  0  0
   20.0775   19.6603   23.2779 C   0  0  0  0  0  0  0  0  0  0  0  0
   21.0132   19.9225   23.7892 H   0  0  0  0  0  0  0  0  0  0  0  0
   19.7946   20.5527   22.7038 H   0  0  0  0  0  0  0  0  0  0  0  0
   19.0188   19.3733   24.3727 C   0  0  0  0  0  0  0  0  0  0  0  0
   18.9603   20.2439   25.0410 H   0  0  0  0  0  0  0  0  0  0  0  0
   19.3538   18.5323   24.9962 H   0  0  0  0  0  0  0  0  0  0  0  0
   17.6067   19.0730   23.8233 C   0  0  0  0  0  0  0  0  0  0  0  0
   17.2600   19.8766   23.1607 H   0  0  0  0  0  0  0  0  0  0  0  0
   16.8860   18.9841   24.6466 H   0  0  0  0  0  0  0  0  0  0  0  0
   17.5857   18.1280   23.2664 H   0  0  0  0  0  0  0  0  0  0  0  0
  1  2  1  0  0  0  0
  1  3  1  0  0  0  0
  1  4  1  0  0  0  0
  1  5  1  0  0  0  0
  5  6  1  0  0  0  0
  5  7  1  0  0  0  0
  7  8  1  0  0  0  0
  7  9  1  0  0  0  0
  7 10  1  0  0  0  0
  5 11  1  0  0  0  0
 11 12  1  0  0  0  0
 11 13  1  0  0  0  0
 11 14  1  0  0  0  0
 14 15  1  0  0  0  0
 14 16  1  0  0  0  0
 14 17  1  0  0  0  0
 17 18  1  0  0  0  0
 17 19  1  0  0  0  0
 17 20  1  0  0  0  0
M  END
> <VConfSearch Rank>
247

> <Conf_Id>
3

> <Delta U+W>
3.093

> <U+W>
-33.184

> <U>
25.256

> <W>
-58.439

> <W(PB)>
-60.337

> <W(SA)>
1.898

> <Valence>
4.963

> <Coulomb>
19.511

> <VdW>
0.782

> <VdW6>
-5.429

> <VdW12>
6.211

> <Bond>
0.174

> <Angle>
1.377

> <Pdih>
3.412

> <Idih>
0.000

> <Tether>
0.000

$$$$
VeraChem MOL file


 20 19  0  0  0  0  0  0  0  0999 V2000     
   18.0896   19.1863   24.3830 N   0  3  0  0  0  0  0  0  0  0  0  0
   18.1726   18.7699   25.3143 H   0  0  0  0  0  0  0  0  0  0  0  0
   17.2476   18.7958   23.9511 H   0  0  0  0  0  0  0  0  0  0  0  0
   17.9311   20.1889   24.5114 H   0  0  0  0  0  0  0  0  0  0  0  0
   19.3142   18.9227   23.5504 C   0  0  2  0  0  0  0  0  0  0  0  0
   19.4032   17.8350   23.4720 H   0  0  0  0  0  0  0  0  0  0  0  0
   20.5697   19.4634   24.2585 C   0  0  0  0  0  0  0  0  0  0  0  0
   21.4836   19.1583   23.7358 H   0  0  0  0  0  0  0  0  0  0  0  0
   20.6353   19.0726   25.2813 H   0  0  0  0  0  0  0  0  0  0  0  0
   20.5541   20.5589   24.3131 H   0  0  0  0  0  0  0  0  0  0  0  0
   19.1569   19.5016   22.1240 C   0  0  0  0  0  0  0  0  0  0  0  0
   18.2077   19.1449   21.7029 H   0  0  0  0  0  0  0  0  0  0  0  0
   19.0721   20.5948   22.1828 H   0  0  0  0  0  0  0  0  0  0  0  0
   20.2959   19.1345   21.1386 C   0  0  0  0  0  0  0  0  0  0  0  0
   21.2414   19.5909   21.4611 H   0  0  0  0  0  0  0  0  0  0  0  0
   20.0688   19.5761   20.1582 H   0  0  0  0  0  0  0  0  0  0  0  0
   20.4827   17.6095   20.9695 C   0  0  0  0  0  0  0  0  0  0  0  0
   19.5483   17.1301   20.6497 H   0  0  0  0  0  0  0  0  0  0  0  0
   20.8086   17.1369   21.9046 H   0  0  0  0  0  0  0  0  0  0  0  0
   21.2452   17.3974   20.2088 H   0  0  0  0  0  0  0  0  0  0  0  0
  1  2  1  0  0  0  0
  1  3  1  0  0  0  0
  1  4  1  0  0  0  0
  1  5  1  0  0  0  0
  5  6  1  0  0  0  0
  5  7  1  0  0  0  0
  7  8  1  0  0  0  0
  7  9  1  0  0  0  0
  7 10  1  0  0  0  0
  5 11  1  0  0  0  0
 11 12  1  0  0  0  0
 11 13  1  0  0  0  0
 11 14  1  0  0  0  0
 14 15  1  0  0  0  0
 14 16  1  0  0  0  0
 14 17  1  0  0  0  0
 17 18  1  0  0  0  0
 17 19  1  0  0  0  0
 17 20  1  0  0  0  0
M  END
> <VConfSearch Rank>
248

> <Conf_Id>
64

> <Delta U+W>
0.544

> <U+W>
-35.732

> <U>
22.800

> <W>
-58.532

> <W(PB)>
-60.437

> <W(SA)>
1.905

> <Valence>
2.662

> <Coulomb>
19.485

> <VdW>
0.653

> <VdW6>
-5.460

> <VdW12>
6.113

> <Bond>
0.174

> <Angle>
1.378

> <Pdih>
1.109

> <Idih>
0.000

> <Tether>
0.000

$$$$
VeraChem MOL file


 20 19  0  0  0  0  0  0  0  0999 V2000     
   18.1538   19.4275   23.9415 N   0  3  0  0  0  0  0  0  0  0  0  0
   18.6526   20.3175   23.8757 H   0  0  0  0  0  0  0  0  0  0  0  0
   17.9380   19.2704   24.9296 H   0  0  0  0  0  0  0  0  0  0  0  0
   17.2627   19.5376   23.4501 H   0  0  0  0  0  0  0  0  0  0  0  0
   18.9659   18.2971   23.3690 C   0  0  2  0  0  0  0  0  0  0  0  0
   18.3565   17.3968   23.4959 H   0  0  0  0  0  0  0  0  0  0  0  0
   20.2612   18.0916   24.1713 C   0  0  0  0  0  0  0  0  0  0  0  0
   20.8642   19.0065   24.2015 H   0  0  0  0  0  0  0  0  0  0  0  0
   20.8672   17.2874   23.7362 H   0  0  0  0  0  0  0  0  0  0  0  0
   20.0300   17.8110   25.2061 H   0  0  0  0  0  0  0  0  0  0  0  0
   19.2164   18.4622   21.8489 C   0  0  0  0  0  0  0  0  0  0  0  0
   19.6548   17.5381   21.4496 H   0  0  0  0  0  0  0  0  0  0  0  0
   18.2359   18.5491   21.3625 H   0  0  0  0  0  0  0  0  0  0  0  0
   20.0804   19.6819   21.4235 C   0  0  0  0  0  0  0  0  0  0  0  0
   19.9470   20.5190   22.1213 H   0  0  0  0  0  0  0  0  0  0  0  0
   19.7156   20.0421   20.4513 H   0  0  0  0  0  0  0  0  0  0  0  0
   21.5837   19.3511   21.2701 C   0  0  0  0  0  0  0  0  0  0  0  0
   22.0340   19.0252   22.2141 H   0  0  0  0  0  0  0  0  0  0  0  0
   22.1375   20.2349   20.9278 H   0  0  0  0  0  0  0  0  0  0  0  0
   21.7374   18.5559   20.5292 H   0  0  0  0  0  0  0  0  0  0  0  0
  1  2  1  0  0  0  0
  1  3  1  0  0  0  0
  1  4  1  0  0  0  0
  1  5  1  0  0  0  0
  5  6  1  0  0  0  0
  5  7  1  0  0  0  0
  7  8  1  0  0  0  0
  7  9  1  0  0  0  0
  7 10  1  0  0  0  0
  5 11  1  0  0  0  0
 11 12  1  0  0  0  0
 11 13  1  0  0  0  0
 11 14  1  0  0  0  0
 14 15  1  0  0  0  0
 14 16  1  0  0  0  0
 14 17  1  0  0  0  0
 17 18  1  0  0  0  0
 17 19  1  0  0  0  0
 17 20  1  0  0  0  0
M  END
> <VConfSearch Rank>
249

> <Conf_Id>
35

> <Delta U+W>
3.004

> <U+W>
-33.272

> <U>
25.367

> <W>
-58.639

> <W(PB)>
-60.512

> <W(SA)>
1.873

> <Valence>
4.943

> <Coulomb>
19.661

> <VdW>
0.764

> <VdW6>
-5.871

> <VdW12>
6.636

> <Bond>
0.230

> <Angle>
1.857

> <Pdih>
2.855

> <Idih>
0.000

> <Tether>
0.000

$$$$
VeraChem MOL file


 20 19  0  0  0  0  0  0  0  0999 V2000     
   21.4664   18.3476   22.5287 N   0  3  0  0  0  0  0  0  0  0  0  0
   21.9758   17.6719   21.9528 H   0  0  0  0  0  0  0  0  0  0  0  0
   22.0399   18.5372   23.3550 H   0  0  0  0  0  0  0  0  0  0  0  0
   21.3976   19.2179   21.9978 H   0  0  0  0  0  0  0  0  0  0  0  0
   20.1052   17.8331   22.9093 C   0  0  2  0  0  0  0  0  0  0  0  0
   20.2915   16.9239   23.4895 H   0  0  0  0  0  0  0  0  0  0  0  0
   19.2916   17.4257   21.6681 C   0  0  0  0  0  0  0  0  0  0  0  0
   19.1433   18.2711   20.9858 H   0  0  0  0  0  0  0  0  0  0  0  0
   18.3064   17.0402   21.9582 H   0  0  0  0  0  0  0  0  0  0  0  0
   19.8084   16.6334   21.1130 H   0  0  0  0  0  0  0  0  0  0  0  0
   19.3262   18.8031   23.8343 C   0  0  0  0  0  0  0  0  0  0  0  0
   18.5142   18.2332   24.3049 H   0  0  0  0  0  0  0  0  0  0  0  0
   19.9816   19.1106   24.6595 H   0  0  0  0  0  0  0  0  0  0  0  0
   18.7012   20.0663   23.1783 C   0  0  0  0  0  0  0  0  0  0  0  0
   18.1521   20.6157   23.9557 H   0  0  0  0  0  0  0  0  0  0  0  0
   17.9467   19.7756   22.4348 H   0  0  0  0  0  0  0  0  0  0  0  0
   19.7223   21.0306   22.5330 C   0  0  0  0  0  0  0  0  0  0  0  0
   20.5373   21.2711   23.2280 H   0  0  0  0  0  0  0  0  0  0  0  0
   19.2322   21.9732   22.2565 H   0  0  0  0  0  0  0  0  0  0  0  0
   20.1506   20.6104   21.6158 H   0  0  0  0  0  0  0  0  0  0  0  0
  1  2  1  0  0  0  0
  1  3  1  0  0  0  0
  1  4  1  0  0  0  0
  1  5  1  0  0  0  0
  5  6  1  0  0  0  0
  5  7  1  0  0  0  0
  7  8  1  0  0  0  0
  7  9  1  0  0  0  0
  7 10  1  0  0  0  0
  5 11  1  0  0  0  0
 11 12  1  0  0  0  0
 11 13  1  0  0  0  0
 11 14  1  0  0  0  0
 14 15  1  0  0  0  0
 14 16  1  0  0  0  0
 14 17  1  0  0  0  0
 17 18  1  0  0  0  0
 17 19  1  0  0  0  0
 17 20  1  0  0  0  0
M  END
> <VConfSearch Rank>
250

> <Conf_Id>
55

> <Delta U+W>
2.767

> <U+W>
-33.509

> <U>
24.552

> <W>
-58.061

> <W(PB)>
-59.930

> <W(SA)>
1.869

> <Valence>
3.726

> <Coulomb>
20.219

> <VdW>
0.606

> <VdW6>
-6.395

> <VdW12>
7.001

> <Bond>
0.241

> <Angle>
2.098

> <Pdih>
1.387

> <Idih>
0.000

> <Tether>
0.000

$$$$
VeraChem MOL file


 20 19  0  0  0  0  0  0  0  0999 V2000     
   21.2022   19.9778   23.5669 N   0  3  0  0  0  0  0  0  0  0  0  0
   21.9567   19.6769   22.9451 H   0  0  0  0  0  0  0  0  0  0  0  0
   21.6306   20.2571   24.4536 H   0  0  0  0  0  0  0  0  0  0  0  0
   20.7807   20.8147   23.1565 H   0  0  0  0  0  0  0  0  0  0  0  0
   20.1840   18.8876   23.7665 C   0  0  2  0  0  0  0  0  0  0  0  0
   19.4173   19.2914   24.4350 H   0  0  0  0  0  0  0  0  0  0  0  0
   20.8249   17.6687   24.4503 C   0  0  0  0  0  0  0  0  0  0  0  0
   21.2796   17.9543   25.4068 H   0  0  0  0  0  0  0  0  0  0  0  0
   21.6054   17.2243   23.8201 H   0  0  0  0  0  0  0  0  0  0  0  0
   20.0728   16.8973   24.6574 H   0  0  0  0  0  0  0  0  0  0  0  0
   19.5004   18.4653   22.4472 C   0  0  0  0  0  0  0  0  0  0  0  0
   20.2533   18.0774   21.7482 H   0  0  0  0  0  0  0  0  0  0  0  0
   18.8106   17.6365   22.6554 H   0  0  0  0  0  0  0  0  0  0  0  0
   18.7100   19.6161   21.7792 C   0  0  0  0  0  0  0  0  0  0  0  0
   19.3888   20.4364   21.5092 H   0  0  0  0  0  0  0  0  0  0  0  0
   17.9812   20.0273   22.4919 H   0  0  0  0  0  0  0  0  0  0  0  0
   17.9707   19.1386   20.5108 C   0  0  0  0  0  0  0  0  0  0  0  0
   18.6764   18.7492   19.7654 H   0  0  0  0  0  0  0  0  0  0  0  0
   17.4172   19.9668   20.0497 H   0  0  0  0  0  0  0  0  0  0  0  0
   17.2511   18.3441   20.7478 H   0  0  0  0  0  0  0  0  0  0  0  0
  1  2  1  0  0  0  0
  1  3  1  0  0  0  0
  1  4  1  0  0  0  0
  1  5  1  0  0  0  0
  5  6  1  0  0  0  0
  5  7  1  0  0  0  0
  7  8  1  0  0  0  0
  7  9  1  0  0  0  0
  7 10  1  0  0  0  0
  5 11  1  0  0  0  0
 11 12  1  0  0  0  0
 11 13  1  0  0  0  0
 11 14  1  0  0  0  0
 14 15  1  0  0  0  0
 14 16  1  0  0  0  0
 14 17  1  0  0  0  0
 17 18  1  0  0  0  0
 17 19  1  0  0  0  0
 17 20  1  0  0  0  0
M  END
> <VConfSearch Rank>
251

> <Conf_Id>
74

> <Delta U+W>
0.000

> <U+W>
-36.276

> <U>
22.080

> <W>
-58.356

> <W(PB)>
-60.289

> <W(SA)>
1.932

> <Valence>
1.885

> <Coulomb>
19.559

> <VdW>
0.637

> <VdW6>
-4.482

> <VdW12>
5.119

> <Bond>
0.136

> <Angle>
0.867

> <Pdih>
0.882

> <Idih>
0.000

> <Tether>
0.000

$$$$
VeraChem MOL file


 20 19  0  0  0  0  0  0  0  0999 V2000     
   20.6323   19.4719   20.5682 N   0  3  0  0  0  0  0  0  0  0  0  0
   20.9896   20.4189   20.7214 H   0  0  0  0  0  0  0  0  0  0  0  0
   19.7469   19.5567   20.0626 H   0  0  0  0  0  0  0  0  0  0  0  0
   21.2928   18.9966   19.9473 H   0  0  0  0  0  0  0  0  0  0  0  0
   20.4601   18.7267   21.8633 C   0  0  2  0  0  0  0  0  0  0  0  0
   21.4501   18.6836   22.3280 H   0  0  0  0  0  0  0  0  0  0  0  0
   19.9873   17.2867   21.5919 C   0  0  0  0  0  0  0  0  0  0  0  0
   20.6499   16.7919   20.8712 H   0  0  0  0  0  0  0  0  0  0  0  0
   18.9696   17.2732   21.1827 H   0  0  0  0  0  0  0  0  0  0  0  0
   19.9980   16.6837   22.5071 H   0  0  0  0  0  0  0  0  0  0  0  0
   19.5092   19.4818   22.8210 C   0  0  0  0  0  0  0  0  0  0  0  0
   19.8397   20.5269   22.8861 H   0  0  0  0  0  0  0  0  0  0  0  0
   18.4966   19.5023   22.3965 H   0  0  0  0  0  0  0  0  0  0  0  0
   19.4633   18.8910   24.2513 C   0  0  0  0  0  0  0  0  0  0  0  0
   20.4835   18.8116   24.6525 H   0  0  0  0  0  0  0  0  0  0  0  0
   19.0490   17.8742   24.2307 H   0  0  0  0  0  0  0  0  0  0  0  0
   18.6071   19.7586   25.1989 C   0  0  0  0  0  0  0  0  0  0  0  0
   19.0144   20.7748   25.2815 H   0  0  0  0  0  0  0  0  0  0  0  0
   18.5825   19.3237   26.2066 H   0  0  0  0  0  0  0  0  0  0  0  0
   17.5726   19.8332   24.8392 H   0  0  0  0  0  0  0  0  0  0  0  0
  1  2  1  0  0  0  0
  1  3  1  0  0  0  0
  1  4  1  0  0  0  0
  1  5  1  0  0  0  0
  5  6  1  0  0  0  0
  5  7  1  0  0  0  0
  7  8  1  0  0  0  0
  7  9  1  0  0  0  0
  7 10  1  0  0  0  0
  5 11  1  0  0  0  0
 11 12  1  0  0  0  0
 11 13  1  0  0  0  0
 11 14  1  0  0  0  0
 14 15  1  0  0  0  0
 14 16  1  0  0  0  0
 14 17  1  0  0  0  0
 17 18  1  0  0  0  0
 17 19  1  0  0  0  0
 17 20  1  0  0  0  0
M  END
> <VConfSearch Rank>
252

> <Conf_Id>
80

> <Delta U+W>
0.460

> <U+W>
-35.817

> <U>
22.495

> <W>
-58.311

> <W(PB)>
-60.259

> <W(SA)>
1.948

> <Valence>
2.419

> <Coulomb>
19.304

> <VdW>
0.772

> <VdW6>
-4.635

> <VdW12>
5.407

> <Bond>
0.149

> <Angle>
1.142

> <Pdih>
1.129

> <Idih>
0.000

> <Tether>
0.000

$$$$
VeraChem MOL file


 20 19  0  0  0  0  0  0  0  0999 V2000     
   21.7283   18.3508   23.9871 N   0  3  0  0  0  0  0  0  0  0  0  0
   22.3963   17.8207   23.4209 H   0  0  0  0  0  0  0  0  0  0  0  0
   21.2592   17.6874   24.6088 H   0  0  0  0  0  0  0  0  0  0  0  0
   22.2706   18.9884   24.5762 H   0  0  0  0  0  0  0  0  0  0  0  0
   20.7422   19.0968   23.1305 C   0  0  2  0  0  0  0  0  0  0  0  0
   21.3308   19.7799   22.5102 H   0  0  0  0  0  0  0  0  0  0  0  0
   19.8031   19.9394   24.0105 C   0  0  0  0  0  0  0  0  0  0  0  0
   20.3782   20.5449   24.7217 H   0  0  0  0  0  0  0  0  0  0  0  0
   19.1157   19.3035   24.5820 H   0  0  0  0  0  0  0  0  0  0  0  0
   19.2126   20.6336   23.4019 H   0  0  0  0  0  0  0  0  0  0  0  0
   19.9801   18.1308   22.1907 C   0  0  0  0  0  0  0  0  0  0  0  0
   20.7299   17.5519   21.6353 H   0  0  0  0  0  0  0  0  0  0  0  0
   19.4132   17.3974   22.7792 H   0  0  0  0  0  0  0  0  0  0  0  0
   19.0531   18.8195   21.1544 C   0  0  0  0  0  0  0  0  0  0  0  0
   19.0986   18.2538   20.2132 H   0  0  0  0  0  0  0  0  0  0  0  0
   19.4253   19.8264   20.9183 H   0  0  0  0  0  0  0  0  0  0  0  0
   17.5730   18.8828   21.5998 C   0  0  0  0  0  0  0  0  0  0  0  0
   17.1700   17.8751   21.7650 H   0  0  0  0  0  0  0  0  0  0  0  0
   16.9595   19.3629   20.8264 H   0  0  0  0  0  0  0  0  0  0  0  0
   17.4441   19.4530   22.5264 H   0  0  0  0  0  0  0  0  0  0  0  0
  1  2  1  0  0  0  0
  1  3  1  0  0  0  0
  1  4  1  0  0  0  0
  1  5  1  0  0  0  0
  5  6  1  0  0  0  0
  5  7  1  0  0  0  0
  7  8  1  0  0  0  0
  7  9  1  0  0  0  0
  7 10  1  0  0  0  0
  5 11  1  0  0  0  0
 11 12  1  0  0  0  0
 11 13  1  0  0  0  0
 11 14  1  0  0  0  0
 14 15  1  0  0  0  0
 14 16  1  0  0  0  0
 14 17  1  0  0  0  0
 17 18  1  0  0  0  0
 17 19  1  0  0  0  0
 17 20  1  0  0  0  0
M  END
> <VConfSearch Rank>
253

> <Conf_Id>
52

> <Delta U+W>
2.995

> <U+W>
-33.282

> <U>
25.224

> <W>
-58.506

> <W(PB)>
-60.411

> <W(SA)>
1.905

> <Valence>
4.945

> <Coulomb>
19.467

> <VdW>
0.813

> <VdW6>
-5.458

> <VdW12>
6.270

> <Bond>
0.200

> <Angle>
1.675

> <Pdih>
3.070

> <Idih>
0.000

> <Tether>
0.000

$$$$
VeraChem MOL file


 20 19  0  0  0  0  0  0  0  0999 V2000     
   19.0654   19.0873   21.2741 N   0  3  0  0  0  0  0  0  0  0  0  0
   18.6043   20.0000   21.2477 H   0  0  0  0  0  0  0  0  0  0  0  0
   18.6205   18.4990   20.5645 H   0  0  0  0  0  0  0  0  0  0  0  0
   20.0382   19.2279   20.9932 H   0  0  0  0  0  0  0  0  0  0  0  0
   18.9760   18.4669   22.6417 C   0  0  2  0  0  0  0  0  0  0  0  0
   19.4447   17.4799   22.5791 H   0  0  0  0  0  0  0  0  0  0  0  0
   17.5006   18.2747   23.0317 C   0  0  0  0  0  0  0  0  0  0  0  0
   16.9854   19.2390   23.1241 H   0  0  0  0  0  0  0  0  0  0  0  0
   17.4148   17.7480   23.9903 H   0  0  0  0  0  0  0  0  0  0  0  0
   16.9740   17.6765   22.2779 H   0  0  0  0  0  0  0  0  0  0  0  0
   19.7170   19.2891   23.7229 C   0  0  0  0  0  0  0  0  0  0  0  0
   19.4478   20.3501   23.6365 H   0  0  0  0  0  0  0  0  0  0  0  0
   19.3607   18.9691   24.7113 H   0  0  0  0  0  0  0  0  0  0  0  0
   21.2599   19.1274   23.7191 C   0  0  0  0  0  0  0  0  0  0  0  0
   21.5215   18.0683   23.8534 H   0  0  0  0  0  0  0  0  0  0  0  0
   21.6610   19.6515   24.5980 H   0  0  0  0  0  0  0  0  0  0  0  0
   21.9675   19.6777   22.4599 C   0  0  0  0  0  0  0  0  0  0  0  0
   23.0531   19.7112   22.6196 H   0  0  0  0  0  0  0  0  0  0  0  0
   21.6346   20.6979   22.2282 H   0  0  0  0  0  0  0  0  0  0  0  0
   21.7933   19.0388   21.5865 H   0  0  0  0  0  0  0  0  0  0  0  0
  1  2  1  0  0  0  0
  1  3  1  0  0  0  0
  1  4  1  0  0  0  0
  1  5  1  0  0  0  0
  5  6  1  0  0  0  0
  5  7  1  0  0  0  0
  7  8  1  0  0  0  0
  7  9  1  0  0  0  0
  7 10  1  0  0  0  0
  5 11  1  0  0  0  0
 11 12  1  0  0  0  0
 11 13  1  0  0  0  0
 11 14  1  0  0  0  0
 14 15  1  0  0  0  0
 14 16  1  0  0  0  0
 14 17  1  0  0  0  0
 17 18  1  0  0  0  0
 17 19  1  0  0  0  0
 17 20  1  0  0  0  0
M  END
> <VConfSearch Rank>
254

> <Conf_Id>
54

> <Delta U+W>
2.752

> <U+W>
-33.525

> <U>
24.337

> <W>
-57.862

> <W(PB)>
-59.764

> <W(SA)>
1.901

> <Valence>
3.593

> <Coulomb>
20.067

> <VdW>
0.677

> <VdW6>
-5.466

> <VdW12>
6.144

> <Bond>
0.191

> <Angle>
1.557

> <Pdih>
1.845

> <Idih>
0.000

> <Tether>
0.000

$$$$
VeraChem MOL file


 20 19  0  0  0  0  0  0  0  0999 V2000     
   21.7745   18.5955   22.4377 N   0  3  0  0  0  0  0  0  0  0  0  0
   22.5721   18.0531   22.7801 H   0  0  0  0  0  0  0  0  0  0  0  0
   22.1409   19.4819   22.0805 H   0  0  0  0  0  0  0  0  0  0  0  0
   21.3763   18.0860   21.6456 H   0  0  0  0  0  0  0  0  0  0  0  0
   20.7526   18.8152   23.5200 C   0  0  2  0  0  0  0  0  0  0  0  0
   21.2722   19.3469   24.3233 H   0  0  0  0  0  0  0  0  0  0  0  0
   20.2588   17.4755   24.0945 C   0  0  0  0  0  0  0  0  0  0  0  0
   19.5128   17.6399   24.8819 H   0  0  0  0  0  0  0  0  0  0  0  0
   21.0926   16.9180   24.5386 H   0  0  0  0  0  0  0  0  0  0  0  0
   19.8083   16.8429   23.3206 H   0  0  0  0  0  0  0  0  0  0  0  0
   19.5827   19.7162   23.0568 C   0  0  0  0  0  0  0  0  0  0  0  0
   18.9249   19.9092   23.9145 H   0  0  0  0  0  0  0  0  0  0  0  0
   19.9912   20.6926   22.7651 H   0  0  0  0  0  0  0  0  0  0  0  0
   18.7418   19.1464   21.8852 C   0  0  0  0  0  0  0  0  0  0  0  0
   18.2816   18.1927   22.1763 H   0  0  0  0  0  0  0  0  0  0  0  0
   19.3871   18.9386   21.0211 H   0  0  0  0  0  0  0  0  0  0  0  0
   17.6290   20.1271   21.4574 C   0  0  0  0  0  0  0  0  0  0  0  0
   17.0414   19.7095   20.6295 H   0  0  0  0  0  0  0  0  0  0  0  0
   18.0519   21.0827   21.1209 H   0  0  0  0  0  0  0  0  0  0  0  0
   16.9413   20.3314   22.2884 H   0  0  0  0  0  0  0  0  0  0  0  0
  1  2  1  0  0  0  0
  1  3  1  0  0  0  0
  1  4  1  0  0  0  0
  1  5  1  0  0  0  0
  5  6  1  0  0  0  0
  5  7  1  0  0  0  0
  7  8  1  0  0  0  0
  7  9  1  0  0  0  0
  7 10  1  0  0  0  0
  5 11  1  0  0  0  0
 11 12  1  0  0  0  0
 11 13  1  0  0  0  0
 11 14  1  0  0  0  0
 14 15  1  0  0  0  0
 14 16  1  0  0  0  0
 14 17  1  0  0  0  0
 17 18  1  0  0  0  0
 17 19  1  0  0  0  0
 17 20  1  0  0  0  0
M  END
> <VConfSearch Rank>
255

> <Conf_Id>
63

> <Delta U+W>
0.420

> <U+W>
-35.856

> <U>
22.625

> <W>
-58.481

> <W(PB)>
-60.400

> <W(SA)>
1.919

> <Valence>
2.404

> <Coulomb>
19.464

> <VdW>
0.757

> <VdW6>
-5.074

> <VdW12>
5.830

> <Bond>
0.172

> <Angle>
1.207

> <Pdih>
1.025

> <Idih>
0.000

> <Tether>
0.000

$$$$
VeraChem MOL file


 20 19  0  0  0  0  0  0  0  0999 V2000     
   21.4376   19.0793   22.5213 N   0  3  0  0  0  0  0  0  0  0  0  0
   21.1979   19.5353   21.6373 H   0  0  0  0  0  0  0  0  0  0  0  0
   21.8202   18.1572   22.2984 H   0  0  0  0  0  0  0  0  0  0  0  0
   22.1875   19.6254   22.9536 H   0  0  0  0  0  0  0  0  0  0  0  0
   20.2392   18.9750   23.4253 C   0  0  2  0  0  0  0  0  0  0  0  0
   19.8976   19.9971   23.6143 H   0  0  0  0  0  0  0  0  0  0  0  0
   20.6282   18.3441   24.7722 C   0  0  0  0  0  0  0  0  0  0  0  0
   21.4251   18.9220   25.2560 H   0  0  0  0  0  0  0  0  0  0  0  0
   20.9840   17.3145   24.6410 H   0  0  0  0  0  0  0  0  0  0  0  0
   19.7701   18.3244   25.4556 H   0  0  0  0  0  0  0  0  0  0  0  0
   19.0772   18.1877   22.7779 C   0  0  0  0  0  0  0  0  0  0  0  0
   19.3957   17.1528   22.5951 H   0  0  0  0  0  0  0  0  0  0  0  0
   18.2437   18.1305   23.4906 H   0  0  0  0  0  0  0  0  0  0  0  0
   18.5564   18.7993   21.4525 C   0  0  0  0  0  0  0  0  0  0  0  0
   17.7401   18.1701   21.0708 H   0  0  0  0  0  0  0  0  0  0  0  0
   19.3427   18.7708   20.6860 H   0  0  0  0  0  0  0  0  0  0  0  0
   18.0388   20.2467   21.6153 C   0  0  0  0  0  0  0  0  0  0  0  0
   17.2506   20.3003   22.3776 H   0  0  0  0  0  0  0  0  0  0  0  0
   17.6157   20.6122   20.6706 H   0  0  0  0  0  0  0  0  0  0  0  0
   18.8431   20.9344   21.9050 H   0  0  0  0  0  0  0  0  0  0  0  0
  1  2  1  0  0  0  0
  1  3  1  0  0  0  0
  1  4  1  0  0  0  0
  1  5  1  0  0  0  0
  5  6  1  0  0  0  0
  5  7  1  0  0  0  0
  7  8  1  0  0  0  0
  7  9  1  0  0  0  0
  7 10  1  0  0  0  0
  5 11  1  0  0  0  0
 11 12  1  0  0  0  0
 11 13  1  0  0  0  0
 11 14  1  0  0  0  0
 14 15  1  0  0  0  0
 14 16  1  0  0  0  0
 14 17  1  0  0  0  0
 17 18  1  0  0  0  0
 17 19  1  0  0  0  0
 17 20  1  0  0  0  0
M  END
> <VConfSearch Rank>
256

> <Conf_Id>
50

> <Delta U+W>
0.466

> <U+W>
-35.811

> <U>
22.369

> <W>
-58.180

> <W(PB)>
-60.103

> <W(SA)>
1.923

> <Valence>
2.168

> <Coulomb>
19.636

> <VdW>
0.566

> <VdW6>
-5.263

> <VdW12>
5.829

> <Bond>
0.162

> <Angle>
1.066

> <Pdih>
0.939

> <Idih>
0.000

> <Tether>
0.000

$$$$
VeraChem MOL file


 20 19  0  0  0  0  0  0  0  0999 V2000     
   20.4983   18.1245   20.7372 N   0  3  0  0  0  0  0  0  0  0  0  0
   20.4431   17.1046   20.8074 H   0  0  0  0  0  0  0  0  0  0  0  0
   21.4891   18.3766   20.6989 H   0  0  0  0  0  0  0  0  0  0  0  0
   20.0823   18.3885   19.8400 H   0  0  0  0  0  0  0  0  0  0  0  0
   19.8003   18.7985   21.8874 C   0  0  2  0  0  0  0  0  0  0  0  0
   18.7578   18.4678   21.8472 H   0  0  0  0  0  0  0  0  0  0  0  0
   19.8407   20.3273   21.7053 C   0  0  0  0  0  0  0  0  0  0  0  0
   20.8737   20.6965   21.6921 H   0  0  0  0  0  0  0  0  0  0  0  0
   19.3096   20.8434   22.5124 H   0  0  0  0  0  0  0  0  0  0  0  0
   19.3657   20.6163   20.7598 H   0  0  0  0  0  0  0  0  0  0  0  0
   20.3897   18.3686   23.2534 C   0  0  0  0  0  0  0  0  0  0  0  0
   20.9748   17.4492   23.1191 H   0  0  0  0  0  0  0  0  0  0  0  0
   21.1017   19.1211   23.6179 H   0  0  0  0  0  0  0  0  0  0  0  0
   19.3190   18.0796   24.3359 C   0  0  0  0  0  0  0  0  0  0  0  0
   19.8242   17.7089   25.2388 H   0  0  0  0  0  0  0  0  0  0  0  0
   18.6642   17.2647   23.9965 H   0  0  0  0  0  0  0  0  0  0  0  0
   18.4578   19.3044   24.7161 C   0  0  0  0  0  0  0  0  0  0  0  0
   19.0859   20.1519   25.0196 H   0  0  0  0  0  0  0  0  0  0  0  0
   17.7954   19.0610   25.5570 H   0  0  0  0  0  0  0  0  0  0  0  0
   17.8223   19.6226   23.8803 H   0  0  0  0  0  0  0  0  0  0  0  0
  1  2  1  0  0  0  0
  1  3  1  0  0  0  0
  1  4  1  0  0  0  0
  1  5  1  0  0  0  0
  5  6  1  0  0  0  0
  5  7  1  0  0  0  0
  7  8  1  0  0  0  0
  7  9  1  0  0  0  0
  7 10  1  0  0  0  0
  5 11  1  0  0  0  0
 11 12  1  0  0  0  0
 11 13  1  0  0  0  0
 11 14  1  0  0  0  0
 14 15  1  0  0  0  0
 14 16  1  0  0  0  0
 14 17  1  0  0  0  0
 17 18  1  0  0  0  0
 17 19  1  0  0  0  0
 17 20  1  0  0  0  0
M  END
> <VConfSearch Rank>
257

> <Conf_Id>
3

> <Delta U+W>
3.093

> <U+W>
-33.184

> <U>
25.256

> <W>
-58.439

> <W(PB)>
-60.337

> <W(SA)>
1.898

> <Valence>
4.963

> <Coulomb>
19.511

> <VdW>
0.782

> <VdW6>
-5.429

> <VdW12>
6.211

> <Bond>
0.174

> <Angle>
1.377

> <Pdih>
3.412

> <Idih>
0.000

> <Tether>
0.000

$$$$
VeraChem MOL file


 20 19  0  0  0  0  0  0  0  0999 V2000     
   20.7992   20.7896   22.0461 N   0  3  0  0  0  0  0  0  0  0  0  0
   20.7822   21.6819   22.5472 H   0  0  0  0  0  0  0  0  0  0  0  0
   20.4078   20.9579   21.1154 H   0  0  0  0  0  0  0  0  0  0  0  0
   21.7809   20.5289   21.9230 H   0  0  0  0  0  0  0  0  0  0  0  0
   20.0341   19.7272   22.7866 C   0  0  2  0  0  0  0  0  0  0  0  0
   19.0066   20.0932   22.8727 H   0  0  0  0  0  0  0  0  0  0  0  0
   20.6059   19.5454   24.2044 C   0  0  0  0  0  0  0  0  0  0  0  0
   19.9765   18.8782   24.8046 H   0  0  0  0  0  0  0  0  0  0  0  0
   20.6513   20.5075   24.7293 H   0  0  0  0  0  0  0  0  0  0  0  0
   21.6193   19.1265   24.1733 H   0  0  0  0  0  0  0  0  0  0  0  0
   20.0118   18.3982   21.9943 C   0  0  0  0  0  0  0  0  0  0  0  0
   19.6722   18.6050   20.9709 H   0  0  0  0  0  0  0  0  0  0  0  0
   21.0357   18.0123   21.9031 H   0  0  0  0  0  0  0  0  0  0  0  0
   19.1058   17.2927   22.5945 C   0  0  0  0  0  0  0  0  0  0  0  0
   19.4966   16.9654   23.5673 H   0  0  0  0  0  0  0  0  0  0  0  0
   19.1489   16.4097   21.9416 H   0  0  0  0  0  0  0  0  0  0  0  0
   17.6317   17.7327   22.7447 C   0  0  0  0  0  0  0  0  0  0  0  0
   17.2195   18.0674   21.7839 H   0  0  0  0  0  0  0  0  0  0  0  0
   17.5270   18.5517   23.4675 H   0  0  0  0  0  0  0  0  0  0  0  0
   17.0153   16.8971   23.1007 H   0  0  0  0  0  0  0  0  0  0  0  0
  1  2  1  0  0  0  0
  1  3  1  0  0  0  0
  1  4  1  0  0  0  0
  1  5  1  0  0  0  0
  5  6  1  0  0  0  0
  5  7  1  0  0  0  0
  7  8  1  0  0  0  0
  7  9  1  0  0  0  0
  7 10  1  0  0  0  0
  5 11  1  0  0  0  0
 11 12  1  0  0  0  0
 11 13  1  0  0  0  0
 11 14  1  0  0  0  0
 14 15  1  0  0  0  0
 14 16  1  0  0  0  0
 14 17  1  0  0  0  0
 17 18  1  0  0  0  0
 17 19  1  0  0  0  0
 17 20  1  0  0  0  0
M  END
> <VConfSearch Rank>
258

> <Conf_Id>
64

> <Delta U+W>
0.544

> <U+W>
-35.732

> <U>
22.800

> <W>
-58.532

> <W(PB)>
-60.437

> <W(SA)>
1.905

> <Valence>
2.662

> <Coulomb>
19.485

> <VdW>
0.653

> <VdW6>
-5.460

> <VdW12>
6.113

> <Bond>
0.174

> <Angle>
1.378

> <Pdih>
1.109

> <Idih>
0.000

> <Tether>
0.000

$$$$
VeraChem MOL file


 20 19  0  0  0  0  0  0  0  0999 V2000     
   20.0592   19.8672   20.8308 N   0  3  0  0  0  0  0  0  0  0  0  0
   19.7789   20.6509   21.4244 H   0  0  0  0  0  0  0  0  0  0  0  0
   19.5037   19.9198   19.9727 H   0  0  0  0  0  0  0  0  0  0  0  0
   21.0375   20.0150   20.5685 H   0  0  0  0  0  0  0  0  0  0  0  0
   19.8667   18.5491   21.5310 C   0  0  2  0  0  0  0  0  0  0  0  0
   20.1810   17.7819   20.8164 H   0  0  0  0  0  0  0  0  0  0  0  0
   18.3810   18.3055   21.8422 C   0  0  0  0  0  0  0  0  0  0  0  0
   17.9598   19.1156   22.4490 H   0  0  0  0  0  0  0  0  0  0  0  0
   18.2440   17.3588   22.3791 H   0  0  0  0  0  0  0  0  0  0  0  0
   17.7998   18.2483   20.9138 H   0  0  0  0  0  0  0  0  0  0  0  0
   20.7766   18.4052   22.7770 C   0  0  0  0  0  0  0  0  0  0  0  0
   20.7287   17.3721   23.1456 H   0  0  0  0  0  0  0  0  0  0  0  0
   21.8134   18.5441   22.4436 H   0  0  0  0  0  0  0  0  0  0  0  0
   20.5041   19.3942   23.9444 C   0  0  0  0  0  0  0  0  0  0  0  0
   20.1233   20.3518   23.5659 H   0  0  0  0  0  0  0  0  0  0  0  0
   21.4614   19.6252   24.4326 H   0  0  0  0  0  0  0  0  0  0  0  0
   19.5489   18.8299   25.0224 C   0  0  0  0  0  0  0  0  0  0  0  0
   18.5527   18.6151   24.6208 H   0  0  0  0  0  0  0  0  0  0  0  0
   19.4266   19.5508   25.8411 H   0  0  0  0  0  0  0  0  0  0  0  0
   19.9474   17.9025   25.4539 H   0  0  0  0  0  0  0  0  0  0  0  0
  1  2  1  0  0  0  0
  1  3  1  0  0  0  0
  1  4  1  0  0  0  0
  1  5  1  0  0  0  0
  5  6  1  0  0  0  0
  5  7  1  0  0  0  0
  7  8  1  0  0  0  0
  7  9  1  0  0  0  0
  7 10  1  0  0  0  0
  5 11  1  0  0  0  0
 11 12  1  0  0  0  0
 11 13  1  0  0  0  0
 11 14  1  0  0  0  0
 14 15  1  0  0  0  0
 14 16  1  0  0  0  0
 14 17  1  0  0  0  0
 17 18  1  0  0  0  0
 17 19  1  0  0  0  0
 17 20  1  0  0  0  0
M  END
> <VConfSearch Rank>
259

> <Conf_Id>
35

> <Delta U+W>
3.004

> <U+W>
-33.272

> <U>
25.367

> <W>
-58.639

> <W(PB)>
-60.512

> <W(SA)>
1.873

> <Valence>
4.943

> <Coulomb>
19.661

> <VdW>
0.764

> <VdW6>
-5.871

> <VdW12>
6.636

> <Bond>
0.230

> <Angle>
1.857

> <Pdih>
2.855

> <Idih>
0.000

> <Tether>
0.000

$$$$
VeraChem MOL file


 20 19  0  0  0  0  0  0  0  0999 V2000     
   20.8631   18.2893   21.4354 N   0  3  0  0  0  0  0  0  0  0  0  0
   21.7629   18.5002   20.9956 H   0  0  0  0  0  0  0  0  0  0  0  0
   20.3671   17.6404   20.8185 H   0  0  0  0  0  0  0  0  0  0  0  0
   21.0535   17.7953   22.3093 H   0  0  0  0  0  0  0  0  0  0  0  0
   20.0617   19.5385   21.6796 C   0  0  2  0  0  0  0  0  0  0  0  0
   19.8926   19.9719   20.6889 H   0  0  0  0  0  0  0  0  0  0  0  0
   20.8609   20.5671   22.4993 C   0  0  0  0  0  0  0  0  0  0  0  0
   21.1510   20.1674   23.4782 H   0  0  0  0  0  0  0  0  0  0  0  0
   20.2718   21.4784   22.6601 H   0  0  0  0  0  0  0  0  0  0  0  0
   21.7773   20.8528   21.9687 H   0  0  0  0  0  0  0  0  0  0  0  0
   18.6647   19.2544   22.2888 C   0  0  0  0  0  0  0  0  0  0  0  0
   18.0488   20.1511   22.1403 H   0  0  0  0  0  0  0  0  0  0  0  0
   18.1752   18.4655   21.7028 H   0  0  0  0  0  0  0  0  0  0  0  0
   18.6067   18.8831   23.7972 C   0  0  0  0  0  0  0  0  0  0  0  0
   17.5507   18.7602   24.0758 H   0  0  0  0  0  0  0  0  0  0  0  0
   18.9773   19.7166   24.4092 H   0  0  0  0  0  0  0  0  0  0  0  0
   19.3609   17.5872   24.1724 C   0  0  0  0  0  0  0  0  0  0  0  0
   19.0721   16.7545   23.5179 H   0  0  0  0  0  0  0  0  0  0  0  0
   19.1253   17.2960   25.2043 H   0  0  0  0  0  0  0  0  0  0  0  0
   20.4472   17.7218   24.1168 H   0  0  0  0  0  0  0  0  0  0  0  0
  1  2  1  0  0  0  0
  1  3  1  0  0  0  0
  1  4  1  0  0  0  0
  1  5  1  0  0  0  0
  5  6  1  0  0  0  0
  5  7  1  0  0  0  0
  7  8  1  0  0  0  0
  7  9  1  0  0  0  0
  7 10  1  0  0  0  0
  5 11  1  0  0  0  0
 11 12  1  0  0  0  0
 11 13  1  0  0  0  0
 11 14  1  0  0  0  0
 14 15  1  0  0  0  0
 14 16  1  0  0  0  0
 14 17  1  0  0  0  0
 17 18  1  0  0  0  0
 17 19  1  0  0  0  0
 17 20  1  0  0  0  0
M  END
> <VConfSearch Rank>
260

> <Conf_Id>
55

> <Delta U+W>
2.767

> <U+W>
-33.509

> <U>
24.552

> <W>
-58.061

> <W(PB)>
-59.930

> <W(SA)>
1.869

> <Valence>
3.726

> <Coulomb>
20.219

> <VdW>
0.606

> <VdW6>
-6.395

> <VdW12>
7.001

> <Bond>
0.241

> <Angle>
2.098

> <Pdih>
1.387

> <Idih>
0.000

> <Tether>
0.000

$$$$
VeraChem MOL file


 20 19  0  0  0  0  0  0  0  0999 V2000     
   20.8634   20.5749   22.8409 N   0  3  0  0  0  0  0  0  0  0  0  0
   21.1486   20.6152   21.8593 H   0  0  0  0  0  0  0  0  0  0  0  0
   21.5754   21.0685   23.3860 H   0  0  0  0  0  0  0  0  0  0  0  0
   19.9921   21.1036   22.9301 H   0  0  0  0  0  0  0  0  0  0  0  0
   20.6979   19.1542   23.3093 C   0  0  2  0  0  0  0  0  0  0  0  0
   20.3906   19.2024   24.3586 H   0  0  0  0  0  0  0  0  0  0  0  0
   22.0364   18.4014   23.2341 C   0  0  0  0  0  0  0  0  0  0  0  0
   22.8055   18.9166   23.8227 H   0  0  0  0  0  0  0  0  0  0  0  0
   22.3921   18.3255   22.1990 H   0  0  0  0  0  0  0  0  0  0  0  0
   21.9358   17.3856   23.6359 H   0  0  0  0  0  0  0  0  0  0  0  0
   19.6087   18.3928   22.5219 C   0  0  0  0  0  0  0  0  0  0  0  0
   19.8820   18.3507   21.4591 H   0  0  0  0  0  0  0  0  0  0  0  0
   19.5754   17.3543   22.8776 H   0  0  0  0  0  0  0  0  0  0  0  0
   18.2013   19.0180   22.6759 C   0  0  0  0  0  0  0  0  0  0  0  0
   18.1939   20.0404   22.2745 H   0  0  0  0  0  0  0  0  0  0  0  0
   17.9438   19.0926   23.7419 H   0  0  0  0  0  0  0  0  0  0  0  0
   17.1248   18.1851   21.9473 C   0  0  0  0  0  0  0  0  0  0  0  0
   17.3381   18.1176   20.8725 H   0  0  0  0  0  0  0  0  0  0  0  0
   16.1343   18.6432   22.0656 H   0  0  0  0  0  0  0  0  0  0  0  0
   17.0738   17.1652   22.3503 H   0  0  0  0  0  0  0  0  0  0  0  0
  1  2  1  0  0  0  0
  1  3  1  0  0  0  0
  1  4  1  0  0  0  0
  1  5  1  0  0  0  0
  5  6  1  0  0  0  0
  5  7  1  0  0  0  0
  7  8  1  0  0  0  0
  7  9  1  0  0  0  0
  7 10  1  0  0  0  0
  5 11  1  0  0  0  0
 11 12  1  0  0  0  0
 11 13  1  0  0  0  0
 11 14  1  0  0  0  0
 14 15  1  0  0  0  0
 14 16  1  0  0  0  0
 14 17  1  0  0  0  0
 17 18  1  0  0  0  0
 17 19  1  0  0  0  0
 17 20  1  0  0  0  0
M  END
> <VConfSearch Rank>
261

> <Conf_Id>
74

> <Delta U+W>
0.000

> <U+W>
-36.276

> <U>
22.080

> <W>
-58.356

> <W(PB)>
-60.289

> <W(SA)>
1.932

> <Valence>
1.885

> <Coulomb>
19.559

> <VdW>
0.637

> <VdW6>
-4.482

> <VdW12>
5.119

> <Bond>
0.136

> <Angle>
0.867

> <Pdih>
0.882

> <Idih>
0.000

> <Tether>
0.000

$$$$
VeraChem MOL file


 20 19  0  0  0  0  0  0  0  0999 V2000     
   18.2975   17.6968   21.2680 N   0  3  0  0  0  0  0  0  0  0  0  0
   18.5035   16.7320   21.5412 H   0  0  0  0  0  0  0  0  0  0  0  0
   18.7891   17.8779   20.3892 H   0  0  0  0  0  0  0  0  0  0  0  0
   17.2943   17.7473   21.0713 H   0  0  0  0  0  0  0  0  0  0  0  0
   18.6991   18.6750   22.3377 C   0  0  2  0  0  0  0  0  0  0  0  0
   18.1258   18.4074   23.2308 H   0  0  0  0  0  0  0  0  0  0  0  0
   18.3135   20.1070   21.9236 C   0  0  0  0  0  0  0  0  0  0  0  0
   17.2545   20.1558   21.6419 H   0  0  0  0  0  0  0  0  0  0  0  0
   18.9089   20.4467   21.0671 H   0  0  0  0  0  0  0  0  0  0  0  0
   18.4614   20.8145   22.7475 H   0  0  0  0  0  0  0  0  0  0  0  0
   20.2035   18.5503   22.6735 C   0  0  0  0  0  0  0  0  0  0  0  0
   20.4326   17.4916   22.8532 H   0  0  0  0  0  0  0  0  0  0  0  0
   20.8027   18.8546   21.8051 H   0  0  0  0  0  0  0  0  0  0  0  0
   20.6363   19.3647   23.9171 C   0  0  0  0  0  0  0  0  0  0  0  0
   19.9948   19.1059   24.7713 H   0  0  0  0  0  0  0  0  0  0  0  0
   20.5047   20.4394   23.7338 H   0  0  0  0  0  0  0  0  0  0  0  0
   22.1117   19.0993   24.2866 C   0  0  0  0  0  0  0  0  0  0  0  0
   22.2769   18.0395   24.5203 H   0  0  0  0  0  0  0  0  0  0  0  0
   22.4025   19.6868   25.1672 H   0  0  0  0  0  0  0  0  0  0  0  0
   22.7812   19.3757   23.4616 H   0  0  0  0  0  0  0  0  0  0  0  0
  1  2  1  0  0  0  0
  1  3  1  0  0  0  0
  1  4  1  0  0  0  0
  1  5  1  0  0  0  0
  5  6  1  0  0  0  0
  5  7  1  0  0  0  0
  7  8  1  0  0  0  0
  7  9  1  0  0  0  0
  7 10  1  0  0  0  0
  5 11  1  0  0  0  0
 11 12  1  0  0  0  0
 11 13  1  0  0  0  0
 11 14  1  0  0  0  0
 14 15  1  0  0  0  0
 14 16  1  0  0  0  0
 14 17  1  0  0  0  0
 17 18  1  0  0  0  0
 17 19  1  0  0  0  0
 17 20  1  0  0  0  0
M  END
> <VConfSearch Rank>
262

> <Conf_Id>
80

> <Delta U+W>
0.460

> <U+W>
-35.817

> <U>
22.495

> <W>
-58.311

> <W(PB)>
-60.259

> <W(SA)>
1.948

> <Valence>
2.419

> <Coulomb>
19.304

> <VdW>
0.772

> <VdW6>
-4.635

> <VdW12>
5.407

> <Bond>
0.149

> <Angle>
1.142

> <Pdih>
1.129

> <Idih>
0.000

> <Tether>
0.000

$$$$
VeraChem MOL file


 20 19  0  0  0  0  0  0  0  0999 V2000     
   17.7233   17.7147   23.2515 N   0  3  0  0  0  0  0  0  0  0  0  0
   17.8827   16.9974   23.9641 H   0  0  0  0  0  0  0  0  0  0  0  0
   17.6599   17.2400   22.3475 H   0  0  0  0  0  0  0  0  0  0  0  0
   16.8077   18.1310   23.4413 H   0  0  0  0  0  0  0  0  0  0  0  0
   18.8117   18.7531   23.2547 C   0  0  2  0  0  0  0  0  0  0  0  0
   18.7992   19.2067   24.2506 H   0  0  0  0  0  0  0  0  0  0  0  0
   18.5014   19.8527   22.2248 C   0  0  0  0  0  0  0  0  0  0  0  0
   17.4784   20.2269   22.3537 H   0  0  0  0  0  0  0  0  0  0  0  0
   18.6001   19.4768   21.1989 H   0  0  0  0  0  0  0  0  0  0  0  0
   19.1743   20.7086   22.3495 H   0  0  0  0  0  0  0  0  0  0  0  0
   20.2005   18.1030   23.0406 C   0  0  0  0  0  0  0  0  0  0  0  0
   20.3136   17.3123   23.7941 H   0  0  0  0  0  0  0  0  0  0  0  0
   20.2358   17.5950   22.0677 H   0  0  0  0  0  0  0  0  0  0  0  0
   21.4060   19.0691   23.1856 C   0  0  0  0  0  0  0  0  0  0  0  0
   22.2325   18.5281   23.6675 H   0  0  0  0  0  0  0  0  0  0  0  0
   21.1531   19.8969   23.8630 H   0  0  0  0  0  0  0  0  0  0  0  0
   21.9209   19.6171   21.8337 C   0  0  0  0  0  0  0  0  0  0  0  0
   22.2473   18.7994   21.1781 H   0  0  0  0  0  0  0  0  0  0  0  0
   22.7816   20.2801   21.9910 H   0  0  0  0  0  0  0  0  0  0  0  0
   21.1540   20.1903   21.3008 H   0  0  0  0  0  0  0  0  0  0  0  0
  1  2  1  0  0  0  0
  1  3  1  0  0  0  0
  1  4  1  0  0  0  0
  1  5  1  0  0  0  0
  5  6  1  0  0  0  0
  5  7  1  0  0  0  0
  7  8  1  0  0  0  0
  7  9  1  0  0  0  0
  7 10  1  0  0  0  0
  5 11  1  0  0  0  0
 11 12  1  0  0  0  0
 11 13  1  0  0  0  0
 11 14  1  0  0  0  0
 14 15  1  0  0  0  0
 14 16  1  0  0  0  0
 14 17  1  0  0  0  0
 17 18  1  0  0  0  0
 17 19  1  0  0  0  0
 17 20  1  0  0  0  0
M  END
> <VConfSearch Rank>
263

> <Conf_Id>
52

> <Delta U+W>
2.995

> <U+W>
-33.282

> <U>
25.224

> <W>
-58.506

> <W(PB)>
-60.411

> <W(SA)>
1.905

> <Valence>
4.945

> <Coulomb>
19.467

> <VdW>
0.813

> <VdW6>
-5.458

> <VdW12>
6.270

> <Bond>
0.200

> <Angle>
1.675

> <Pdih>
3.070

> <Idih>
0.000

> <Tether>
0.000

$$$$
VeraChem MOL file


 20 19  0  0  0  0  0  0  0  0999 V2000     
   21.1430   19.8317   22.9187 N   0  3  0  0  0  0  0  0  0  0  0  0
   21.0331   20.3466   23.7958 H   0  0  0  0  0  0  0  0  0  0  0  0
   21.8727   20.3024   22.3769 H   0  0  0  0  0  0  0  0  0  0  0  0
   21.4862   18.8978   23.1533 H   0  0  0  0  0  0  0  0  0  0  0  0
   19.8473   19.7622   22.1574 C   0  0  2  0  0  0  0  0  0  0  0  0
   20.0540   19.2434   21.2162 H   0  0  0  0  0  0  0  0  0  0  0  0
   19.3603   21.1831   21.8262 C   0  0  0  0  0  0  0  0  0  0  0  0
   19.1227   21.7442   22.7387 H   0  0  0  0  0  0  0  0  0  0  0  0
   18.4601   21.1519   21.1999 H   0  0  0  0  0  0  0  0  0  0  0  0
   20.1281   21.7383   21.2735 H   0  0  0  0  0  0  0  0  0  0  0  0
   18.7486   18.9779   22.9137 C   0  0  0  0  0  0  0  0  0  0  0  0
   18.6980   19.3161   23.9570 H   0  0  0  0  0  0  0  0  0  0  0  0
   17.7745   19.2253   22.4710 H   0  0  0  0  0  0  0  0  0  0  0  0
   18.8967   17.4346   22.8588 C   0  0  0  0  0  0  0  0  0  0  0  0
   18.8990   17.0999   21.8119 H   0  0  0  0  0  0  0  0  0  0  0  0
   18.0025   16.9887   23.3167 H   0  0  0  0  0  0  0  0  0  0  0  0
   20.1434   16.8757   23.5817 C   0  0  0  0  0  0  0  0  0  0  0  0
   20.0709   15.7841   23.6727 H   0  0  0  0  0  0  0  0  0  0  0  0
   20.2360   17.2877   24.5951 H   0  0  0  0  0  0  0  0  0  0  0  0
   21.0631   17.0888   23.0248 H   0  0  0  0  0  0  0  0  0  0  0  0
  1  2  1  0  0  0  0
  1  3  1  0  0  0  0
  1  4  1  0  0  0  0
  1  5  1  0  0  0  0
  5  6  1  0  0  0  0
  5  7  1  0  0  0  0
  7  8  1  0  0  0  0
  7  9  1  0  0  0  0
  7 10  1  0  0  0  0
  5 11  1  0  0  0  0
 11 12  1  0  0  0  0
 11 13  1  0  0  0  0
 11 14  1  0  0  0  0
 14 15  1  0  0  0  0
 14 16  1  0  0  0  0
 14 17  1  0  0  0  0
 17 18  1  0  0  0  0
 17 19  1  0  0  0  0
 17 20  1  0  0  0  0
M  END
> <VConfSearch Rank>
264

> <Conf_Id>
54

> <Delta U+W>
2.752

> <U+W>
-33.525

> <U>
24.337

> <W>
-57.862

> <W(PB)>
-59.764

> <W(SA)>
1.901

> <Valence>
3.593

> <Coulomb>
20.067

> <VdW>
0.677

> <VdW6>
-5.466

> <VdW12>
6.144

> <Bond>
0.191

> <Angle>
1.557

> <Pdih>
1.845

> <Idih>
0.000

> <Tether>
0.000

$$$$
VeraChem MOL file


 20 19  0  0  0  0  0  0  0  0999 V2000     
   20.3269   20.8387   22.0688 N   0  3  0  0  0  0  0  0  0  0  0  0
   21.1235   21.4107   21.7757 H   0  0  0  0  0  0  0  0  0  0  0  0
   19.6519   21.4647   22.5162 H   0  0  0  0  0  0  0  0  0  0  0  0
   19.8887   20.4688   21.2222 H   0  0  0  0  0  0  0  0  0  0  0  0
   20.7542   19.7328   22.9952 C   0  0  2  0  0  0  0  0  0  0  0  0
   21.2227   20.2222   23.8548 H   0  0  0  0  0  0  0  0  0  0  0  0
   21.8182   18.8382   22.3345 C   0  0  0  0  0  0  0  0  0  0  0  0
   22.1257   18.0323   23.0123 H   0  0  0  0  0  0  0  0  0  0  0  0
   22.7123   19.4238   22.0880 H   0  0  0  0  0  0  0  0  0  0  0  0
   21.4489   18.3853   21.4068 H   0  0  0  0  0  0  0  0  0  0  0  0
   19.5564   18.9129   23.5319 C   0  0  0  0  0  0  0  0  0  0  0  0
   19.9272   18.1863   24.2669 H   0  0  0  0  0  0  0  0  0  0  0  0
   18.8932   19.5899   24.0862 H   0  0  0  0  0  0  0  0  0  0  0  0
   18.7336   18.1698   22.4479 C   0  0  0  0  0  0  0  0  0  0  0  0
   19.3690   17.4491   21.9159 H   0  0  0  0  0  0  0  0  0  0  0  0
   18.3627   18.8819   21.6986 H   0  0  0  0  0  0  0  0  0  0  0  0
   17.5342   17.4178   23.0637 C   0  0  0  0  0  0  0  0  0  0  0  0
   16.9630   16.8953   22.2854 H   0  0  0  0  0  0  0  0  0  0  0  0
   16.8521   18.1110   23.5730 H   0  0  0  0  0  0  0  0  0  0  0  0
   17.8695   16.6699   23.7941 H   0  0  0  0  0  0  0  0  0  0  0  0
  1  2  1  0  0  0  0
  1  3  1  0  0  0  0
  1  4  1  0  0  0  0
  1  5  1  0  0  0  0
  5  6  1  0  0  0  0
  5  7  1  0  0  0  0
  7  8  1  0  0  0  0
  7  9  1  0  0  0  0
  7 10  1  0  0  0  0
  5 11  1  0  0  0  0
 11 12  1  0  0  0  0
 11 13  1  0  0  0  0
 11 14  1  0  0  0  0
 14 15  1  0  0  0  0
 14 16  1  0  0  0  0
 14 17  1  0  0  0  0
 17 18  1  0  0  0  0
 17 19  1  0  0  0  0
 17 20  1  0  0  0  0
M  END
> <VConfSearch Rank>
265

> <Conf_Id>
63

> <Delta U+W>
0.420

> <U+W>
-35.856

> <U>
22.625

> <W>
-58.481

> <W(PB)>
-60.400

> <W(SA)>
1.919

> <Valence>
2.404

> <Coulomb>
19.464

> <VdW>
0.757

> <VdW6>
-5.074

> <VdW12>
5.830

> <Bond>
0.172

> <Angle>
1.207

> <Pdih>
1.025

> <Idih>
0.000

> <Tether>
0.000

$$$$
VeraChem MOL file


 20 19  0  0  0  0  0  0  0  0999 V2000     
   21.0302   18.4299   21.7469 N   0  3  0  0  0  0  0  0  0  0  0  0
   20.8487   17.5130   22.1629 H   0  0  0  0  0  0  0  0  0  0  0  0
   21.9200   18.7677   22.1219 H   0  0  0  0  0  0  0  0  0  0  0  0
   21.1558   18.2898   20.7408 H   0  0  0  0  0  0  0  0  0  0  0  0
   19.9099   19.3924   22.0346 C   0  0  2  0  0  0  0  0  0  0  0  0
   19.0038   18.9594   21.6004 H   0  0  0  0  0  0  0  0  0  0  0  0
   20.1677   20.7456   21.3521 C   0  0  0  0  0  0  0  0  0  0  0  0
   20.2952   20.6169   20.2702 H   0  0  0  0  0  0  0  0  0  0  0  0
   21.0718   21.2248   21.7480 H   0  0  0  0  0  0  0  0  0  0  0  0
   19.3230   21.4281   21.5083 H   0  0  0  0  0  0  0  0  0  0  0  0
   19.6748   19.5899   23.5494 C   0  0  0  0  0  0  0  0  0  0  0  0
   20.5689   20.0396   24.0013 H   0  0  0  0  0  0  0  0  0  0  0  0
   18.8617   20.3138   23.6933 H   0  0  0  0  0  0  0  0  0  0  0  0
   19.3216   18.2880   24.3124 C   0  0  0  0  0  0  0  0  0  0  0  0
   19.1786   18.5298   25.3749 H   0  0  0  0  0  0  0  0  0  0  0  0
   20.1644   17.5845   24.2742 H   0  0  0  0  0  0  0  0  0  0  0  0
   18.0439   17.6007   23.7790 C   0  0  0  0  0  0  0  0  0  0  0  0
   17.1864   18.2856   23.8076 H   0  0  0  0  0  0  0  0  0  0  0  0
   17.7934   16.7255   24.3925 H   0  0  0  0  0  0  0  0  0  0  0  0
   18.1716   17.2543   22.7458 H   0  0  0  0  0  0  0  0  0  0  0  0
  1  2  1  0  0  0  0
  1  3  1  0  0  0  0
  1  4  1  0  0  0  0
  1  5  1  0  0  0  0
  5  6  1  0  0  0  0
  5  7  1  0  0  0  0
  7  8  1  0  0  0  0
  7  9  1  0  0  0  0
  7 10  1  0  0  0  0
  5 11  1  0  0  0  0
 11 12  1  0  0  0  0
 11 13  1  0  0  0  0
 11 14  1  0  0  0  0
 14 15  1  0  0  0  0
 14 16  1  0  0  0  0
 14 17  1  0  0  0  0
 17 18  1  0  0  0  0
 17 19  1  0  0  0  0
 17 20  1  0  0  0  0
M  END
> <VConfSearch Rank>
266

> <Conf_Id>
50

> <Delta U+W>
0.466

> <U+W>
-35.811

> <U>
22.369

> <W>
-58.180

> <W(PB)>
-60.103

> <W(SA)>
1.923

> <Valence>
2.168

> <Coulomb>
19.636

> <VdW>
0.566

> <VdW6>
-5.263

> <VdW12>
5.829

> <Bond>
0.162

> <Angle>
1.066

> <Pdih>
0.939

> <Idih>
0.000

> <Tether>
0.000

$$$$
VeraChem MOL file


 20 19  0  0  0  0  0  0  0  0999 V2000     
   20.4629   16.7560   23.1777 N   0  3  0  0  0  0  0  0  0  0  0  0
   20.7273   16.7639   24.1667 H   0  0  0  0  0  0  0  0  0  0  0  0
   21.3202   16.6396   22.6314 H   0  0  0  0  0  0  0  0  0  0  0  0
   19.8893   15.9221   23.0250 H   0  0  0  0  0  0  0  0  0  0  0  0
   19.7262   18.0097   22.7902 C   0  0  2  0  0  0  0  0  0  0  0  0
   18.8351   18.0478   23.4244 H   0  0  0  0  0  0  0  0  0  0  0  0
   19.2813   17.9255   21.3181 C   0  0  0  0  0  0  0  0  0  0  0  0
   20.1458   17.8377   20.6483 H   0  0  0  0  0  0  0  0  0  0  0  0
   18.7122   18.8119   21.0179 H   0  0  0  0  0  0  0  0  0  0  0  0
   18.6389   17.0509   21.1582 H   0  0  0  0  0  0  0  0  0  0  0  0
   20.5664   19.2817   23.0627 C   0  0  0  0  0  0  0  0  0  0  0  0
   21.3837   19.0317   23.7522 H   0  0  0  0  0  0  0  0  0  0  0  0
   21.0530   19.6250   22.1400 H   0  0  0  0  0  0  0  0  0  0  0  0
   19.7610   20.4404   23.7034 C   0  0  0  0  0  0  0  0  0  0  0  0
   20.4520   21.2644   23.9303 H   0  0  0  0  0  0  0  0  0  0  0  0
   19.3502   20.1124   24.6686 H   0  0  0  0  0  0  0  0  0  0  0  0
   18.6173   20.9810   22.8169 C   0  0  0  0  0  0  0  0  0  0  0  0
   18.9890   21.2781   21.8277 H   0  0  0  0  0  0  0  0  0  0  0  0
   18.1576   21.8637   23.2803 H   0  0  0  0  0  0  0  0  0  0  0  0
   17.8263   20.2327   22.6823 H   0  0  0  0  0  0  0  0  0  0  0  0
  1  2  1  0  0  0  0
  1  3  1  0  0  0  0
  1  4  1  0  0  0  0
  1  5  1  0  0  0  0
  5  6  1  0  0  0  0
  5  7  1  0  0  0  0
  7  8  1  0  0  0  0
  7  9  1  0  0  0  0
  7 10  1  0  0  0  0
  5 11  1  0  0  0  0
 11 12  1  0  0  0  0
 11 13  1  0  0  0  0
 11 14  1  0  0  0  0
 14 15  1  0  0  0  0
 14 16  1  0  0  0  0
 14 17  1  0  0  0  0
 17 18  1  0  0  0  0
 17 19  1  0  0  0  0
 17 20  1  0  0  0  0
M  END
> <VConfSearch Rank>
267

> <Conf_Id>
3

> <Delta U+W>
3.093

> <U+W>
-33.184

> <U>
25.256

> <W>
-58.439

> <W(PB)>
-60.337

> <W(SA)>
1.898

> <Valence>
4.963

> <Coulomb>
19.511

> <VdW>
0.782

> <VdW6>
-5.429

> <VdW12>
6.211

> <Bond>
0.174

> <Angle>
1.377

> <Pdih>
3.412

> <Idih>
0.000

> <Tether>
0.000

$$$$
VeraChem MOL file


 20 19  0  0  0  0  0  0  0  0999 V2000     
   19.2182   17.5008   21.0532 N   0  3  0  0  0  0  0  0  0  0  0  0
   18.6652   17.7662   20.2338 H   0  0  0  0  0  0  0  0  0  0  0  0
   18.7241   16.7327   21.5156 H   0  0  0  0  0  0  0  0  0  0  0  0
   20.1088   17.1306   20.7118 H   0  0  0  0  0  0  0  0  0  0  0  0
   19.4237   18.6670   21.9806 C   0  0  2  0  0  0  0  0  0  0  0  0
   18.4257   18.9942   22.2874 H   0  0  0  0  0  0  0  0  0  0  0  0
   20.1087   19.8281   21.2371 C   0  0  0  0  0  0  0  0  0  0  0  0
   20.1403   20.7327   21.8554 H   0  0  0  0  0  0  0  0  0  0  0  0
   19.5585   20.0797   20.3222 H   0  0  0  0  0  0  0  0  0  0  0  0
   21.1366   19.5679   20.9555 H   0  0  0  0  0  0  0  0  0  0  0  0
   20.2073   18.2447   23.2463 C   0  0  0  0  0  0  0  0  0  0  0  0
   19.7173   17.3661   23.6860 H   0  0  0  0  0  0  0  0  0  0  0  0
   21.2152   17.9185   22.9577 H   0  0  0  0  0  0  0  0  0  0  0  0
   20.3226   19.3369   24.3403 C   0  0  0  0  0  0  0  0  0  0  0  0
   20.9254   20.1797   23.9762 H   0  0  0  0  0  0  0  0  0  0  0  0
   20.8739   18.9214   25.1955 H   0  0  0  0  0  0  0  0  0  0  0  0
   18.9497   19.8500   24.8314 C   0  0  0  0  0  0  0  0  0  0  0  0
   18.3273   19.0235   25.1982 H   0  0  0  0  0  0  0  0  0  0  0  0
   18.4017   20.3640   24.0316 H   0  0  0  0  0  0  0  0  0  0  0  0
   19.0782   20.5637   25.6554 H   0  0  0  0  0  0  0  0  0  0  0  0
  1  2  1  0  0  0  0
  1  3  1  0  0  0  0
  1  4  1  0  0  0  0
  1  5  1  0  0  0  0
  5  6  1  0  0  0  0
  5  7  1  0  0  0  0
  7  8  1  0  0  0  0
  7  9  1  0  0  0  0
  7 10  1  0  0  0  0
  5 11  1  0  0  0  0
 11 12  1  0  0  0  0
 11 13  1  0  0  0  0
 11 14  1  0  0  0  0
 14 15  1  0  0  0  0
 14 16  1  0  0  0  0
 14 17  1  0  0  0  0
 17 18  1  0  0  0  0
 17 19  1  0  0  0  0
 17 20  1  0  0  0  0
M  END
> <VConfSearch Rank>
268

> <Conf_Id>
64

> <Delta U+W>
0.544

> <U+W>
-35.732

> <U>
22.800

> <W>
-58.532

> <W(PB)>
-60.437

> <W(SA)>
1.905

> <Valence>
2.662

> <Coulomb>
19.485

> <VdW>
0.653

> <VdW6>
-5.460

> <VdW12>
6.113

> <Bond>
0.174

> <Angle>
1.378

> <Pdih>
1.109

> <Idih>
0.000

> <Tether>
0.000

$$$$
VeraChem MOL file


 20 19  0  0  0  0  0  0  0  0999 V2000     
   19.3148   18.4415   24.7017 N   0  3  0  0  0  0  0  0  0  0  0  0
   18.6018   19.1399   24.4797 H   0  0  0  0  0  0  0  0  0  0  0  0
   19.7201   18.6956   25.6065 H   0  0  0  0  0  0  0  0  0  0  0  0
   18.8382   17.5440   24.8240 H   0  0  0  0  0  0  0  0  0  0  0  0
   20.3671   18.3681   23.6283 C   0  0  2  0  0  0  0  0  0  0  0  0
   21.0817   17.6090   23.9615 H   0  0  0  0  0  0  0  0  0  0  0  0
   21.1294   19.6985   23.5161 C   0  0  0  0  0  0  0  0  0  0  0  0
   20.4498   20.5350   23.3159 H   0  0  0  0  0  0  0  0  0  0  0  0
   21.8761   19.6548   22.7138 H   0  0  0  0  0  0  0  0  0  0  0  0
   21.6589   19.9163   24.4516 H   0  0  0  0  0  0  0  0  0  0  0  0
   19.7935   17.8841   22.2727 C   0  0  0  0  0  0  0  0  0  0  0  0
   20.6202   17.6807   21.5793 H   0  0  0  0  0  0  0  0  0  0  0  0
   19.3178   16.9100   22.4470 H   0  0  0  0  0  0  0  0  0  0  0  0
   18.7540   18.8187   21.5936 C   0  0  0  0  0  0  0  0  0  0  0  0
   18.1770   19.3742   22.3446 H   0  0  0  0  0  0  0  0  0  0  0  0
   18.0250   18.1942   21.0584 H   0  0  0  0  0  0  0  0  0  0  0  0
   19.3779   19.7971   20.5708 C   0  0  0  0  0  0  0  0  0  0  0  0
   20.0876   20.4880   21.0388 H   0  0  0  0  0  0  0  0  0  0  0  0
   18.5960   20.4010   20.0921 H   0  0  0  0  0  0  0  0  0  0  0  0
   19.9078   19.2524   19.7786 H   0  0  0  0  0  0  0  0  0  0  0  0
  1  2  1  0  0  0  0
  1  3  1  0  0  0  0
  1  4  1  0  0  0  0
  1  5  1  0  0  0  0
  5  6  1  0  0  0  0
  5  7  1  0  0  0  0
  7  8  1  0  0  0  0
  7  9  1  0  0  0  0
  7 10  1  0  0  0  0
  5 11  1  0  0  0  0
 11 12  1  0  0  0  0
 11 13  1  0  0  0  0
 11 14  1  0  0  0  0
 14 15  1  0  0  0  0
 14 16  1  0  0  0  0
 14 17  1  0  0  0  0
 17 18  1  0  0  0  0
 17 19  1  0  0  0  0
 17 20  1  0  0  0  0
M  END
> <VConfSearch Rank>
269

> <Conf_Id>
35

> <Delta U+W>
3.004

> <U+W>
-33.272

> <U>
25.367

> <W>
-58.639

> <W(PB)>
-60.512

> <W(SA)>
1.873

> <Valence>
4.943

> <Coulomb>
19.661

> <VdW>
0.764

> <VdW6>
-5.871

> <VdW12>
6.636

> <Bond>
0.230

> <Angle>
1.857

> <Pdih>
2.855

> <Idih>
0.000

> <Tether>
0.000

$$$$
VeraChem MOL file


 20 19  0  0  0  0  0  0  0  0999 V2000     
   21.2851   18.3684   23.4877 N   0  3  0  0  0  0  0  0  0  0  0  0
   22.2945   18.5330   23.4481 H   0  0  0  0  0  0  0  0  0  0  0  0
   21.1414   17.4675   23.9517 H   0  0  0  0  0  0  0  0  0  0  0  0
   20.8767   19.0891   24.0858 H   0  0  0  0  0  0  0  0  0  0  0  0
   20.6688   18.3858   22.1157 C   0  0  2  0  0  0  0  0  0  0  0  0
   21.1523   17.5688   21.5711 H   0  0  0  0  0  0  0  0  0  0  0  0
   20.9968   19.6911   21.3693 C   0  0  0  0  0  0  0  0  0  0  0  0
   20.6230   20.5702   21.9076 H   0  0  0  0  0  0  0  0  0  0  0  0
   20.5534   19.6872   20.3660 H   0  0  0  0  0  0  0  0  0  0  0  0
   22.0814   19.8051   21.2531 H   0  0  0  0  0  0  0  0  0  0  0  0
   19.1494   18.0782   22.1287 C   0  0  0  0  0  0  0  0  0  0  0  0
   18.8573   17.8035   21.1065 H   0  0  0  0  0  0  0  0  0  0  0  0
   18.9740   17.1785   22.7327 H   0  0  0  0  0  0  0  0  0  0  0  0
   18.1969   19.2100   22.6066 C   0  0  0  0  0  0  0  0  0  0  0  0
   17.1640   18.8467   22.5115 H   0  0  0  0  0  0  0  0  0  0  0  0
   18.2671   20.0762   21.9347 H   0  0  0  0  0  0  0  0  0  0  0  0
   18.4178   19.6657   24.0669 C   0  0  0  0  0  0  0  0  0  0  0  0
   18.4382   18.8089   24.7528 H   0  0  0  0  0  0  0  0  0  0  0  0
   17.6018   20.3273   24.3857 H   0  0  0  0  0  0  0  0  0  0  0  0
   19.3506   20.2305   24.1768 H   0  0  0  0  0  0  0  0  0  0  0  0
  1  2  1  0  0  0  0
  1  3  1  0  0  0  0
  1  4  1  0  0  0  0
  1  5  1  0  0  0  0
  5  6  1  0  0  0  0
  5  7  1  0  0  0  0
  7  8  1  0  0  0  0
  7  9  1  0  0  0  0
  7 10  1  0  0  0  0
  5 11  1  0  0  0  0
 11 12  1  0  0  0  0
 11 13  1  0  0  0  0
 11 14  1  0  0  0  0
 14 15  1  0  0  0  0
 14 16  1  0  0  0  0
 14 17  1  0  0  0  0
 17 18  1  0  0  0  0
 17 19  1  0  0  0  0
 17 20  1  0  0  0  0
M  END
> <VConfSearch Rank>
270

> <Conf_Id>
55

> <Delta U+W>
2.767

> <U+W>
-33.509

> <U>
24.552

> <W>
-58.061

> <W(PB)>
-59.930

> <W(SA)>
1.869

> <Valence>
3.726

> <Coulomb>
20.219

> <VdW>
0.606

> <VdW6>
-6.395

> <VdW12>
7.001

> <Bond>
0.241

> <Angle>
2.098

> <Pdih>
1.387

> <Idih>
0.000

> <Tether>
0.000

$$$$
VeraChem MOL file


 20 19  0  0  0  0  0  0  0  0999 V2000     
   18.1027   19.8942   23.2717 N   0  3  0  0  0  0  0  0  0  0  0  0
   18.3148   20.7986   22.8432 H   0  0  0  0  0  0  0  0  0  0  0  0
   17.4482   20.0663   24.0396 H   0  0  0  0  0  0  0  0  0  0  0  0
   17.6106   19.3309   22.5738 H   0  0  0  0  0  0  0  0  0  0  0  0
   19.3511   19.2071   23.7558 C   0  0  2  0  0  0  0  0  0  0  0  0
   19.0368   18.2540   24.1925 H   0  0  0  0  0  0  0  0  0  0  0  0
   20.0334   20.0380   24.8549 C   0  0  0  0  0  0  0  0  0  0  0  0
   19.3438   20.2211   25.6881 H   0  0  0  0  0  0  0  0  0  0  0  0
   20.3683   21.0089   24.4689 H   0  0  0  0  0  0  0  0  0  0  0  0
   20.9073   19.5106   25.2570 H   0  0  0  0  0  0  0  0  0  0  0  0
   20.3461   18.9092   22.6123 C   0  0  0  0  0  0  0  0  0  0  0  0
   20.6597   19.8500   22.1406 H   0  0  0  0  0  0  0  0  0  0  0  0
   21.2510   18.4565   23.0392 H   0  0  0  0  0  0  0  0  0  0  0  0
   19.7686   17.9537   21.5404 C   0  0  0  0  0  0  0  0  0  0  0  0
   18.8933   18.4090   21.0577 H   0  0  0  0  0  0  0  0  0  0  0  0
   19.4220   17.0267   22.0188 H   0  0  0  0  0  0  0  0  0  0  0  0
   20.8159   17.6102   20.4595 C   0  0  0  0  0  0  0  0  0  0  0  0
   21.1600   18.5148   19.9414 H   0  0  0  0  0  0  0  0  0  0  0  0
   20.3894   16.9335   19.7076 H   0  0  0  0  0  0  0  0  0  0  0  0
   21.6910   17.1146   20.8997 H   0  0  0  0  0  0  0  0  0  0  0  0
  1  2  1  0  0  0  0
  1  3  1  0  0  0  0
  1  4  1  0  0  0  0
  1  5  1  0  0  0  0
  5  6  1  0  0  0  0
  5  7  1  0  0  0  0
  7  8  1  0  0  0  0
  7  9  1  0  0  0  0
  7 10  1  0  0  0  0
  5 11  1  0  0  0  0
 11 12  1  0  0  0  0
 11 13  1  0  0  0  0
 11 14  1  0  0  0  0
 14 15  1  0  0  0  0
 14 16  1  0  0  0  0
 14 17  1  0  0  0  0
 17 18  1  0  0  0  0
 17 19  1  0  0  0  0
 17 20  1  0  0  0  0
M  END
> <VConfSearch Rank>
271

> <Conf_Id>
74

> <Delta U+W>
0.000

> <U+W>
-36.276

> <U>
22.080

> <W>
-58.356

> <W(PB)>
-60.289

> <W(SA)>
1.932

> <Valence>
1.885

> <Coulomb>
19.559

> <VdW>
0.637

> <VdW6>
-4.482

> <VdW12>
5.119

> <Bond>
0.136

> <Angle>
0.867

> <Pdih>
0.882

> <Idih>
0.000

> <Tether>
0.000

$$$$
VeraChem MOL file


 20 19  0  0  0  0  0  0  0  0999 V2000     
   17.4683   19.6254   23.0046 N   0  3  0  0  0  0  0  0  0  0  0  0
   17.4164   19.7599   24.0181 H   0  0  0  0  0  0  0  0  0  0  0  0
   17.0182   18.7319   22.7907 H   0  0  0  0  0  0  0  0  0  0  0  0
   16.9034   20.3616   22.5728 H   0  0  0  0  0  0  0  0  0  0  0  0
   18.8889   19.6606   22.5115 C   0  0  2  0  0  0  0  0  0  0  0  0
   19.2839   20.6453   22.7800 H   0  0  0  0  0  0  0  0  0  0  0  0
   18.9254   19.5237   20.9783 C   0  0  0  0  0  0  0  0  0  0  0  0
   18.2662   20.2639   20.5086 H   0  0  0  0  0  0  0  0  0  0  0  0
   18.5971   18.5263   20.6606 H   0  0  0  0  0  0  0  0  0  0  0  0
   19.9344   19.6948   20.5860 H   0  0  0  0  0  0  0  0  0  0  0  0
   19.7514   18.5859   23.2135 C   0  0  0  0  0  0  0  0  0  0  0  0
   19.5967   18.6698   24.2973 H   0  0  0  0  0  0  0  0  0  0  0  0
   19.4015   17.5854   22.9264 H   0  0  0  0  0  0  0  0  0  0  0  0
   21.2669   18.7120   22.9224 C   0  0  0  0  0  0  0  0  0  0  0  0
   21.6044   19.7329   23.1504 H   0  0  0  0  0  0  0  0  0  0  0  0
   21.4658   18.5413   21.8560 H   0  0  0  0  0  0  0  0  0  0  0  0
   22.0919   17.7036   23.7507 C   0  0  0  0  0  0  0  0  0  0  0  0
   21.9543   17.8691   24.8272 H   0  0  0  0  0  0  0  0  0  0  0  0
   23.1624   17.8041   23.5295 H   0  0  0  0  0  0  0  0  0  0  0  0
   21.7969   16.6709   23.5233 H   0  0  0  0  0  0  0  0  0  0  0  0
  1  2  1  0  0  0  0
  1  3  1  0  0  0  0
  1  4  1  0  0  0  0
  1  5  1  0  0  0  0
  5  6  1  0  0  0  0
  5  7  1  0  0  0  0
  7  8  1  0  0  0  0
  7  9  1  0  0  0  0
  7 10  1  0  0  0  0
  5 11  1  0  0  0  0
 11 12  1  0  0  0  0
 11 13  1  0  0  0  0
 11 14  1  0  0  0  0
 14 15  1  0  0  0  0
 14 16  1  0  0  0  0
 14 17  1  0  0  0  0
 17 18  1  0  0  0  0
 17 19  1  0  0  0  0
 17 20  1  0  0  0  0
M  END
> <VConfSearch Rank>
272

> <Conf_Id>
80

> <Delta U+W>
0.460

> <U+W>
-35.817

> <U>
22.495

> <W>
-58.311

> <W(PB)>
-60.259

> <W(SA)>
1.948

> <Valence>
2.419

> <Coulomb>
19.304

> <VdW>
0.772

> <VdW6>
-4.635

> <VdW12>
5.407

> <Bond>
0.149

> <Angle>
1.142

> <Pdih>
1.129

> <Idih>
0.000

> <Tether>
0.000

$$$$
VeraChem MOL file


 20 19  0  0  0  0  0  0  0  0999 V2000     
   18.3320   20.6284   23.5680 N   0  3  0  0  0  0  0  0  0  0  0  0
   17.8552   21.1169   22.8051 H   0  0  0  0  0  0  0  0  0  0  0  0
   19.1011   21.2259   23.8812 H   0  0  0  0  0  0  0  0  0  0  0  0
   17.6673   20.5569   24.3431 H   0  0  0  0  0  0  0  0  0  0  0  0
   18.8249   19.2737   23.1385 C   0  0  2  0  0  0  0  0  0  0  0  0
   17.9395   18.7095   22.8294 H   0  0  0  0  0  0  0  0  0  0  0  0
   19.4683   18.5398   24.3275 C   0  0  0  0  0  0  0  0  0  0  0  0
   18.8025   18.5560   25.1990 H   0  0  0  0  0  0  0  0  0  0  0  0
   20.4188   19.0054   24.6158 H   0  0  0  0  0  0  0  0  0  0  0  0
   19.6542   17.4873   24.0851 H   0  0  0  0  0  0  0  0  0  0  0  0
   19.7715   19.3879   21.9185 C   0  0  0  0  0  0  0  0  0  0  0  0
   19.2407   19.9543   21.1419 H   0  0  0  0  0  0  0  0  0  0  0  0
   20.6527   19.9900   22.1770 H   0  0  0  0  0  0  0  0  0  0  0  0
   20.2092   18.0342   21.2993 C   0  0  0  0  0  0  0  0  0  0  0  0
   20.2635   18.1496   20.2076 H   0  0  0  0  0  0  0  0  0  0  0  0
   19.4455   17.2653   21.4827 H   0  0  0  0  0  0  0  0  0  0  0  0
   21.5919   17.5495   21.7954 C   0  0  0  0  0  0  0  0  0  0  0  0
   22.3745   18.2787   21.5485 H   0  0  0  0  0  0  0  0  0  0  0  0
   21.8605   16.5993   21.3159 H   0  0  0  0  0  0  0  0  0  0  0  0
   21.6099   17.3904   22.8793 H   0  0  0  0  0  0  0  0  0  0  0  0
  1  2  1  0  0  0  0
  1  3  1  0  0  0  0
  1  4  1  0  0  0  0
  1  5  1  0  0  0  0
  5  6  1  0  0  0  0
  5  7  1  0  0  0  0
  7  8  1  0  0  0  0
  7  9  1  0  0  0  0
  7 10  1  0  0  0  0
  5 11  1  0  0  0  0
 11 12  1  0  0  0  0
 11 13  1  0  0  0  0
 11 14  1  0  0  0  0
 14 15  1  0  0  0  0
 14 16  1  0  0  0  0
 14 17  1  0  0  0  0
 17 18  1  0  0  0  0
 17 19  1  0  0  0  0
 17 20  1  0  0  0  0
M  END
> <VConfSearch Rank>
273

> <Conf_Id>
52

> <Delta U+W>
2.995

> <U+W>
-33.282

> <U>
25.224

> <W>
-58.506

> <W(PB)>
-60.411

> <W(SA)>
1.905

> <Valence>
4.945

> <Coulomb>
19.467

> <VdW>
0.813

> <VdW6>
-5.458

> <VdW12>
6.270

> <Bond>
0.200

> <Angle>
1.675

> <Pdih>
3.070

> <Idih>
0.000

> <Tether>
0.000

$$$$
VeraChem MOL file


 20 19  0  0  0  0  0  0  0  0999 V2000     
   20.3580   20.3164   23.4987 N   0  3  0  0  0  0  0  0  0  0  0  0
   21.3725   20.2197   23.4106 H   0  0  0  0  0  0  0  0  0  0  0  0
   20.1777   20.9454   24.2858 H   0  0  0  0  0  0  0  0  0  0  0  0
   20.0199   20.7773   22.6511 H   0  0  0  0  0  0  0  0  0  0  0  0
   19.6947   18.9805   23.6956 C   0  0  2  0  0  0  0  0  0  0  0  0
   18.6249   19.1686   23.8295 H   0  0  0  0  0  0  0  0  0  0  0  0
   20.2300   18.3161   24.9753 C   0  0  0  0  0  0  0  0  0  0  0  0
   21.3002   18.0905   24.8878 H   0  0  0  0  0  0  0  0  0  0  0  0
   19.6987   17.3785   25.1809 H   0  0  0  0  0  0  0  0  0  0  0  0
   20.0887   18.9727   25.8426 H   0  0  0  0  0  0  0  0  0  0  0  0
   19.8742   18.0371   22.4823 C   0  0  0  0  0  0  0  0  0  0  0  0
   20.9251   18.0316   22.1645 H   0  0  0  0  0  0  0  0  0  0  0  0
   19.6524   17.0101   22.8018 H   0  0  0  0  0  0  0  0  0  0  0  0
   18.9523   18.3488   21.2742 C   0  0  0  0  0  0  0  0  0  0  0  0
   17.9005   18.3059   21.5902 H   0  0  0  0  0  0  0  0  0  0  0  0
   19.0779   17.5476   20.5323 H   0  0  0  0  0  0  0  0  0  0  0  0
   19.2272   19.7021   20.5797 C   0  0  0  0  0  0  0  0  0  0  0  0
   18.6823   19.7571   19.6282 H   0  0  0  0  0  0  0  0  0  0  0  0
   20.2952   19.8280   20.3582 H   0  0  0  0  0  0  0  0  0  0  0  0
   18.8878   20.5465   21.1906 H   0  0  0  0  0  0  0  0  0  0  0  0
  1  2  1  0  0  0  0
  1  3  1  0  0  0  0
  1  4  1  0  0  0  0
  1  5  1  0  0  0  0
  5  6  1  0  0  0  0
  5  7  1  0  0  0  0
  7  8  1  0  0  0  0
  7  9  1  0  0  0  0
  7 10  1  0  0  0  0
  5 11  1  0  0  0  0
 11 12  1  0  0  0  0
 11 13  1  0  0  0  0
 11 14  1  0  0  0  0
 14 15  1  0  0  0  0
 14 16  1  0  0  0  0
 14 17  1  0  0  0  0
 17 18  1  0  0  0  0
 17 19  1  0  0  0  0
 17 20  1  0  0  0  0
M  END
> <VConfSearch Rank>
274

> <Conf_Id>
54

> <Delta U+W>
2.752

> <U+W>
-33.525

> <U>
24.337

> <W>
-57.862

> <W(PB)>
-59.764

> <W(SA)>
1.901

> <Valence>
3.593

> <Coulomb>
20.067

> <VdW>
0.677

> <VdW6>
-5.466

> <VdW12>
6.144

> <Bond>
0.191

> <Angle>
1.557

> <Pdih>
1.845

> <Idih>
0.000

> <Tether>
0.000

$$$$
VeraChem MOL file


 20 19  0  0  0  0  0  0  0  0999 V2000     
   19.0185   18.8843   24.6251 N   0  3  0  0  0  0  0  0  0  0  0  0
   18.5181   19.4154   25.3428 H   0  0  0  0  0  0  0  0  0  0  0  0
   19.6489   18.2392   25.1089 H   0  0  0  0  0  0  0  0  0  0  0  0
   18.3272   18.3211   24.1246 H   0  0  0  0  0  0  0  0  0  0  0  0
   19.7685   19.7935   23.6898 C   0  0  2  0  0  0  0  0  0  0  0  0
   20.4653   20.3616   24.3140 H   0  0  0  0  0  0  0  0  0  0  0  0
   18.8188   20.8020   23.0191 C   0  0  0  0  0  0  0  0  0  0  0  0
   19.3691   21.4618   22.3368 H   0  0  0  0  0  0  0  0  0  0  0  0
   18.3355   21.4341   23.7740 H   0  0  0  0  0  0  0  0  0  0  0  0
   18.0290   20.2990   22.4488 H   0  0  0  0  0  0  0  0  0  0  0  0
   20.6134   19.0127   22.6546 C   0  0  0  0  0  0  0  0  0  0  0  0
   21.2015   19.7296   22.0664 H   0  0  0  0  0  0  0  0  0  0  0  0
   21.3436   18.3971   23.1962 H   0  0  0  0  0  0  0  0  0  0  0  0
   19.7993   18.1084   21.6935 C   0  0  0  0  0  0  0  0  0  0  0  0
   19.0979   18.7142   21.1044 H   0  0  0  0  0  0  0  0  0  0  0  0
   19.1973   17.3907   22.2668 H   0  0  0  0  0  0  0  0  0  0  0  0
   20.7215   17.3331   20.7282 C   0  0  0  0  0  0  0  0  0  0  0  0
   20.1314   16.6995   20.0533 H   0  0  0  0  0  0  0  0  0  0  0  0
   21.4142   16.6836   21.2791 H   0  0  0  0  0  0  0  0  0  0  0  0
   21.3150   18.0204   20.1112 H   0  0  0  0  0  0  0  0  0  0  0  0
  1  2  1  0  0  0  0
  1  3  1  0  0  0  0
  1  4  1  0  0  0  0
  1  5  1  0  0  0  0
  5  6  1  0  0  0  0
  5  7  1  0  0  0  0
  7  8  1  0  0  0  0
  7  9  1  0  0  0  0
  7 10  1  0  0  0  0
  5 11  1  0  0  0  0
 11 12  1  0  0  0  0
 11 13  1  0  0  0  0
 11 14  1  0  0  0  0
 14 15  1  0  0  0  0
 14 16  1  0  0  0  0
 14 17  1  0  0  0  0
 17 18  1  0  0  0  0
 17 19  1  0  0  0  0
 17 20  1  0  0  0  0
M  END
> <VConfSearch Rank>
275

> <Conf_Id>
63

> <Delta U+W>
0.420

> <U+W>
-35.856

> <U>
22.625

> <W>
-58.481

> <W(PB)>
-60.400

> <W(SA)>
1.919

> <Valence>
2.404

> <Coulomb>
19.464

> <VdW>
0.757

> <VdW6>
-5.074

> <VdW12>
5.830

> <Bond>
0.172

> <Angle>
1.207

> <Pdih>
1.025

> <Idih>
0.000

> <Tether>
0.000

$$$$
VeraChem MOL file


 20 19  0  0  0  0  0  0  0  0999 V2000     
   20.9513   17.8394   22.2739 N   0  3  0  0  0  0  0  0  0  0  0  0
   20.3023   17.1201   22.6029 H   0  0  0  0  0  0  0  0  0  0  0  0
   21.7334   17.8731   22.9325 H   0  0  0  0  0  0  0  0  0  0  0  0
   21.3232   17.5268   21.3731 H   0  0  0  0  0  0  0  0  0  0  0  0
   20.2717   19.1767   22.1564 C   0  0  2  0  0  0  0  0  0  0  0  0
   19.4568   19.0534   21.4368 H   0  0  0  0  0  0  0  0  0  0  0  0
   21.2425   20.2326   21.6031 C   0  0  0  0  0  0  0  0  0  0  0  0
   21.6446   19.9194   20.6318 H   0  0  0  0  0  0  0  0  0  0  0  0
   22.0859   20.3940   22.2860 H   0  0  0  0  0  0  0  0  0  0  0  0
   20.7323   21.1928   21.4575 H   0  0  0  0  0  0  0  0  0  0  0  0
   19.6666   19.6520   23.4969 C   0  0  0  0  0  0  0  0  0  0  0  0
   20.4721   19.7976   24.2289 H   0  0  0  0  0  0  0  0  0  0  0  0
   19.2039   20.6371   23.3506 H   0  0  0  0  0  0  0  0  0  0  0  0
   18.6081   18.6895   24.0928 C   0  0  0  0  0  0  0  0  0  0  0  0
   18.2433   19.1099   25.0405 H   0  0  0  0  0  0  0  0  0  0  0  0
   19.0710   17.7268   24.3485 H   0  0  0  0  0  0  0  0  0  0  0  0
   17.4040   18.4559   23.1522 C   0  0  0  0  0  0  0  0  0  0  0  0
   16.9241   19.4056   22.8824 H   0  0  0  0  0  0  0  0  0  0  0  0
   16.6492   17.8274   23.6427 H   0  0  0  0  0  0  0  0  0  0  0  0
   17.7052   17.9490   22.2269 H   0  0  0  0  0  0  0  0  0  0  0  0
  1  2  1  0  0  0  0
  1  3  1  0  0  0  0
  1  4  1  0  0  0  0
  1  5  1  0  0  0  0
  5  6  1  0  0  0  0
  5  7  1  0  0  0  0
  7  8  1  0  0  0  0
  7  9  1  0  0  0  0
  7 10  1  0  0  0  0
  5 11  1  0  0  0  0
 11 12  1  0  0  0  0
 11 13  1  0  0  0  0
 11 14  1  0  0  0  0
 14 15  1  0  0  0  0
 14 16  1  0  0  0  0
 14 17  1  0  0  0  0
 17 18  1  0  0  0  0
 17 19  1  0  0  0  0
 17 20  1  0  0  0  0
M  END
> <VConfSearch Rank>
276

> <Conf_Id>
50

> <Delta U+W>
0.466

> <U+W>
-35.811

> <U>
22.369

> <W>
-58.180

> <W(PB)>
-60.103

> <W(SA)>
1.923

> <Valence>
2.168

> <Coulomb>
19.636

> <VdW>
0.566

> <VdW6>
-5.263

> <VdW12>
5.829

> <Bond>
0.162

> <Angle>
1.066

> <Pdih>
0.939

> <Idih>
0.000

> <Tether>
0.000

$$$$
VeraChem MOL file


 20 19  0  0  0  0  0  0  0  0999 V2000     
   20.2175   20.9323   21.8098 N   0  3  0  0  0  0  0  0  0  0  0  0
   20.2718   20.7431   20.8052 H   0  0  0  0  0  0  0  0  0  0  0  0
   21.1596   21.1728   22.1285 H   0  0  0  0  0  0  0  0  0  0  0  0
   19.6342   21.7649   21.9294 H   0  0  0  0  0  0  0  0  0  0  0  0
   19.6612   19.7567   22.5668 C   0  0  2  0  0  0  0  0  0  0  0  0
   18.6628   19.5753   22.1569 H   0  0  0  0  0  0  0  0  0  0  0  0
   19.5255   20.1082   24.0602 C   0  0  0  0  0  0  0  0  0  0  0  0
   20.5020   20.3444   24.5009 H   0  0  0  0  0  0  0  0  0  0  0  0
   19.0904   19.2807   24.6309 H   0  0  0  0  0  0  0  0  0  0  0  0
   18.8737   20.9802   24.1940 H   0  0  0  0  0  0  0  0  0  0  0  0
   20.5089   18.4784   22.3540 C   0  0  0  0  0  0  0  0  0  0  0  0
   21.1477   18.6136   21.4712 H   0  0  0  0  0  0  0  0  0  0  0  0
   21.1973   18.3298   23.1967 H   0  0  0  0  0  0  0  0  0  0  0  0
   19.6667   17.1983   22.1218 C   0  0  0  0  0  0  0  0  0  0  0  0
   20.3487   16.3644   21.9041 H   0  0  0  0  0  0  0  0  0  0  0  0
   19.0445   17.3257   21.2247 H   0  0  0  0  0  0  0  0  0  0  0  0
   18.7690   16.8069   23.3165 C   0  0  0  0  0  0  0  0  0  0  0  0
   19.3560   16.7135   24.2395 H   0  0  0  0  0  0  0  0  0  0  0  0
   18.2828   15.8405   23.1301 H   0  0  0  0  0  0  0  0  0  0  0  0
   17.9754   17.5463   23.4809 H   0  0  0  0  0  0  0  0  0  0  0  0
  1  2  1  0  0  0  0
  1  3  1  0  0  0  0
  1  4  1  0  0  0  0
  1  5  1  0  0  0  0
  5  6  1  0  0  0  0
  5  7  1  0  0  0  0
  7  8  1  0  0  0  0
  7  9  1  0  0  0  0
  7 10  1  0  0  0  0
  5 11  1  0  0  0  0
 11 12  1  0  0  0  0
 11 13  1  0  0  0  0
 11 14  1  0  0  0  0
 14 15  1  0  0  0  0
 14 16  1  0  0  0  0
 14 17  1  0  0  0  0
 17 18  1  0  0  0  0
 17 19  1  0  0  0  0
 17 20  1  0  0  0  0
M  END
> <VConfSearch Rank>
277

> <Conf_Id>
3

> <Delta U+W>
3.093

> <U+W>
-33.184

> <U>
25.256

> <W>
-58.439

> <W(PB)>
-60.337

> <W(SA)>
1.898

> <Valence>
4.963

> <Coulomb>
19.511

> <VdW>
0.782

> <VdW6>
-5.429

> <VdW12>
6.211

> <Bond>
0.174

> <Angle>
1.377

> <Pdih>
3.412

> <Idih>
0.000

> <Tether>
0.000

$$$$
VeraChem MOL file


 20 19  0  0  0  0  0  0  0  0999 V2000     
   20.0486   21.1554   23.1491 N   0  3  0  0  0  0  0  0  0  0  0  0
   19.6816   21.8962   22.5457 H   0  0  0  0  0  0  0  0  0  0  0  0
   21.0694   21.2303   23.1331 H   0  0  0  0  0  0  0  0  0  0  0  0
   19.7413   21.3604   24.1032 H   0  0  0  0  0  0  0  0  0  0  0  0
   19.5842   19.7974   22.6988 C   0  0  2  0  0  0  0  0  0  0  0  0
   19.9535   19.6706   21.6767 H   0  0  0  0  0  0  0  0  0  0  0  0
   18.0461   19.7396   22.6708 C   0  0  0  0  0  0  0  0  0  0  0  0
   17.6914   18.8085   22.2139 H   0  0  0  0  0  0  0  0  0  0  0  0
   17.6387   20.5676   22.0778 H   0  0  0  0  0  0  0  0  0  0  0  0
   17.6276   19.8075   23.6826 H   0  0  0  0  0  0  0  0  0  0  0  0
   20.1919   18.6780   23.5775 C   0  0  0  0  0  0  0  0  0  0  0  0
   21.2798   18.8192   23.6238 H   0  0  0  0  0  0  0  0  0  0  0  0
   19.8270   18.7861   24.6075 H   0  0  0  0  0  0  0  0  0  0  0  0
   19.9081   17.2345   23.0887 C   0  0  0  0  0  0  0  0  0  0  0  0
   18.8346   17.0128   23.1565 H   0  0  0  0  0  0  0  0  0  0  0  0
   20.4037   16.5286   23.7698 H   0  0  0  0  0  0  0  0  0  0  0  0
   20.4056   16.9737   21.6487 C   0  0  0  0  0  0  0  0  0  0  0  0
   21.4775   17.1915   21.5556 H   0  0  0  0  0  0  0  0  0  0  0  0
   19.8653   17.5884   20.9178 H   0  0  0  0  0  0  0  0  0  0  0  0
   20.2525   15.9221   21.3735 H   0  0  0  0  0  0  0  0  0  0  0  0
  1  2  1  0  0  0  0
  1  3  1  0  0  0  0
  1  4  1  0  0  0  0
  1  5  1  0  0  0  0
  5  6  1  0  0  0  0
  5  7  1  0  0  0  0
  7  8  1  0  0  0  0
  7  9  1  0  0  0  0
  7 10  1  0  0  0  0
  5 11  1  0  0  0  0
 11 12  1  0  0  0  0
 11 13  1  0  0  0  0
 11 14  1  0  0  0  0
 14 15  1  0  0  0  0
 14 16  1  0  0  0  0
 14 17  1  0  0  0  0
 17 18  1  0  0  0  0
 17 19  1  0  0  0  0
 17 20  1  0  0  0  0
M  END
> <VConfSearch Rank>
278

> <Conf_Id>
64

> <Delta U+W>
0.544

> <U+W>
-35.732

> <U>
22.800

> <W>
-58.532

> <W(PB)>
-60.437

> <W(SA)>
1.905

> <Valence>
2.662

> <Coulomb>
19.485

> <VdW>
0.653

> <VdW6>
-5.460

> <VdW12>
6.113

> <Bond>
0.174

> <Angle>
1.378

> <Pdih>
1.109

> <Idih>
0.000

> <Tether>
0.000

$$$$
VeraChem MOL file


 20 19  0  0  0  0  0  0  0  0999 V2000     
   18.9890   17.0171   22.2442 N   0  3  0  0  0  0  0  0  0  0  0  0
   18.8500   17.5185   21.3641 H   0  0  0  0  0  0  0  0  0  0  0  0
   18.1099   16.5429   22.4678 H   0  0  0  0  0  0  0  0  0  0  0  0
   19.6911   16.2914   22.0767 H   0  0  0  0  0  0  0  0  0  0  0  0
   19.4083   17.9489   23.3490 C   0  0  2  0  0  0  0  0  0  0  0  0
   19.5190   17.3244   24.2411 H   0  0  0  0  0  0  0  0  0  0  0  0
   18.3067   18.9799   23.6441 C   0  0  0  0  0  0  0  0  0  0  0  0
   18.0458   19.5561   22.7488 H   0  0  0  0  0  0  0  0  0  0  0  0
   18.6242   19.6776   24.4289 H   0  0  0  0  0  0  0  0  0  0  0  0
   17.3964   18.4780   23.9940 H   0  0  0  0  0  0  0  0  0  0  0  0
   20.7884   18.5995   23.0794 C   0  0  0  0  0  0  0  0  0  0  0  0
   21.1256   19.1257   23.9821 H   0  0  0  0  0  0  0  0  0  0  0  0
   21.5114   17.7862   22.9333 H   0  0  0  0  0  0  0  0  0  0  0  0
   20.8716   19.5507   21.8532 C   0  0  0  0  0  0  0  0  0  0  0  0
   20.1728   19.2377   21.0663 H   0  0  0  0  0  0  0  0  0  0  0  0
   21.8753   19.4621   21.4141 H   0  0  0  0  0  0  0  0  0  0  0  0
   20.6418   21.0386   22.2083 C   0  0  0  0  0  0  0  0  0  0  0  0
   19.6398   21.2173   22.6132 H   0  0  0  0  0  0  0  0  0  0  0  0
   20.7542   21.6674   21.3156 H   0  0  0  0  0  0  0  0  0  0  0  0
   21.3735   21.3829   22.9507 H   0  0  0  0  0  0  0  0  0  0  0  0
  1  2  1  0  0  0  0
  1  3  1  0  0  0  0
  1  4  1  0  0  0  0
  1  5  1  0  0  0  0
  5  6  1  0  0  0  0
  5  7  1  0  0  0  0
  7  8  1  0  0  0  0
  7  9  1  0  0  0  0
  7 10  1  0  0  0  0
  5 11  1  0  0  0  0
 11 12  1  0  0  0  0
 11 13  1  0  0  0  0
 11 14  1  0  0  0  0
 14 15  1  0  0  0  0
 14 16  1  0  0  0  0
 14 17  1  0  0  0  0
 17 18  1  0  0  0  0
 17 19  1  0  0  0  0
 17 20  1  0  0  0  0
M  END
> <VConfSearch Rank>
279

> <Conf_Id>
35

> <Delta U+W>
3.004

> <U+W>
-33.272

> <U>
25.367

> <W>
-58.639

> <W(PB)>
-60.512

> <W(SA)>
1.873

> <Valence>
4.943

> <Coulomb>
19.661

> <VdW>
0.764

> <VdW6>
-5.871

> <VdW12>
6.636

> <Bond>
0.230

> <Angle>
1.857

> <Pdih>
2.855

> <Idih>
0.000

> <Tether>
0.000

$$$$
VeraChem MOL file


 20 19  0  0  0  0  0  0  0  0999 V2000     
   19.6575   17.2655   23.1999 N   0  3  0  0  0  0  0  0  0  0  0  0
   20.1340   16.3750   23.0341 H   0  0  0  0  0  0  0  0  0  0  0  0
   18.7326   17.0497   23.5816 H   0  0  0  0  0  0  0  0  0  0  0  0
   20.1778   17.7656   23.9231 H   0  0  0  0  0  0  0  0  0  0  0  0
   19.5567   18.0806   21.9397 C   0  0  2  0  0  0  0  0  0  0  0  0
   18.9658   17.4719   21.2481 H   0  0  0  0  0  0  0  0  0  0  0  0
   20.9386   18.2933   21.2966 C   0  0  0  0  0  0  0  0  0  0  0  0
   21.6233   18.8189   21.9728 H   0  0  0  0  0  0  0  0  0  0  0  0
   20.8515   18.8775   20.3722 H   0  0  0  0  0  0  0  0  0  0  0  0
   21.3952   17.3298   21.0393 H   0  0  0  0  0  0  0  0  0  0  0  0
   18.7856   19.4109   22.1369 C   0  0  0  0  0  0  0  0  0  0  0  0
   18.4907   19.7744   21.1437 H   0  0  0  0  0  0  0  0  0  0  0  0
   17.8439   19.2015   22.6611 H   0  0  0  0  0  0  0  0  0  0  0  0
   19.5305   20.5659   22.8632 C   0  0  0  0  0  0  0  0  0  0  0  0
   18.8660   21.4411   22.8787 H   0  0  0  0  0  0  0  0  0  0  0  0
   20.4109   20.8752   22.2837 H   0  0  0  0  0  0  0  0  0  0  0  0
   19.9498   20.2500   24.3169 C   0  0  0  0  0  0  0  0  0  0  0  0
   19.1060   19.8561   24.8982 H   0  0  0  0  0  0  0  0  0  0  0  0
   20.3014   21.1616   24.8174 H   0  0  0  0  0  0  0  0  0  0  0  0
   20.7728   19.5270   24.3517 H   0  0  0  0  0  0  0  0  0  0  0  0
  1  2  1  0  0  0  0
  1  3  1  0  0  0  0
  1  4  1  0  0  0  0
  1  5  1  0  0  0  0
  5  6  1  0  0  0  0
  5  7  1  0  0  0  0
  7  8  1  0  0  0  0
  7  9  1  0  0  0  0
  7 10  1  0  0  0  0
  5 11  1  0  0  0  0
 11 12  1  0  0  0  0
 11 13  1  0  0  0  0
 11 14  1  0  0  0  0
 14 15  1  0  0  0  0
 14 16  1  0  0  0  0
 14 17  1  0  0  0  0
 17 18  1  0  0  0  0
 17 19  1  0  0  0  0
 17 20  1  0  0  0  0
M  END
> <VConfSearch Rank>
280

> <Conf_Id>
55

> <Delta U+W>
2.767

> <U+W>
-33.509

> <U>
24.552

> <W>
-58.061

> <W(PB)>
-59.930

> <W(SA)>
1.869

> <Valence>
3.726

> <Coulomb>
20.219

> <VdW>
0.606

> <VdW6>
-6.395

> <VdW12>
7.001

> <Bond>
0.241

> <Angle>
2.098

> <Pdih>
1.387

> <Idih>
0.000

> <Tether>
0.000

$$$$
VeraChem MOL file


 20 19  0  0  0  0  0  0  0  0999 V2000     
   20.5568   17.7346   21.3994 N   0  3  0  0  0  0  0  0  0  0  0  0
   21.4050   18.2773   21.2190 H   0  0  0  0  0  0  0  0  0  0  0  0
   20.3879   17.1497   20.5766 H   0  0  0  0  0  0  0  0  0  0  0  0
   20.7540   17.1069   22.1828 H   0  0  0  0  0  0  0  0  0  0  0  0
   19.3815   18.6286   21.6904 C   0  0  2  0  0  0  0  0  0  0  0  0
   18.5249   17.9727   21.8743 H   0  0  0  0  0  0  0  0  0  0  0  0
   19.0594   19.5105   20.4728 C   0  0  0  0  0  0  0  0  0  0  0  0
   18.8672   18.8938   19.5863 H   0  0  0  0  0  0  0  0  0  0  0  0
   19.8900   20.1896   20.2431 H   0  0  0  0  0  0  0  0  0  0  0  0
   18.1635   20.1166   20.6562 H   0  0  0  0  0  0  0  0  0  0  0  0
   19.5976   19.5035   22.9449 C   0  0  0  0  0  0  0  0  0  0  0  0
   20.4681   20.1560   22.7953 H   0  0  0  0  0  0  0  0  0  0  0  0
   18.7293   20.1642   23.0698 H   0  0  0  0  0  0  0  0  0  0  0  0
   19.7824   18.6732   24.2380 C   0  0  0  0  0  0  0  0  0  0  0  0
   20.6791   18.0437   24.1603 H   0  0  0  0  0  0  0  0  0  0  0  0
   18.9274   17.9946   24.3676 H   0  0  0  0  0  0  0  0  0  0  0  0
   19.9103   19.5775   25.4826 C   0  0  0  0  0  0  0  0  0  0  0  0
   20.7755   20.2477   25.3966 H   0  0  0  0  0  0  0  0  0  0  0  0
   20.0419   18.9728   26.3893 H   0  0  0  0  0  0  0  0  0  0  0  0
   19.0122   20.1944   25.6175 H   0  0  0  0  0  0  0  0  0  0  0  0
  1  2  1  0  0  0  0
  1  3  1  0  0  0  0
  1  4  1  0  0  0  0
  1  5  1  0  0  0  0
  5  6  1  0  0  0  0
  5  7  1  0  0  0  0
  7  8  1  0  0  0  0
  7  9  1  0  0  0  0
  7 10  1  0  0  0  0
  5 11  1  0  0  0  0
 11 12  1  0  0  0  0
 11 13  1  0  0  0  0
 11 14  1  0  0  0  0
 14 15  1  0  0  0  0
 14 16  1  0  0  0  0
 14 17  1  0  0  0  0
 17 18  1  0  0  0  0
 17 19  1  0  0  0  0
 17 20  1  0  0  0  0
M  END
> <VConfSearch Rank>
281

> <Conf_Id>
74

> <Delta U+W>
0.000

> <U+W>
-36.276

> <U>
22.080

> <W>
-58.356

> <W(PB)>
-60.289

> <W(SA)>
1.932

> <Valence>
1.885

> <Coulomb>
19.559

> <VdW>
0.637

> <VdW6>
-4.482

> <VdW12>
5.119

> <Bond>
0.136

> <Angle>
0.867

> <Pdih>
0.882

> <Idih>
0.000

> <Tether>
0.000

$$$$
VeraChem MOL file


 20 19  0  0  0  0  0  0  0  0999 V2000     
   19.3090   21.0347   21.6632 N   0  3  0  0  0  0  0  0  0  0  0  0
   18.7708   21.5243   22.3833 H   0  0  0  0  0  0  0  0  0  0  0  0
   18.6466   20.7065   20.9559 H   0  0  0  0  0  0  0  0  0  0  0  0
   19.9141   21.7279   21.2147 H   0  0  0  0  0  0  0  0  0  0  0  0
   20.1073   19.8989   22.2420 C   0  0  2  0  0  0  0  0  0  0  0  0
   20.7838   20.3422   22.9794 H   0  0  0  0  0  0  0  0  0  0  0  0
   20.9554   19.2291   21.1453 C   0  0  0  0  0  0  0  0  0  0  0  0
   21.5552   19.9758   20.6106 H   0  0  0  0  0  0  0  0  0  0  0  0
   20.3220   18.7140   20.4124 H   0  0  0  0  0  0  0  0  0  0  0  0
   21.6533   18.4987   21.5704 H   0  0  0  0  0  0  0  0  0  0  0  0
   19.1930   18.8872   22.9714 C   0  0  0  0  0  0  0  0  0  0  0  0
   18.5413   19.4415   23.6597 H   0  0  0  0  0  0  0  0  0  0  0  0
   18.5316   18.3962   22.2453 H   0  0  0  0  0  0  0  0  0  0  0  0
   19.9652   17.8168   23.7807 C   0  0  0  0  0  0  0  0  0  0  0  0
   20.6732   18.3075   24.4634 H   0  0  0  0  0  0  0  0  0  0  0  0
   20.5584   17.1841   23.1072 H   0  0  0  0  0  0  0  0  0  0  0  0
   19.0091   16.9185   24.5947 C   0  0  0  0  0  0  0  0  0  0  0  0
   18.4263   17.5094   25.3133 H   0  0  0  0  0  0  0  0  0  0  0  0
   19.5724   16.1638   25.1588 H   0  0  0  0  0  0  0  0  0  0  0  0
   18.3064   16.3912   23.9363 H   0  0  0  0  0  0  0  0  0  0  0  0
  1  2  1  0  0  0  0
  1  3  1  0  0  0  0
  1  4  1  0  0  0  0
  1  5  1  0  0  0  0
  5  6  1  0  0  0  0
  5  7  1  0  0  0  0
  7  8  1  0  0  0  0
  7  9  1  0  0  0  0
  7 10  1  0  0  0  0
  5 11  1  0  0  0  0
 11 12  1  0  0  0  0
 11 13  1  0  0  0  0
 11 14  1  0  0  0  0
 14 15  1  0  0  0  0
 14 16  1  0  0  0  0
 14 17  1  0  0  0  0
 17 18  1  0  0  0  0
 17 19  1  0  0  0  0
 17 20  1  0  0  0  0
M  END
> <VConfSearch Rank>
282

> <Conf_Id>
80

> <Delta U+W>
0.460

> <U+W>
-35.817

> <U>
22.495

> <W>
-58.311

> <W(PB)>
-60.259

> <W(SA)>
1.948

> <Valence>
2.419

> <Coulomb>
19.304

> <VdW>
0.772

> <VdW6>
-4.635

> <VdW12>
5.407

> <Bond>
0.149

> <Angle>
1.142

> <Pdih>
1.129

> <Idih>
0.000

> <Tether>
0.000

$$$$
VeraChem MOL file


 20 19  0  0  0  0  0  0  0  0999 V2000     
   18.8967   21.1283   22.7412 N   0  3  0  0  0  0  0  0  0  0  0  0
   19.2467   21.6630   21.9415 H   0  0  0  0  0  0  0  0  0  0  0  0
   19.4305   21.4216   23.5632 H   0  0  0  0  0  0  0  0  0  0  0  0
   17.9250   21.4120   22.8924 H   0  0  0  0  0  0  0  0  0  0  0  0
   19.0081   19.6460   22.5105 C   0  0  2  0  0  0  0  0  0  0  0  0
   18.4058   19.4282   21.6230 H   0  0  0  0  0  0  0  0  0  0  0  0
   18.4057   18.8757   23.6979 C   0  0  0  0  0  0  0  0  0  0  0  0
   17.4032   19.2522   23.9355 H   0  0  0  0  0  0  0  0  0  0  0  0
   19.0290   18.9760   24.5950 H   0  0  0  0  0  0  0  0  0  0  0  0
   18.3011   17.8106   23.4623 H   0  0  0  0  0  0  0  0  0  0  0  0
   20.4713   19.2389   22.2094 C   0  0  0  0  0  0  0  0  0  0  0  0
   20.8225   19.8639   21.3777 H   0  0  0  0  0  0  0  0  0  0  0  0
   21.1172   19.4868   23.0621 H   0  0  0  0  0  0  0  0  0  0  0  0
   20.6681   17.7551   21.8005 C   0  0  0  0  0  0  0  0  0  0  0  0
   21.4499   17.7049   21.0296 H   0  0  0  0  0  0  0  0  0  0  0  0
   19.7554   17.3643   21.3291 H   0  0  0  0  0  0  0  0  0  0  0  0
   21.0998   16.8456   22.9751 C   0  0  0  0  0  0  0  0  0  0  0  0
   22.0515   17.1850   23.4042 H   0  0  0  0  0  0  0  0  0  0  0  0
   21.2408   15.8133   22.6296 H   0  0  0  0  0  0  0  0  0  0  0  0
   20.3555   16.8274   23.7790 H   0  0  0  0  0  0  0  0  0  0  0  0
  1  2  1  0  0  0  0
  1  3  1  0  0  0  0
  1  4  1  0  0  0  0
  1  5  1  0  0  0  0
  5  6  1  0  0  0  0
  5  7  1  0  0  0  0
  7  8  1  0  0  0  0
  7  9  1  0  0  0  0
  7 10  1  0  0  0  0
  5 11  1  0  0  0  0
 11 12  1  0  0  0  0
 11 13  1  0  0  0  0
 11 14  1  0  0  0  0
 14 15  1  0  0  0  0
 14 16  1  0  0  0  0
 14 17  1  0  0  0  0
 17 18  1  0  0  0  0
 17 19  1  0  0  0  0
 17 20  1  0  0  0  0
M  END
> <VConfSearch Rank>
283

> <Conf_Id>
52

> <Delta U+W>
2.995

> <U+W>
-33.282

> <U>
25.224

> <W>
-58.506

> <W(PB)>
-60.411

> <W(SA)>
1.905

> <Valence>
4.945

> <Coulomb>
19.467

> <VdW>
0.813

> <VdW6>
-5.458

> <VdW12>
6.270

> <Bond>
0.200

> <Angle>
1.675

> <Pdih>
3.070

> <Idih>
0.000

> <Tether>
0.000

$$$$
VeraChem MOL file


 20 19  0  0  0  0  0  0  0  0999 V2000     
   19.5270   17.7626   21.7342 N   0  3  0  0  0  0  0  0  0  0  0  0
   18.5205   17.7534   21.5516 H   0  0  0  0  0  0  0  0  0  0  0  0
   19.8854   16.8280   21.5203 H   0  0  0  0  0  0  0  0  0  0  0  0
   19.9520   18.4155   21.0724 H   0  0  0  0  0  0  0  0  0  0  0  0
   19.8229   18.1559   23.1558 C   0  0  2  0  0  0  0  0  0  0  0  0
   20.9077   18.0961   23.2876 H   0  0  0  0  0  0  0  0  0  0  0  0
   19.1654   17.1554   24.1214 C   0  0  0  0  0  0  0  0  0  0  0  0
   18.0715   17.1862   24.0410 H   0  0  0  0  0  0  0  0  0  0  0  0
   19.4382   17.3775   25.1605 H   0  0  0  0  0  0  0  0  0  0  0  0
   19.4954   16.1319   23.9049 H   0  0  0  0  0  0  0  0  0  0  0  0
   19.3722   19.5991   23.4851 C   0  0  0  0  0  0  0  0  0  0  0  0
   18.3485   19.7633   23.1235 H   0  0  0  0  0  0  0  0  0  0  0  0
   19.3259   19.7108   24.5766 H   0  0  0  0  0  0  0  0  0  0  0  0
   20.3123   20.7117   22.9514 C   0  0  0  0  0  0  0  0  0  0  0  0
   21.3241   20.5670   23.3557 H   0  0  0  0  0  0  0  0  0  0  0  0
   19.9628   21.6748   23.3492 H   0  0  0  0  0  0  0  0  0  0  0  0
   20.3830   20.8186   21.4110 C   0  0  0  0  0  0  0  0  0  0  0  0
   20.8989   21.7425   21.1187 H   0  0  0  0  0  0  0  0  0  0  0  0
   19.3798   20.8435   20.9657 H   0  0  0  0  0  0  0  0  0  0  0  0
   20.9468   19.9867   20.9733 H   0  0  0  0  0  0  0  0  0  0  0  0
  1  2  1  0  0  0  0
  1  3  1  0  0  0  0
  1  4  1  0  0  0  0
  1  5  1  0  0  0  0
  5  6  1  0  0  0  0
  5  7  1  0  0  0  0
  7  8  1  0  0  0  0
  7  9  1  0  0  0  0
  7 10  1  0  0  0  0
  5 11  1  0  0  0  0
 11 12  1  0  0  0  0
 11 13  1  0  0  0  0
 11 14  1  0  0  0  0
 14 15  1  0  0  0  0
 14 16  1  0  0  0  0
 14 17  1  0  0  0  0
 17 18  1  0  0  0  0
 17 19  1  0  0  0  0
 17 20  1  0  0  0  0
M  END
> <VConfSearch Rank>
284

> <Conf_Id>
54

> <Delta U+W>
2.752

> <U+W>
-33.525

> <U>
24.337

> <W>
-57.862

> <W(PB)>
-59.764

> <W(SA)>
1.901

> <Valence>
3.593

> <Coulomb>
20.067

> <VdW>
0.677

> <VdW6>
-5.466

> <VdW12>
6.144

> <Bond>
0.191

> <Angle>
1.557

> <Pdih>
1.845

> <Idih>
0.000

> <Tether>
0.000

$$$$
VeraChem MOL file


 20 19  0  0  0  0  0  0  0  0999 V2000     
   18.3948   18.1406   24.0196 N   0  3  0  0  0  0  0  0  0  0  0  0
   18.0708   18.1525   24.9905 H   0  0  0  0  0  0  0  0  0  0  0  0
   18.2269   17.1990   23.6550 H   0  0  0  0  0  0  0  0  0  0  0  0
   17.8015   18.7849   23.4919 H   0  0  0  0  0  0  0  0  0  0  0  0
   19.8467   18.5221   23.9189 C   0  0  2  0  0  0  0  0  0  0  0  0
   20.3940   17.7922   24.5237 H   0  0  0  0  0  0  0  0  0  0  0  0
   20.0970   19.9119   24.5308 C   0  0  0  0  0  0  0  0  0  0  0  0
   21.1562   20.1871   24.4538 H   0  0  0  0  0  0  0  0  0  0  0  0
   19.8295   19.9164   25.5945 H   0  0  0  0  0  0  0  0  0  0  0  0
   19.5031   20.6877   24.0334 H   0  0  0  0  0  0  0  0  0  0  0  0
   20.3885   18.4167   22.4731 C   0  0  0  0  0  0  0  0  0  0  0  0
   21.4676   18.6193   22.4850 H   0  0  0  0  0  0  0  0  0  0  0  0
   20.2813   17.3769   22.1373 H   0  0  0  0  0  0  0  0  0  0  0  0
   19.7029   19.3557   21.4471 C   0  0  0  0  0  0  0  0  0  0  0  0
   19.8440   20.4050   21.7387 H   0  0  0  0  0  0  0  0  0  0  0  0
   18.6202   19.1723   21.4295 H   0  0  0  0  0  0  0  0  0  0  0  0
   20.2704   19.1523   20.0259 C   0  0  0  0  0  0  0  0  0  0  0  0
   19.7775   19.8246   19.3116 H   0  0  0  0  0  0  0  0  0  0  0  0
   20.1134   18.1220   19.6810 H   0  0  0  0  0  0  0  0  0  0  0  0
   21.3476   19.3621   19.9968 H   0  0  0  0  0  0  0  0  0  0  0  0
  1  2  1  0  0  0  0
  1  3  1  0  0  0  0
  1  4  1  0  0  0  0
  1  5  1  0  0  0  0
  5  6  1  0  0  0  0
  5  7  1  0  0  0  0
  7  8  1  0  0  0  0
  7  9  1  0  0  0  0
  7 10  1  0  0  0  0
  5 11  1  0  0  0  0
 11 12  1  0  0  0  0
 11 13  1  0  0  0  0
 11 14  1  0  0  0  0
 14 15  1  0  0  0  0
 14 16  1  0  0  0  0
 14 17  1  0  0  0  0
 17 18  1  0  0  0  0
 17 19  1  0  0  0  0
 17 20  1  0  0  0  0
M  END
> <VConfSearch Rank>
285

> <Conf_Id>
63

> <Delta U+W>
0.420

> <U+W>
-35.856

> <U>
22.625

> <W>
-58.481

> <W(PB)>
-60.400

> <W(SA)>
1.919

> <Valence>
2.404

> <Coulomb>
19.464

> <VdW>
0.757

> <VdW6>
-5.074

> <VdW12>
5.830

> <Bond>
0.172

> <Angle>
1.207

> <Pdih>
1.025

> <Idih>
0.000

> <Tether>
0.000

$$$$
VeraChem MOL file


 20 19  0  0  0  0  0  0  0  0999 V2000     
   19.6709   20.7377   22.5436 N   0  3  0  0  0  0  0  0  0  0  0  0
   18.6656   20.6189   22.3948 H   0  0  0  0  0  0  0  0  0  0  0  0
   20.0879   20.9889   21.6440 H   0  0  0  0  0  0  0  0  0  0  0  0
   19.7947   21.5360   23.1720 H   0  0  0  0  0  0  0  0  0  0  0  0
   20.2911   19.4888   23.1091 C   0  0  2  0  0  0  0  0  0  0  0  0
   19.7937   19.2950   24.0642 H   0  0  0  0  0  0  0  0  0  0  0  0
   21.7884   19.7028   23.3846 C   0  0  0  0  0  0  0  0  0  0  0  0
   21.9410   20.5494   24.0651 H   0  0  0  0  0  0  0  0  0  0  0  0
   22.3382   19.9064   22.4572 H   0  0  0  0  0  0  0  0  0  0  0  0
   22.2289   18.8149   23.8549 H   0  0  0  0  0  0  0  0  0  0  0  0
   20.0823   18.2594   22.1958 C   0  0  0  0  0  0  0  0  0  0  0  0
   20.5892   18.4281   21.2363 H   0  0  0  0  0  0  0  0  0  0  0  0
   20.5716   17.3885   22.6518 H   0  0  0  0  0  0  0  0  0  0  0  0
   18.5958   17.9112   21.9294 C   0  0  0  0  0  0  0  0  0  0  0  0
   18.5522   17.0321   21.2713 H   0  0  0  0  0  0  0  0  0  0  0  0
   18.1078   18.7257   21.3771 H   0  0  0  0  0  0  0  0  0  0  0  0
   17.8033   17.6091   23.2217 C   0  0  0  0  0  0  0  0  0  0  0  0
   18.2729   16.7967   23.7916 H   0  0  0  0  0  0  0  0  0  0  0  0
   16.7782   17.2991   22.9804 H   0  0  0  0  0  0  0  0  0  0  0  0
   17.7376   18.4904   23.8719 H   0  0  0  0  0  0  0  0  0  0  0  0
  1  2  1  0  0  0  0
  1  3  1  0  0  0  0
  1  4  1  0  0  0  0
  1  5  1  0  0  0  0
  5  6  1  0  0  0  0
  5  7  1  0  0  0  0
  7  8  1  0  0  0  0
  7  9  1  0  0  0  0
  7 10  1  0  0  0  0
  5 11  1  0  0  0  0
 11 12  1  0  0  0  0
 11 13  1  0  0  0  0
 11 14  1  0  0  0  0
 14 15  1  0  0  0  0
 14 16  1  0  0  0  0
 14 17  1  0  0  0  0
 17 18  1  0  0  0  0
 17 19  1  0  0  0  0
 17 20  1  0  0  0  0
M  END
> <VConfSearch Rank>
286

> <Conf_Id>
50

> <Delta U+W>
0.466

> <U+W>
-35.811

> <U>
22.369

> <W>
-58.180

> <W(PB)>
-60.103

> <W(SA)>
1.923

> <Valence>
2.168

> <Coulomb>
19.636

> <VdW>
0.566

> <VdW6>
-5.263

> <VdW12>
5.829

> <Bond>
0.162

> <Angle>
1.066

> <Pdih>
0.939

> <Idih>
0.000

> <Tether>
0.000

$$$$
VeraChem MOL file


 20 19  0  0  0  0  0  0  0  0999 V2000     
   21.1422   17.5272   23.9320 N   0  3  0  0  0  0  0  0  0  0  0  0
   20.6572   17.3292   24.8115 H   0  0  0  0  0  0  0  0  0  0  0  0
   21.9650   18.0928   24.1555 H   0  0  0  0  0  0  0  0  0  0  0  0
   21.4785   16.6330   23.5645 H   0  0  0  0  0  0  0  0  0  0  0  0
   20.2431   18.2242   22.9470 C   0  0  2  0  0  0  0  0  0  0  0  0
   19.3986   17.5497   22.7751 H   0  0  0  0  0  0  0  0  0  0  0  0
   20.9854   18.4357   21.6142 C   0  0  0  0  0  0  0  0  0  0  0  0
   21.8698   19.0704   21.7508 H   0  0  0  0  0  0  0  0  0  0  0  0
   20.3424   18.9117   20.8660 H   0  0  0  0  0  0  0  0  0  0  0  0
   21.3181   17.4757   21.2009 H   0  0  0  0  0  0  0  0  0  0  0  0
   19.6891   19.5556   23.5116 C   0  0  0  0  0  0  0  0  0  0  0  0
   19.8161   19.5640   24.6022 H   0  0  0  0  0  0  0  0  0  0  0  0
   20.2776   20.4047   23.1391 H   0  0  0  0  0  0  0  0  0  0  0  0
   18.1838   19.7823   23.2210 C   0  0  0  0  0  0  0  0  0  0  0  0
   17.8648   20.7063   23.7234 H   0  0  0  0  0  0  0  0  0  0  0  0
   17.5961   18.9709   23.6733 H   0  0  0  0  0  0  0  0  0  0  0  0
   17.8388   19.8890   21.7191 C   0  0  0  0  0  0  0  0  0  0  0  0
   18.4416   20.6639   21.2280 H   0  0  0  0  0  0  0  0  0  0  0  0
   16.7817   20.1534   21.5864 H   0  0  0  0  0  0  0  0  0  0  0  0
   18.0055   18.9365   21.2008 H   0  0  0  0  0  0  0  0  0  0  0  0
  1  2  1  0  0  0  0
  1  3  1  0  0  0  0
  1  4  1  0  0  0  0
  1  5  1  0  0  0  0
  5  6  1  0  0  0  0
  5  7  1  0  0  0  0
  7  8  1  0  0  0  0
  7  9  1  0  0  0  0
  7 10  1  0  0  0  0
  5 11  1  0  0  0  0
 11 12  1  0  0  0  0
 11 13  1  0  0  0  0
 11 14  1  0  0  0  0
 14 15  1  0  0  0  0
 14 16  1  0  0  0  0
 14 17  1  0  0  0  0
 17 18  1  0  0  0  0
 17 19  1  0  0  0  0
 17 20  1  0  0  0  0
M  END
> <VConfSearch Rank>
287

> <Conf_Id>
3

> <Delta U+W>
3.093

> <U+W>
-33.184

> <U>
25.256

> <W>
-58.439

> <W(PB)>
-60.337

> <W(SA)>
1.898

> <Valence>
4.963

> <Coulomb>
19.511

> <VdW>
0.782

> <VdW6>
-5.429

> <VdW12>
6.211

> <Bond>
0.174

> <Angle>
1.377

> <Pdih>
3.412

> <Idih>
0.000

> <Tether>
0.000

$$$$
VeraChem MOL file


 20 19  0  0  0  0  0  0  0  0999 V2000     
   19.8729   19.0065   25.0349 N   0  3  0  0  0  0  0  0  0  0  0  0
   19.2228   19.5196   25.6363 H   0  0  0  0  0  0  0  0  0  0  0  0
   20.8021   19.4106   25.1800 H   0  0  0  0  0  0  0  0  0  0  0  0
   19.9024   18.0414   25.3730 H   0  0  0  0  0  0  0  0  0  0  0  0
   19.4575   19.0737   23.5908 C   0  0  2  0  0  0  0  0  0  0  0  0
   19.4510   20.1345   23.3228 H   0  0  0  0  0  0  0  0  0  0  0  0
   18.0316   18.5197   23.4175 C   0  0  0  0  0  0  0  0  0  0  0  0
   17.6603   18.6885   22.4001 H   0  0  0  0  0  0  0  0  0  0  0  0
   17.3365   19.0194   24.1034 H   0  0  0  0  0  0  0  0  0  0  0  0
   17.9964   17.4426   23.6223 H   0  0  0  0  0  0  0  0  0  0  0  0
   20.4772   18.3486   22.6804 C   0  0  0  0  0  0  0  0  0  0  0  0
   21.4822   18.7289   22.9060 H   0  0  0  0  0  0  0  0  0  0  0  0
   20.4928   17.2798   22.9316 H   0  0  0  0  0  0  0  0  0  0  0  0
   20.2261   18.5074   21.1590 C   0  0  0  0  0  0  0  0  0  0  0  0
   19.2854   18.0172   20.8742 H   0  0  0  0  0  0  0  0  0  0  0  0
   21.0184   17.9752   20.6142 H   0  0  0  0  0  0  0  0  0  0  0  0
   20.2066   19.9829   20.6989 C   0  0  0  0  0  0  0  0  0  0  0  0
   21.1372   20.4952   20.9755 H   0  0  0  0  0  0  0  0  0  0  0  0
   19.3668   20.5326   21.1425 H   0  0  0  0  0  0  0  0  0  0  0  0
   20.1021   20.0442   19.6078 H   0  0  0  0  0  0  0  0  0  0  0  0
  1  2  1  0  0  0  0
  1  3  1  0  0  0  0
  1  4  1  0  0  0  0
  1  5  1  0  0  0  0
  5  6  1  0  0  0  0
  5  7  1  0  0  0  0
  7  8  1  0  0  0  0
  7  9  1  0  0  0  0
  7 10  1  0  0  0  0
  5 11  1  0  0  0  0
 11 12  1  0  0  0  0
 11 13  1  0  0  0  0
 11 14  1  0  0  0  0
 14 15  1  0  0  0  0
 14 16  1  0  0  0  0
 14 17  1  0  0  0  0
 17 18  1  0  0  0  0
 17 19  1  0  0  0  0
 17 20  1  0  0  0  0
M  END
> <VConfSearch Rank>
288

> <Conf_Id>
64

> <Delta U+W>
0.544

> <U+W>
-35.732

> <U>
22.800

> <W>
-58.532

> <W(PB)>
-60.437

> <W(SA)>
1.905

> <Valence>
2.662

> <Coulomb>
19.485

> <VdW>
0.653

> <VdW6>
-5.460

> <VdW12>
6.113

> <Bond>
0.174

> <Angle>
1.378

> <Pdih>
1.109

> <Idih>
0.000

> <Tether>
0.000

$$$$
VeraChem MOL file


 20 19  0  0  0  0  0  0  0  0999 V2000     
   18.1593   20.0407   21.9479 N   0  3  0  0  0  0  0  0  0  0  0  0
   18.6215   20.7217   22.5544 H   0  0  0  0  0  0  0  0  0  0  0  0
   17.1587   20.0711   22.1612 H   0  0  0  0  0  0  0  0  0  0  0  0
   18.2736   20.3615   20.9826 H   0  0  0  0  0  0  0  0  0  0  0  0
   18.7218   18.6585   22.1423 C   0  0  2  0  0  0  0  0  0  0  0  0
   18.1594   18.0086   21.4645 H   0  0  0  0  0  0  0  0  0  0  0  0
   18.4667   18.1593   23.5739 C   0  0  0  0  0  0  0  0  0  0  0  0
   18.8903   18.8429   24.3189 H   0  0  0  0  0  0  0  0  0  0  0  0
   18.9027   17.1640   23.7245 H   0  0  0  0  0  0  0  0  0  0  0  0
   17.3896   18.0830   23.7664 H   0  0  0  0  0  0  0  0  0  0  0  0
   20.2113   18.5643   21.7259 C   0  0  0  0  0  0  0  0  0  0  0  0
   20.5218   17.5112   21.7196 H   0  0  0  0  0  0  0  0  0  0  0  0
   20.2806   18.8911   20.6800 H   0  0  0  0  0  0  0  0  0  0  0  0
   21.2137   19.4040   22.5656 C   0  0  0  0  0  0  0  0  0  0  0  0
   20.7367   20.3157   22.9486 H   0  0  0  0  0  0  0  0  0  0  0  0
   22.0205   19.7451   21.9016 H   0  0  0  0  0  0  0  0  0  0  0  0
   21.8612   18.6137   23.7270 C   0  0  0  0  0  0  0  0  0  0  0  0
   21.1211   18.2756   24.4605 H   0  0  0  0  0  0  0  0  0  0  0  0
   22.5896   19.2404   24.2577 H   0  0  0  0  0  0  0  0  0  0  0  0
   22.3944   17.7305   23.3521 H   0  0  0  0  0  0  0  0  0  0  0  0
  1  2  1  0  0  0  0
  1  3  1  0  0  0  0
  1  4  1  0  0  0  0
  1  5  1  0  0  0  0
  5  6  1  0  0  0  0
  5  7  1  0  0  0  0
  7  8  1  0  0  0  0
  7  9  1  0  0  0  0
  7 10  1  0  0  0  0
  5 11  1  0  0  0  0
 11 12  1  0  0  0  0
 11 13  1  0  0  0  0
 11 14  1  0  0  0  0
 14 15  1  0  0  0  0
 14 16  1  0  0  0  0
 14 17  1  0  0  0  0
 17 18  1  0  0  0  0
 17 19  1  0  0  0  0
 17 20  1  0  0  0  0
M  END
> <VConfSearch Rank>
289

> <Conf_Id>
35

> <Delta U+W>
3.004

> <U+W>
-33.272

> <U>
25.367

> <W>
-58.639

> <W(PB)>
-60.512

> <W(SA)>
1.873

> <Valence>
4.943

> <Coulomb>
19.661

> <VdW>
0.764

> <VdW6>
-5.871

> <VdW12>
6.636

> <Bond>
0.230

> <Angle>
1.857

> <Pdih>
2.855

> <Idih>
0.000

> <Tether>
0.000

$$$$
VeraChem MOL file


 20 19  0  0  0  0  0  0  0  0999 V2000     
   18.7226   18.0902   21.5874 N   0  3  0  0  0  0  0  0  0  0  0  0
   18.4638   17.1224   21.3773 H   0  0  0  0  0  0  0  0  0  0  0  0
   18.4328   18.6629   20.7901 H   0  0  0  0  0  0  0  0  0  0  0  0
   18.1730   18.3897   22.3950 H   0  0  0  0  0  0  0  0  0  0  0  0
   20.1972   18.2220   21.8531 C   0  0  2  0  0  0  0  0  0  0  0  0
   20.6874   17.9042   20.9276 H   0  0  0  0  0  0  0  0  0  0  0  0
   20.6550   17.2632   22.9665 C   0  0  0  0  0  0  0  0  0  0  0  0
   20.1331   17.4601   23.9105 H   0  0  0  0  0  0  0  0  0  0  0  0
   21.7335   17.3587   23.1427 H   0  0  0  0  0  0  0  0  0  0  0  0
   20.4552   16.2225   22.6836 H   0  0  0  0  0  0  0  0  0  0  0  0
   20.6387   19.6849   22.1146 C   0  0  0  0  0  0  0  0  0  0  0  0
   21.7279   19.7316   21.9841 H   0  0  0  0  0  0  0  0  0  0  0  0
   20.2238   20.3275   21.3271 H   0  0  0  0  0  0  0  0  0  0  0  0
   20.3006   20.2942   23.5042 C   0  0  0  0  0  0  0  0  0  0  0  0
   20.7192   21.3097   23.5402 H   0  0  0  0  0  0  0  0  0  0  0  0
   20.8131   19.7363   24.2997 H   0  0  0  0  0  0  0  0  0  0  0  0
   18.7902   20.3811   23.8206 C   0  0  0  0  0  0  0  0  0  0  0  0
   18.2384   20.8592   23.0008 H   0  0  0  0  0  0  0  0  0  0  0  0
   18.6257   20.9802   24.7257 H   0  0  0  0  0  0  0  0  0  0  0  0
   18.3594   19.3910   24.0083 H   0  0  0  0  0  0  0  0  0  0  0  0
  1  2  1  0  0  0  0
  1  3  1  0  0  0  0
  1  4  1  0  0  0  0
  1  5  1  0  0  0  0
  5  6  1  0  0  0  0
  5  7  1  0  0  0  0
  7  8  1  0  0  0  0
  7  9  1  0  0  0  0
  7 10  1  0  0  0  0
  5 11  1  0  0  0  0
 11 12  1  0  0  0  0
 11 13  1  0  0  0  0
 11 14  1  0  0  0  0
 14 15  1  0  0  0  0
 14 16  1  0  0  0  0
 14 17  1  0  0  0  0
 17 18  1  0  0  0  0
 17 19  1  0  0  0  0
 17 20  1  0  0  0  0
M  END
> <VConfSearch Rank>
290

> <Conf_Id>
55

> <Delta U+W>
2.767

> <U+W>
-33.509

> <U>
24.552

> <W>
-58.061

> <W(PB)>
-59.930

> <W(SA)>
1.869

> <Valence>
3.726

> <Coulomb>
20.219

> <VdW>
0.606

> <VdW6>
-6.395

> <VdW12>
7.001

> <Bond>
0.241

> <Angle>
2.098

> <Pdih>
1.387

> <Idih>
0.000

> <Tether>
0.000

$$$$
VeraChem MOL file


 20 19  0  0  0  0  0  0  0  0999 V2000     
   20.8187   18.5412   24.3195 N   0  3  0  0  0  0  0  0  0  0  0  0
   20.9763   17.5499   24.1219 H   0  0  0  0  0  0  0  0  0  0  0  0
   20.9068   18.6685   25.3313 H   0  0  0  0  0  0  0  0  0  0  0  0
   21.5782   19.0671   23.8800 H   0  0  0  0  0  0  0  0  0  0  0  0
   19.4726   18.9953   23.8225 C   0  0  2  0  0  0  0  0  0  0  0  0
   19.3883   20.0583   24.0687 H   0  0  0  0  0  0  0  0  0  0  0  0
   18.3463   18.2423   24.5495 C   0  0  0  0  0  0  0  0  0  0  0  0
   18.4251   18.3792   25.6350 H   0  0  0  0  0  0  0  0  0  0  0  0
   18.3857   17.1666   24.3369 H   0  0  0  0  0  0  0  0  0  0  0  0
   17.3629   18.6160   24.2382 H   0  0  0  0  0  0  0  0  0  0  0  0
   19.3216   18.8406   22.2930 C   0  0  0  0  0  0  0  0  0  0  0  0
   19.4261   17.7831   22.0161 H   0  0  0  0  0  0  0  0  0  0  0  0
   18.3049   19.1402   22.0054 H   0  0  0  0  0  0  0  0  0  0  0  0
   20.3373   19.6932   21.4948 C   0  0  0  0  0  0  0  0  0  0  0  0
   21.3632   19.3741   21.7228 H   0  0  0  0  0  0  0  0  0  0  0  0
   20.2564   20.7464   21.7988 H   0  0  0  0  0  0  0  0  0  0  0  0
   20.1036   19.5814   19.9729 C   0  0  0  0  0  0  0  0  0  0  0  0
   20.2078   18.5429   19.6325 H   0  0  0  0  0  0  0  0  0  0  0  0
   20.8327   20.1905   19.4229 H   0  0  0  0  0  0  0  0  0  0  0  0
   19.0994   19.9313   19.7000 H   0  0  0  0  0  0  0  0  0  0  0  0
  1  2  1  0  0  0  0
  1  3  1  0  0  0  0
  1  4  1  0  0  0  0
  1  5  1  0  0  0  0
  5  6  1  0  0  0  0
  5  7  1  0  0  0  0
  7  8  1  0  0  0  0
  7  9  1  0  0  0  0
  7 10  1  0  0  0  0
  5 11  1  0  0  0  0
 11 12  1  0  0  0  0
 11 13  1  0  0  0  0
 11 14  1  0  0  0  0
 14 15  1  0  0  0  0
 14 16  1  0  0  0  0
 14 17  1  0  0  0  0
 17 18  1  0  0  0  0
 17 19  1  0  0  0  0
 17 20  1  0  0  0  0
M  END
> <VConfSearch Rank>
291

> <Conf_Id>
74

> <Delta U+W>
0.000

> <U+W>
-36.276

> <U>
22.080

> <W>
-58.356

> <W(PB)>
-60.289

> <W(SA)>
1.932

> <Valence>
1.885

> <Coulomb>
19.559

> <VdW>
0.637

> <VdW6>
-4.482

> <VdW12>
5.119

> <Bond>
0.136

> <Angle>
0.867

> <Pdih>
0.882

> <Idih>
0.000

> <Tether>
0.000

$$$$
VeraChem MOL file


 20 19  0  0  0  0  0  0  0  0999 V2000     
   21.3463   18.5794   24.4560 N   0  3  0  0  0  0  0  0  0  0  0  0
   22.2282   18.7251   23.9571 H   0  0  0  0  0  0  0  0  0  0  0  0
   21.2194   17.5702   24.5655 H   0  0  0  0  0  0  0  0  0  0  0  0
   21.4605   18.9750   25.3931 H   0  0  0  0  0  0  0  0  0  0  0  0
   20.1874   19.2068   23.7309 C   0  0  2  0  0  0  0  0  0  0  0  0
   20.4083   20.2766   23.6642 H   0  0  0  0  0  0  0  0  0  0  0  0
   18.8905   19.0279   24.5415 C   0  0  0  0  0  0  0  0  0  0  0  0
   19.0256   19.3843   25.5701 H   0  0  0  0  0  0  0  0  0  0  0  0
   18.5908   17.9734   24.5838 H   0  0  0  0  0  0  0  0  0  0  0  0
   18.0651   19.6029   24.1063 H   0  0  0  0  0  0  0  0  0  0  0  0
   20.0585   18.6492   22.2942 C   0  0  0  0  0  0  0  0  0  0  0  0
   21.0419   18.7078   21.8094 H   0  0  0  0  0  0  0  0  0  0  0  0
   19.7946   17.5840   22.3333 H   0  0  0  0  0  0  0  0  0  0  0  0
   19.0327   19.4090   21.4181 C   0  0  0  0  0  0  0  0  0  0  0  0
   19.2596   20.4844   21.4300 H   0  0  0  0  0  0  0  0  0  0  0  0
   18.0207   19.2922   21.8281 H   0  0  0  0  0  0  0  0  0  0  0  0
   19.0413   18.9005   19.9604 C   0  0  0  0  0  0  0  0  0  0  0  0
   20.0274   19.0397   19.4983 H   0  0  0  0  0  0  0  0  0  0  0  0
   18.3064   19.4468   19.3549 H   0  0  0  0  0  0  0  0  0  0  0  0
   18.7893   17.8330   19.9130 H   0  0  0  0  0  0  0  0  0  0  0  0
  1  2  1  0  0  0  0
  1  3  1  0  0  0  0
  1  4  1  0  0  0  0
  1  5  1  0  0  0  0
  5  6  1  0  0  0  0
  5  7  1  0  0  0  0
  7  8  1  0  0  0  0
  7  9  1  0  0  0  0
  7 10  1  0  0  0  0
  5 11  1  0  0  0  0
 11 12  1  0  0  0  0
 11 13  1  0  0  0  0
 11 14  1  0  0  0  0
 14 15  1  0  0  0  0
 14 16  1  0  0  0  0
 14 17  1  0  0  0  0
 17 18  1  0  0  0  0
 17 19  1  0  0  0  0
 17 20  1  0  0  0  0
M  END
> <VConfSearch Rank>
292

> <Conf_Id>
80

> <Delta U+W>
0.460

> <U+W>
-35.817

> <U>
22.495

> <W>
-58.311

> <W(PB)>
-60.259

> <W(SA)>
1.948

> <Valence>
2.419

> <Coulomb>
19.304

> <VdW>
0.772

> <VdW6>
-4.635

> <VdW12>
5.407

> <Bond>
0.149

> <Angle>
1.142

> <Pdih>
1.129

> <Idih>
0.000

> <Tether>
0.000

$$$$
VeraChem MOL file


 20 19  0  0  0  0  0  0  0  0999 V2000     
   19.5343   20.0078   24.8395 N   0  3  0  0  0  0  0  0  0  0  0  0
   18.5504   20.1186   25.0991 H   0  0  0  0  0  0  0  0  0  0  0  0
   19.8635   20.9123   24.4928 H   0  0  0  0  0  0  0  0  0  0  0  0
   20.0525   19.8046   25.6985 H   0  0  0  0  0  0  0  0  0  0  0  0
   19.7202   18.9227   23.8145 C   0  0  2  0  0  0  0  0  0  0  0  0
   19.3490   18.0011   24.2735 H   0  0  0  0  0  0  0  0  0  0  0  0
   21.2149   18.7338   23.5043 C   0  0  0  0  0  0  0  0  0  0  0  0
   21.7922   18.6253   24.4306 H   0  0  0  0  0  0  0  0  0  0  0  0
   21.6180   19.5903   22.9498 H   0  0  0  0  0  0  0  0  0  0  0  0
   21.3816   17.8257   22.9139 H   0  0  0  0  0  0  0  0  0  0  0  0
   18.8738   19.2033   22.5486 C   0  0  0  0  0  0  0  0  0  0  0  0
   17.8367   19.3593   22.8739 H   0  0  0  0  0  0  0  0  0  0  0  0
   19.1864   20.1483   22.0850 H   0  0  0  0  0  0  0  0  0  0  0  0
   18.8719   18.0637   21.4955 C   0  0  0  0  0  0  0  0  0  0  0  0
   17.8696   18.0015   21.0487 H   0  0  0  0  0  0  0  0  0  0  0  0
   19.0449   17.0934   21.9820 H   0  0  0  0  0  0  0  0  0  0  0  0
   19.8897   18.2820   20.3513 C   0  0  0  0  0  0  0  0  0  0  0  0
   19.6777   19.2136   19.8106 H   0  0  0  0  0  0  0  0  0  0  0  0
   19.8361   17.4585   19.6274 H   0  0  0  0  0  0  0  0  0  0  0  0
   20.9205   18.3334   20.7191 H   0  0  0  0  0  0  0  0  0  0  0  0
  1  2  1  0  0  0  0
  1  3  1  0  0  0  0
  1  4  1  0  0  0  0
  1  5  1  0  0  0  0
  5  6  1  0  0  0  0
  5  7  1  0  0  0  0
  7  8  1  0  0  0  0
  7  9  1  0  0  0  0
  7 10  1  0  0  0  0
  5 11  1  0  0  0  0
 11 12  1  0  0  0  0
 11 13  1  0  0  0  0
 11 14  1  0  0  0  0
 14 15  1  0  0  0  0
 14 16  1  0  0  0  0
 14 17  1  0  0  0  0
 17 18  1  0  0  0  0
 17 19  1  0  0  0  0
 17 20  1  0  0  0  0
M  END
> <VConfSearch Rank>
293

> <Conf_Id>
52

> <Delta U+W>
2.995

> <U+W>
-33.282

> <U>
25.224

> <W>
-58.506

> <W(PB)>
-60.411

> <W(SA)>
1.905

> <Valence>
4.945

> <Coulomb>
19.467

> <VdW>
0.813

> <VdW6>
-5.458

> <VdW12>
6.270

> <Bond>
0.200

> <Angle>
1.675

> <Pdih>
3.070

> <Idih>
0.000

> <Tether>
0.000

$$$$
VeraChem MOL file


 20 19  0  0  0  0  0  0  0  0999 V2000     
   19.0214   19.2268   21.3094 N   0  3  0  0  0  0  0  0  0  0  0  0
   19.2950   18.4122   20.7545 H   0  0  0  0  0  0  0  0  0  0  0  0
   18.7318   19.9592   20.6556 H   0  0  0  0  0  0  0  0  0  0  0  0
   18.2013   18.9612   21.8588 H   0  0  0  0  0  0  0  0  0  0  0  0
   20.1457   19.6898   22.1952 C   0  0  2  0  0  0  0  0  0  0  0  0
   19.7966   20.5863   22.7170 H   0  0  0  0  0  0  0  0  0  0  0  0
   21.3614   20.0764   21.3359 C   0  0  0  0  0  0  0  0  0  0  0  0
   21.7624   19.2064   20.8010 H   0  0  0  0  0  0  0  0  0  0  0  0
   22.1628   20.4947   21.9575 H   0  0  0  0  0  0  0  0  0  0  0  0
   21.0873   20.8371   20.5945 H   0  0  0  0  0  0  0  0  0  0  0  0
   20.5473   18.6362   23.2548 C   0  0  0  0  0  0  0  0  0  0  0  0
   20.6568   17.6517   22.7812 H   0  0  0  0  0  0  0  0  0  0  0  0
   21.5413   18.8933   23.6448 H   0  0  0  0  0  0  0  0  0  0  0  0
   19.5900   18.5401   24.4717 C   0  0  0  0  0  0  0  0  0  0  0  0
   19.5229   19.5184   24.9682 H   0  0  0  0  0  0  0  0  0  0  0  0
   20.0392   17.8581   25.2074 H   0  0  0  0  0  0  0  0  0  0  0  0
   18.1685   18.0310   24.1411 C   0  0  0  0  0  0  0  0  0  0  0  0
   17.6241   17.8002   25.0662 H   0  0  0  0  0  0  0  0  0  0  0  0
   18.2025   17.1138   23.5386 H   0  0  0  0  0  0  0  0  0  0  0  0
   17.5822   18.7873   23.6065 H   0  0  0  0  0  0  0  0  0  0  0  0
  1  2  1  0  0  0  0
  1  3  1  0  0  0  0
  1  4  1  0  0  0  0
  1  5  1  0  0  0  0
  5  6  1  0  0  0  0
  5  7  1  0  0  0  0
  7  8  1  0  0  0  0
  7  9  1  0  0  0  0
  7 10  1  0  0  0  0
  5 11  1  0  0  0  0
 11 12  1  0  0  0  0
 11 13  1  0  0  0  0
 11 14  1  0  0  0  0
 14 15  1  0  0  0  0
 14 16  1  0  0  0  0
 14 17  1  0  0  0  0
 17 18  1  0  0  0  0
 17 19  1  0  0  0  0
 17 20  1  0  0  0  0
M  END
> <VConfSearch Rank>
294

> <Conf_Id>
54

> <Delta U+W>
2.752

> <U+W>
-33.525

> <U>
24.337

> <W>
-57.862

> <W(PB)>
-59.764

> <W(SA)>
1.901

> <Valence>
3.593

> <Coulomb>
20.067

> <VdW>
0.677

> <VdW6>
-5.466

> <VdW12>
6.144

> <Bond>
0.191

> <Angle>
1.557

> <Pdih>
1.845

> <Idih>
0.000

> <Tether>
0.000

$$$$
VeraChem MOL file


 20 19  0  0  0  0  0  0  0  0999 V2000     
   20.7096   17.2338   22.0666 N   0  3  0  0  0  0  0  0  0  0  0  0
   20.5737   16.2452   21.8389 H   0  0  0  0  0  0  0  0  0  0  0  0
   21.6653   17.3359   22.4184 H   0  0  0  0  0  0  0  0  0  0  0  0
   20.6461   17.7600   21.1921 H   0  0  0  0  0  0  0  0  0  0  0  0
   19.6963   17.7119   23.0709 C   0  0  2  0  0  0  0  0  0  0  0  0
   19.8292   17.0838   23.9574 H   0  0  0  0  0  0  0  0  0  0  0  0
   18.2622   17.4916   22.5574 C   0  0  0  0  0  0  0  0  0  0  0  0
   17.5267   17.8430   23.2916 H   0  0  0  0  0  0  0  0  0  0  0  0
   18.0761   16.4243   22.3859 H   0  0  0  0  0  0  0  0  0  0  0  0
   18.0837   18.0182   21.6125 H   0  0  0  0  0  0  0  0  0  0  0  0
   19.9395   19.1767   23.5072 C   0  0  0  0  0  0  0  0  0  0  0  0
   19.2260   19.4312   24.3021 H   0  0  0  0  0  0  0  0  0  0  0  0
   20.9354   19.2417   23.9647 H   0  0  0  0  0  0  0  0  0  0  0  0
   19.8333   20.2248   22.3694 C   0  0  0  0  0  0  0  0  0  0  0  0
   18.8257   20.2110   21.9327 H   0  0  0  0  0  0  0  0  0  0  0  0
   20.5348   19.9793   21.5608 H   0  0  0  0  0  0  0  0  0  0  0  0
   20.1354   21.6494   22.8818 C   0  0  0  0  0  0  0  0  0  0  0  0
   20.0542   22.3801   22.0665 H   0  0  0  0  0  0  0  0  0  0  0  0
   21.1515   21.7150   23.2920 H   0  0  0  0  0  0  0  0  0  0  0  0
   19.4293   21.9442   23.6690 H   0  0  0  0  0  0  0  0  0  0  0  0
  1  2  1  0  0  0  0
  1  3  1  0  0  0  0
  1  4  1  0  0  0  0
  1  5  1  0  0  0  0
  5  6  1  0  0  0  0
  5  7  1  0  0  0  0
  7  8  1  0  0  0  0
  7  9  1  0  0  0  0
  7 10  1  0  0  0  0
  5 11  1  0  0  0  0
 11 12  1  0  0  0  0
 11 13  1  0  0  0  0
 11 14  1  0  0  0  0
 14 15  1  0  0  0  0
 14 16  1  0  0  0  0
 14 17  1  0  0  0  0
 17 18  1  0  0  0  0
 17 19  1  0  0  0  0
 17 20  1  0  0  0  0
M  END
> <VConfSearch Rank>
295

> <Conf_Id>
63

> <Delta U+W>
0.420

> <U+W>
-35.856

> <U>
22.625

> <W>
-58.481

> <W(PB)>
-60.400

> <W(SA)>
1.919

> <Valence>
2.404

> <Coulomb>
19.464

> <VdW>
0.757

> <VdW6>
-5.074

> <VdW12>
5.830

> <Bond>
0.172

> <Angle>
1.207

> <Pdih>
1.025

> <Idih>
0.000

> <Tether>
0.000

$$$$
VeraChem MOL file


 20 19  0  0  0  0  0  0  0  0999 V2000     
   20.9884   17.8291   23.1047 N   0  3  0  0  0  0  0  0  0  0  0  0
   20.4082   17.5506   23.9002 H   0  0  0  0  0  0  0  0  0  0  0  0
   21.8063   18.3183   23.4763 H   0  0  0  0  0  0  0  0  0  0  0  0
   21.3224   16.9724   22.6551 H   0  0  0  0  0  0  0  0  0  0  0  0
   20.2190   18.6934   22.1428 C   0  0  2  0  0  0  0  0  0  0  0  0
   19.3702   18.0975   21.7940 H   0  0  0  0  0  0  0  0  0  0  0  0
   21.0842   19.0524   20.9238 C   0  0  0  0  0  0  0  0  0  0  0  0
   21.4439   18.1456   20.4222 H   0  0  0  0  0  0  0  0  0  0  0  0
   21.9566   19.6494   21.2174 H   0  0  0  0  0  0  0  0  0  0  0  0
   20.5058   19.6299   20.1919 H   0  0  0  0  0  0  0  0  0  0  0  0
   19.6699   19.9753   22.8093 C   0  0  0  0  0  0  0  0  0  0  0  0
   20.5087   20.5956   23.1520 H   0  0  0  0  0  0  0  0  0  0  0  0
   19.1372   20.5698   22.0552 H   0  0  0  0  0  0  0  0  0  0  0  0
   18.7141   19.7123   24.0006 C   0  0  0  0  0  0  0  0  0  0  0  0
   18.3831   20.6784   24.4069 H   0  0  0  0  0  0  0  0  0  0  0  0
   19.2524   19.2107   24.8162 H   0  0  0  0  0  0  0  0  0  0  0  0
   17.4708   18.8820   23.6080 C   0  0  0  0  0  0  0  0  0  0  0  0
   16.9155   19.3643   22.7930 H   0  0  0  0  0  0  0  0  0  0  0  0
   16.7897   18.7817   24.4631 H   0  0  0  0  0  0  0  0  0  0  0  0
   17.7452   17.8703   23.2839 H   0  0  0  0  0  0  0  0  0  0  0  0
  1  2  1  0  0  0  0
  1  3  1  0  0  0  0
  1  4  1  0  0  0  0
  1  5  1  0  0  0  0
  5  6  1  0  0  0  0
  5  7  1  0  0  0  0
  7  8  1  0  0  0  0
  7  9  1  0  0  0  0
  7 10  1  0  0  0  0
  5 11  1  0  0  0  0
 11 12  1  0  0  0  0
 11 13  1  0  0  0  0
 11 14  1  0  0  0  0
 14 15  1  0  0  0  0
 14 16  1  0  0  0  0
 14 17  1  0  0  0  0
 17 18  1  0  0  0  0
 17 19  1  0  0  0  0
 17 20  1  0  0  0  0
M  END
> <VConfSearch Rank>
296

> <Conf_Id>
50

> <Delta U+W>
0.466

> <U+W>
-35.811

> <U>
22.369

> <W>
-58.180

> <W(PB)>
-60.103

> <W(SA)>
1.923

> <Valence>
2.168

> <Coulomb>
19.636

> <VdW>
0.566

> <VdW6>
-5.263

> <VdW12>
5.829

> <Bond>
0.162

> <Angle>
1.066

> <Pdih>
0.939

> <Idih>
0.000

> <Tether>
0.000

$$$$
VeraChem MOL file


 20 19  0  0  0  0  0  0  0  0999 V2000     
   21.5774   18.4176   21.5110 N   0  3  0  0  0  0  0  0  0  0  0  0
   21.9234   19.3314   21.2055 H   0  0  0  0  0  0  0  0  0  0  0  0
   21.2585   17.9158   20.6783 H   0  0  0  0  0  0  0  0  0  0  0  0
   22.3772   17.9026   21.8889 H   0  0  0  0  0  0  0  0  0  0  0  0
   20.4782   18.5527   22.5298 C   0  0  2  0  0  0  0  0  0  0  0  0
   20.9102   19.1000   23.3734 H   0  0  0  0  0  0  0  0  0  0  0  0
   20.0385   17.1598   23.0182 C   0  0  0  0  0  0  0  0  0  0  0  0
   19.6413   16.5582   22.1911 H   0  0  0  0  0  0  0  0  0  0  0  0
   19.2612   17.2292   23.7868 H   0  0  0  0  0  0  0  0  0  0  0  0
   20.8866   16.6179   23.4542 H   0  0  0  0  0  0  0  0  0  0  0  0
   19.2826   19.3725   21.9852 C   0  0  0  0  0  0  0  0  0  0  0  0
   19.6060   19.9342   21.0989 H   0  0  0  0  0  0  0  0  0  0  0  0
   18.4856   18.7027   21.6357 H   0  0  0  0  0  0  0  0  0  0  0  0
   18.7115   20.3975   22.9976 C   0  0  0  0  0  0  0  0  0  0  0  0
   17.9248   20.9816   22.4995 H   0  0  0  0  0  0  0  0  0  0  0  0
   19.4956   21.1162   23.2746 H   0  0  0  0  0  0  0  0  0  0  0  0
   18.1236   19.7622   24.2770 C   0  0  0  0  0  0  0  0  0  0  0  0
   17.3655   19.0069   24.0322 H   0  0  0  0  0  0  0  0  0  0  0  0
   17.6436   20.5283   24.8997 H   0  0  0  0  0  0  0  0  0  0  0  0
   18.9046   19.2886   24.8848 H   0  0  0  0  0  0  0  0  0  0  0  0
  1  2  1  0  0  0  0
  1  3  1  0  0  0  0
  1  4  1  0  0  0  0
  1  5  1  0  0  0  0
  5  6  1  0  0  0  0
  5  7  1  0  0  0  0
  7  8  1  0  0  0  0
  7  9  1  0  0  0  0
  7 10  1  0  0  0  0
  5 11  1  0  0  0  0
 11 12  1  0  0  0  0
 11 13  1  0  0  0  0
 11 14  1  0  0  0  0
 14 15  1  0  0  0  0
 14 16  1  0  0  0  0
 14 17  1  0  0  0  0
 17 18  1  0  0  0  0
 17 19  1  0  0  0  0
 17 20  1  0  0  0  0
M  END
> <VConfSearch Rank>
297

> <Conf_Id>
3

> <Delta U+W>
3.093

> <U+W>
-33.184

> <U>
25.256

> <W>
-58.439

> <W(PB)>
-60.337

> <W(SA)>
1.898

> <Valence>
4.963

> <Coulomb>
19.511

> <VdW>
0.782

> <VdW6>
-5.429

> <VdW12>
6.211

> <Bond>
0.174

> <Angle>
1.377

> <Pdih>
3.412

> <Idih>
0.000

> <Tether>
0.000

$$$$
VeraChem MOL file


 20 19  0  0  0  0  0  0  0  0999 V2000     
   19.1839   21.1510   22.5106 N   0  3  0  0  0  0  0  0  0  0  0  0
   19.3873   21.8536   23.2266 H   0  0  0  0  0  0  0  0  0  0  0  0
   18.1707   21.1527   22.3645 H   0  0  0  0  0  0  0  0  0  0  0  0
   19.6193   21.4685   21.6409 H   0  0  0  0  0  0  0  0  0  0  0  0
   19.6844   19.7914   22.9149 C   0  0  2  0  0  0  0  0  0  0  0  0
   19.1707   19.5406   23.8478 H   0  0  0  0  0  0  0  0  0  0  0  0
   21.1982   19.8384   23.1909 C   0  0  0  0  0  0  0  0  0  0  0  0
   21.5538   18.8943   23.6197 H   0  0  0  0  0  0  0  0  0  0  0  0
   21.4357   20.6313   23.9106 H   0  0  0  0  0  0  0  0  0  0  0  0
   21.7637   20.0331   22.2712 H   0  0  0  0  0  0  0  0  0  0  0  0
   19.3195   18.7229   21.8568 C   0  0  0  0  0  0  0  0  0  0  0  0
   18.2446   18.7918   21.6441 H   0  0  0  0  0  0  0  0  0  0  0  0
   19.8318   18.9555   20.9138 H   0  0  0  0  0  0  0  0  0  0  0  0
   19.6436   17.2621   22.2620 C   0  0  0  0  0  0  0  0  0  0  0  0
   20.7292   17.1233   22.3534 H   0  0  0  0  0  0  0  0  0  0  0  0
   19.3229   16.5928   21.4514 H   0  0  0  0  0  0  0  0  0  0  0  0
   18.9491   16.8288   23.5731 C   0  0  0  0  0  0  0  0  0  0  0  0
   17.8614   16.9614   23.5065 H   0  0  0  0  0  0  0  0  0  0  0  0
   19.3135   17.4059   24.4323 H   0  0  0  0  0  0  0  0  0  0  0  0
   19.1451   15.7687   23.7800 H   0  0  0  0  0  0  0  0  0  0  0  0
  1  2  1  0  0  0  0
  1  3  1  0  0  0  0
  1  4  1  0  0  0  0
  1  5  1  0  0  0  0
  5  6  1  0  0  0  0
  5  7  1  0  0  0  0
  7  8  1  0  0  0  0
  7  9  1  0  0  0  0
  7 10  1  0  0  0  0
  5 11  1  0  0  0  0
 11 12  1  0  0  0  0
 11 13  1  0  0  0  0
 11 14  1  0  0  0  0
 14 15  1  0  0  0  0
 14 16  1  0  0  0  0
 14 17  1  0  0  0  0
 17 18  1  0  0  0  0
 17 19  1  0  0  0  0
 17 20  1  0  0  0  0
M  END
> <VConfSearch Rank>
298

> <Conf_Id>
64

> <Delta U+W>
0.544

> <U+W>
-35.732

> <U>
22.800

> <W>
-58.532

> <W(PB)>
-60.437

> <W(SA)>
1.905

> <Valence>
2.662

> <Coulomb>
19.485

> <VdW>
0.653

> <VdW6>
-5.460

> <VdW12>
6.113

> <Bond>
0.174

> <Angle>
1.378

> <Pdih>
1.109

> <Idih>
0.000

> <Tether>
0.000

$$$$
VeraChem MOL file


 20 19  0  0  0  0  0  0  0  0999 V2000     
   19.3124   20.3923   24.1380 N   0  3  0  0  0  0  0  0  0  0  0  0
   19.6400   19.6220   24.7251 H   0  0  0  0  0  0  0  0  0  0  0  0
   18.4370   20.7345   24.5431 H   0  0  0  0  0  0  0  0  0  0  0  0
   19.9977   21.1489   24.2132 H   0  0  0  0  0  0  0  0  0  0  0  0
   19.1244   19.9555   22.7102 C   0  0  2  0  0  0  0  0  0  0  0  0
   18.7655   20.8384   22.1720 H   0  0  0  0  0  0  0  0  0  0  0  0
   18.0321   18.8786   22.6057 C   0  0  0  0  0  0  0  0  0  0  0  0
   18.2626   18.0106   23.2344 H   0  0  0  0  0  0  0  0  0  0  0  0
   17.9159   18.5388   21.5692 H   0  0  0  0  0  0  0  0  0  0  0  0
   17.0659   19.2804   22.9343 H   0  0  0  0  0  0  0  0  0  0  0  0
   20.4571   19.5311   22.0432 C   0  0  0  0  0  0  0  0  0  0  0  0
   20.2971   19.3917   20.9660 H   0  0  0  0  0  0  0  0  0  0  0  0
   21.1490   20.3798   22.1240 H   0  0  0  0  0  0  0  0  0  0  0  0
   21.1544   18.2765   22.6390 C   0  0  0  0  0  0  0  0  0  0  0  0
   20.9454   18.1848   23.7129 H   0  0  0  0  0  0  0  0  0  0  0  0
   22.2418   18.4133   22.5567 H   0  0  0  0  0  0  0  0  0  0  0  0
   20.7881   16.9616   21.9112 C   0  0  0  0  0  0  0  0  0  0  0  0
   19.7200   16.7306   21.9868 H   0  0  0  0  0  0  0  0  0  0  0  0
   21.3401   16.1174   22.3442 H   0  0  0  0  0  0  0  0  0  0  0  0
   21.0481   17.0165   20.8461 H   0  0  0  0  0  0  0  0  0  0  0  0
  1  2  1  0  0  0  0
  1  3  1  0  0  0  0
  1  4  1  0  0  0  0
  1  5  1  0  0  0  0
  5  6  1  0  0  0  0
  5  7  1  0  0  0  0
  7  8  1  0  0  0  0
  7  9  1  0  0  0  0
  7 10  1  0  0  0  0
  5 11  1  0  0  0  0
 11 12  1  0  0  0  0
 11 13  1  0  0  0  0
 11 14  1  0  0  0  0
 14 15  1  0  0  0  0
 14 16  1  0  0  0  0
 14 17  1  0  0  0  0
 17 18  1  0  0  0  0
 17 19  1  0  0  0  0
 17 20  1  0  0  0  0
M  END
> <VConfSearch Rank>
299

> <Conf_Id>
35

> <Delta U+W>
3.004

> <U+W>
-33.272

> <U>
25.367

> <W>
-58.639

> <W(PB)>
-60.512

> <W(SA)>
1.873

> <Valence>
4.943

> <Coulomb>
19.661

> <VdW>
0.764

> <VdW6>
-5.871

> <VdW12>
6.636

> <Bond>
0.230

> <Angle>
1.857

> <Pdih>
2.855

> <Idih>
0.000

> <Tether>
0.000

$$$$
VeraChem MOL file


 20 19  0  0  0  0  0  0  0  0999 V2000     
   20.0914   17.2501   23.0702 N   0  3  0  0  0  0  0  0  0  0  0  0
   19.9647   16.3386   22.6223 H   0  0  0  0  0  0  0  0  0  0  0  0
   20.2115   17.0829   24.0728 H   0  0  0  0  0  0  0  0  0  0  0  0
   20.9645   17.6490   22.7199 H   0  0  0  0  0  0  0  0  0  0  0  0
   18.9281   18.1645   22.7999 C   0  0  2  0  0  0  0  0  0  0  0  0
   18.0580   17.6611   23.2329 H   0  0  0  0  0  0  0  0  0  0  0  0
   18.6681   18.3110   21.2901 C   0  0  0  0  0  0  0  0  0  0  0  0
   19.5386   18.7252   20.7676 H   0  0  0  0  0  0  0  0  0  0  0  0
   17.8102   18.9692   21.1053 H   0  0  0  0  0  0  0  0  0  0  0  0
   18.4413   17.3356   20.8428 H   0  0  0  0  0  0  0  0  0  0  0  0
   19.0542   19.5349   23.5135 C   0  0  0  0  0  0  0  0  0  0  0  0
   18.0579   19.9962   23.5255 H   0  0  0  0  0  0  0  0  0  0  0  0
   19.3082   19.3645   24.5679 H   0  0  0  0  0  0  0  0  0  0  0  0
   20.0473   20.5658   22.9073 C   0  0  0  0  0  0  0  0  0  0  0  0
   19.9814   21.4891   23.4998 H   0  0  0  0  0  0  0  0  0  0  0  0
   19.7344   20.8447   21.8920 H   0  0  0  0  0  0  0  0  0  0  0  0
   21.5230   20.1064   22.8886 C   0  0  0  0  0  0  0  0  0  0  0  0
   21.8387   19.7402   23.8742 H   0  0  0  0  0  0  0  0  0  0  0  0
   22.1784   20.9451   22.6200 H   0  0  0  0  0  0  0  0  0  0  0  0
   21.6908   19.3174   22.1465 H   0  0  0  0  0  0  0  0  0  0  0  0
  1  2  1  0  0  0  0
  1  3  1  0  0  0  0
  1  4  1  0  0  0  0
  1  5  1  0  0  0  0
  5  6  1  0  0  0  0
  5  7  1  0  0  0  0
  7  8  1  0  0  0  0
  7  9  1  0  0  0  0
  7 10  1  0  0  0  0
  5 11  1  0  0  0  0
 11 12  1  0  0  0  0
 11 13  1  0  0  0  0
 11 14  1  0  0  0  0
 14 15  1  0  0  0  0
 14 16  1  0  0  0  0
 14 17  1  0  0  0  0
 17 18  1  0  0  0  0
 17 19  1  0  0  0  0
 17 20  1  0  0  0  0
M  END
> <VConfSearch Rank>
300

> <Conf_Id>
55

> <Delta U+W>
2.767

> <U+W>
-33.509

> <U>
24.552

> <W>
-58.061

> <W(PB)>
-59.930

> <W(SA)>
1.869

> <Valence>
3.726

> <Coulomb>
20.219

> <VdW>
0.606

> <VdW6>
-6.395

> <VdW12>
7.001

> <Bond>
0.241

> <Angle>
2.098

> <Pdih>
1.387

> <Idih>
0.000

> <Tether>
0.000

$$$$
VeraChem MOL file


 20 19  0  0  0  0  0  0  0  0999 V2000     
   18.8083   18.2071   21.1534 N   0  3  0  0  0  0  0  0  0  0  0  0
   19.0344   18.9543   20.4923 H   0  0  0  0  0  0  0  0  0  0  0  0
   17.9534   17.7533   20.8203 H   0  0  0  0  0  0  0  0  0  0  0  0
   19.5592   17.5141   21.1031 H   0  0  0  0  0  0  0  0  0  0  0  0
   18.6406   18.7395   22.5511 C   0  0  2  0  0  0  0  0  0  0  0  0
   18.4066   17.8814   23.1889 H   0  0  0  0  0  0  0  0  0  0  0  0
   17.4609   19.7233   22.6163 C   0  0  0  0  0  0  0  0  0  0  0  0
   16.5364   19.2449   22.2702 H   0  0  0  0  0  0  0  0  0  0  0  0
   17.6441   20.6056   21.9903 H   0  0  0  0  0  0  0  0  0  0  0  0
   17.2933   20.0638   23.6457 H   0  0  0  0  0  0  0  0  0  0  0  0
   19.9257   19.4057   23.0905 C   0  0  0  0  0  0  0  0  0  0  0  0
   20.1963   20.2576   22.4527 H   0  0  0  0  0  0  0  0  0  0  0  0
   19.7201   19.8151   24.0886 H   0  0  0  0  0  0  0  0  0  0  0  0
   21.1199   18.4262   23.1896 C   0  0  0  0  0  0  0  0  0  0  0  0
   21.3821   18.0449   22.1934 H   0  0  0  0  0  0  0  0  0  0  0  0
   20.8359   17.5564   23.7988 H   0  0  0  0  0  0  0  0  0  0  0  0
   22.3611   19.1018   23.8111 C   0  0  0  0  0  0  0  0  0  0  0  0
   22.6884   19.9583   23.2073 H   0  0  0  0  0  0  0  0  0  0  0  0
   23.1980   18.3940   23.8724 H   0  0  0  0  0  0  0  0  0  0  0  0
   22.1494   19.4607   24.8267 H   0  0  0  0  0  0  0  0  0  0  0  0
  1  2  1  0  0  0  0
  1  3  1  0  0  0  0
  1  4  1  0  0  0  0
  1  5  1  0  0  0  0
  5  6  1  0  0  0  0
  5  7  1  0  0  0  0
  7  8  1  0  0  0  0
  7  9  1  0  0  0  0
  7 10  1  0  0  0  0
  5 11  1  0  0  0  0
 11 12  1  0  0  0  0
 11 13  1  0  0  0  0
 11 14  1  0  0  0  0
 14 15  1  0  0  0  0
 14 16  1  0  0  0  0
 14 17  1  0  0  0  0
 17 18  1  0  0  0  0
 17 19  1  0  0  0  0
 17 20  1  0  0  0  0
M  END
> <VConfSearch Rank>
301

> <Conf_Id>
74

> <Delta U+W>
0.000

> <U+W>
-36.276

> <U>
22.080

> <W>
-58.356

> <W(PB)>
-60.289

> <W(SA)>
1.932

> <Valence>
1.885

> <Coulomb>
19.559

> <VdW>
0.637

> <VdW6>
-4.482

> <VdW12>
5.119

> <Bond>
0.136

> <Angle>
0.867

> <Pdih>
0.882

> <Idih>
0.000

> <Tether>
0.000

$$$$
VeraChem MOL file


 20 19  0  0  0  0  0  0  0  0999 V2000     
   17.8427   19.5514   21.4020 N   0  3  0  0  0  0  0  0  0  0  0  0
   17.8324   18.8137   20.6924 H   0  0  0  0  0  0  0  0  0  0  0  0
   18.2369   20.3894   20.9671 H   0  0  0  0  0  0  0  0  0  0  0  0
   16.8681   19.7597   21.6354 H   0  0  0  0  0  0  0  0  0  0  0  0
   18.6248   19.1405   22.6194 C   0  0  2  0  0  0  0  0  0  0  0  0
   18.1324   18.2465   23.0146 H   0  0  0  0  0  0  0  0  0  0  0  0
   18.5625   20.2439   23.6915 C   0  0  0  0  0  0  0  0  0  0  0  0
   17.5222   20.5246   23.8969 H   0  0  0  0  0  0  0  0  0  0  0  0
   19.0995   21.1438   23.3670 H   0  0  0  0  0  0  0  0  0  0  0  0
   18.9987   19.9058   24.6384 H   0  0  0  0  0  0  0  0  0  0  0  0
   20.0795   18.7679   22.2501 C   0  0  0  0  0  0  0  0  0  0  0  0
   20.0545   18.0609   21.4104 H   0  0  0  0  0  0  0  0  0  0  0  0
   20.6095   19.6595   21.8896 H   0  0  0  0  0  0  0  0  0  0  0  0
   20.8741   18.1228   23.4119 C   0  0  0  0  0  0  0  0  0  0  0  0
   20.3133   17.2676   23.8146 H   0  0  0  0  0  0  0  0  0  0  0  0
   20.9961   18.8398   24.2347 H   0  0  0  0  0  0  0  0  0  0  0  0
   22.2700   17.6488   22.9532 C   0  0  0  0  0  0  0  0  0  0  0  0
   22.1910   16.8959   22.1581 H   0  0  0  0  0  0  0  0  0  0  0  0
   22.8204   17.1979   23.7892 H   0  0  0  0  0  0  0  0  0  0  0  0
   22.8662   18.4878   22.5714 H   0  0  0  0  0  0  0  0  0  0  0  0
  1  2  1  0  0  0  0
  1  3  1  0  0  0  0
  1  4  1  0  0  0  0
  1  5  1  0  0  0  0
  5  6  1  0  0  0  0
  5  7  1  0  0  0  0
  7  8  1  0  0  0  0
  7  9  1  0  0  0  0
  7 10  1  0  0  0  0
  5 11  1  0  0  0  0
 11 12  1  0  0  0  0
 11 13  1  0  0  0  0
 11 14  1  0  0  0  0
 14 15  1  0  0  0  0
 14 16  1  0  0  0  0
 14 17  1  0  0  0  0
 17 18  1  0  0  0  0
 17 19  1  0  0  0  0
 17 20  1  0  0  0  0
M  END
> <VConfSearch Rank>
302

> <Conf_Id>
80

> <Delta U+W>
0.460

> <U+W>
-35.817

> <U>
22.495

> <W>
-58.311

> <W(PB)>
-60.259

> <W(SA)>
1.948

> <Valence>
2.419

> <Coulomb>
19.304

> <VdW>
0.772

> <VdW6>
-4.635

> <VdW12>
5.407

> <Bond>
0.149

> <Angle>
1.142

> <Pdih>
1.129

> <Idih>
0.000

> <Tether>
0.000

$$$$
VeraChem MOL file


 20 19  0  0  0  0  0  0  0  0999 V2000     
   21.5075   20.4868   22.3700 N   0  3  0  0  0  0  0  0  0  0  0  0
   21.4569   21.2492   23.0512 H   0  0  0  0  0  0  0  0  0  0  0  0
   21.1266   20.8383   21.4879 H   0  0  0  0  0  0  0  0  0  0  0  0
   22.4989   20.2857   22.2146 H   0  0  0  0  0  0  0  0  0  0  0  0
   20.7659   19.2672   22.8445 C   0  0  2  0  0  0  0  0  0  0  0  0
   21.2437   18.9634   23.7811 H   0  0  0  0  0  0  0  0  0  0  0  0
   20.9255   18.1198   21.8325 C   0  0  0  0  0  0  0  0  0  0  0  0
   21.9821   17.9722   21.5775 H   0  0  0  0  0  0  0  0  0  0  0  0
   20.3769   18.3272   20.9054 H   0  0  0  0  0  0  0  0  0  0  0  0
   20.5610   17.1744   22.2501 H   0  0  0  0  0  0  0  0  0  0  0  0
   19.2845   19.6004   23.1474 C   0  0  0  0  0  0  0  0  0  0  0  0
   19.2737   20.4484   23.8448 H   0  0  0  0  0  0  0  0  0  0  0  0
   18.7819   19.9557   22.2381 H   0  0  0  0  0  0  0  0  0  0  0  0
   18.4721   18.4473   23.7940 C   0  0  0  0  0  0  0  0  0  0  0  0
   17.7763   18.8777   24.5280 H   0  0  0  0  0  0  0  0  0  0  0  0
   19.1376   17.7836   24.3638 H   0  0  0  0  0  0  0  0  0  0  0  0
   17.6426   17.6322   22.7739 C   0  0  0  0  0  0  0  0  0  0  0  0
   16.9210   18.2749   22.2528 H   0  0  0  0  0  0  0  0  0  0  0  0
   17.0758   16.8423   23.2836 H   0  0  0  0  0  0  0  0  0  0  0  0
   18.2734   17.1522   22.0175 H   0  0  0  0  0  0  0  0  0  0  0  0
  1  2  1  0  0  0  0
  1  3  1  0  0  0  0
  1  4  1  0  0  0  0
  1  5  1  0  0  0  0
  5  6  1  0  0  0  0
  5  7  1  0  0  0  0
  7  8  1  0  0  0  0
  7  9  1  0  0  0  0
  7 10  1  0  0  0  0
  5 11  1  0  0  0  0
 11 12  1  0  0  0  0
 11 13  1  0  0  0  0
 11 14  1  0  0  0  0
 14 15  1  0  0  0  0
 14 16  1  0  0  0  0
 14 17  1  0  0  0  0
 17 18  1  0  0  0  0
 17 19  1  0  0  0  0
 17 20  1  0  0  0  0
M  END
> <VConfSearch Rank>
303

> <Conf_Id>
52

> <Delta U+W>
2.995

> <U+W>
-33.282

> <U>
25.224

> <W>
-58.506

> <W(PB)>
-60.411

> <W(SA)>
1.905

> <Valence>
4.945

> <Coulomb>
19.467

> <VdW>
0.813

> <VdW6>
-5.458

> <VdW12>
6.270

> <Bond>
0.200

> <Angle>
1.675

> <Pdih>
3.070

> <Idih>
0.000

> <Tether>
0.000

$$$$
VeraChem MOL file


 20 19  0  0  0  0  0  0  0  0999 V2000     
   21.0758   19.8823   23.1010 N   0  3  0  0  0  0  0  0  0  0  0  0
   20.9931   20.0824   24.1007 H   0  0  0  0  0  0  0  0  0  0  0  0
   21.7149   20.5751   22.7020 H   0  0  0  0  0  0  0  0  0  0  0  0
   21.5174   18.9650   23.0083 H   0  0  0  0  0  0  0  0  0  0  0  0
   19.7334   19.9133   22.4225 C   0  0  2  0  0  0  0  0  0  0  0  0
   19.9074   19.7399   21.3560 H   0  0  0  0  0  0  0  0  0  0  0  0
   19.0985   21.3046   22.5861 C   0  0  0  0  0  0  0  0  0  0  0  0
   18.8878   21.5235   23.6404 H   0  0  0  0  0  0  0  0  0  0  0  0
   18.1564   21.3728   22.0279 H   0  0  0  0  0  0  0  0  0  0  0  0
   19.7672   22.0848   22.2019 H   0  0  0  0  0  0  0  0  0  0  0  0
   18.7729   18.8174   22.9428 C   0  0  0  0  0  0  0  0  0  0  0  0
   18.7781   18.8054   24.0407 H   0  0  0  0  0  0  0  0  0  0  0  0
   17.7480   19.0831   22.6509 H   0  0  0  0  0  0  0  0  0  0  0  0
   19.0505   17.3942   22.3915 C   0  0  0  0  0  0  0  0  0  0  0  0
   18.9968   17.4053   21.2938 H   0  0  0  0  0  0  0  0  0  0  0  0
   18.2392   16.7331   22.7271 H   0  0  0  0  0  0  0  0  0  0  0  0
   20.3961   16.7768   22.8358 C   0  0  0  0  0  0  0  0  0  0  0  0
   20.4271   15.7102   22.5775 H   0  0  0  0  0  0  0  0  0  0  0  0
   20.5345   16.8593   23.9218 H   0  0  0  0  0  0  0  0  0  0  0  0
   21.2452   17.2517   22.3310 H   0  0  0  0  0  0  0  0  0  0  0  0
  1  2  1  0  0  0  0
  1  3  1  0  0  0  0
  1  4  1  0  0  0  0
  1  5  1  0  0  0  0
  5  6  1  0  0  0  0
  5  7  1  0  0  0  0
  7  8  1  0  0  0  0
  7  9  1  0  0  0  0
  7 10  1  0  0  0  0
  5 11  1  0  0  0  0
 11 12  1  0  0  0  0
 11 13  1  0  0  0  0
 11 14  1  0  0  0  0
 14 15  1  0  0  0  0
 14 16  1  0  0  0  0
 14 17  1  0  0  0  0
 17 18  1  0  0  0  0
 17 19  1  0  0  0  0
 17 20  1  0  0  0  0
M  END
> <VConfSearch Rank>
304

> <Conf_Id>
54

> <Delta U+W>
2.752

> <U+W>
-33.525

> <U>
24.337

> <W>
-57.862

> <W(PB)>
-59.764

> <W(SA)>
1.901

> <Valence>
3.593

> <Coulomb>
20.067

> <VdW>
0.677

> <VdW6>
-5.466

> <VdW12>
6.144

> <Bond>
0.191

> <Angle>
1.557

> <Pdih>
1.845

> <Idih>
0.000

> <Tether>
0.000

$$$$
VeraChem MOL file


 20 19  0  0  0  0  0  0  0  0999 V2000     
   21.7666   18.7163   22.2832 N   0  3  0  0  0  0  0  0  0  0  0  0
   22.4484   18.1428   21.7793 H   0  0  0  0  0  0  0  0  0  0  0  0
   22.2369   19.0885   23.1126 H   0  0  0  0  0  0  0  0  0  0  0  0
   21.5306   19.5089   21.6820 H   0  0  0  0  0  0  0  0  0  0  0  0
   20.5431   17.9215   22.6509 C   0  0  2  0  0  0  0  0  0  0  0  0
   20.8960   17.0938   23.2742 H   0  0  0  0  0  0  0  0  0  0  0  0
   19.8833   17.3120   21.4011 C   0  0  0  0  0  0  0  0  0  0  0  0
   18.9909   16.7349   21.6732 H   0  0  0  0  0  0  0  0  0  0  0  0
   20.5776   16.6304   20.8948 H   0  0  0  0  0  0  0  0  0  0  0  0
   19.5874   18.0838   20.6807 H   0  0  0  0  0  0  0  0  0  0  0  0
   19.5389   18.7377   23.4996 C   0  0  0  0  0  0  0  0  0  0  0  0
   18.7182   18.0764   23.8080 H   0  0  0  0  0  0  0  0  0  0  0  0
   20.0395   19.0482   24.4261 H   0  0  0  0  0  0  0  0  0  0  0  0
   18.9514   19.9881   22.7955 C   0  0  0  0  0  0  0  0  0  0  0  0
   18.4014   19.6923   21.8922 H   0  0  0  0  0  0  0  0  0  0  0  0
   19.7605   20.6564   22.4719 H   0  0  0  0  0  0  0  0  0  0  0  0
   17.9982   20.7671   23.7271 C   0  0  0  0  0  0  0  0  0  0  0  0
   17.5888   21.6474   23.2147 H   0  0  0  0  0  0  0  0  0  0  0  0
   18.5217   21.1152   24.6271 H   0  0  0  0  0  0  0  0  0  0  0  0
   17.1547   20.1397   24.0436 H   0  0  0  0  0  0  0  0  0  0  0  0
  1  2  1  0  0  0  0
  1  3  1  0  0  0  0
  1  4  1  0  0  0  0
  1  5  1  0  0  0  0
  5  6  1  0  0  0  0
  5  7  1  0  0  0  0
  7  8  1  0  0  0  0
  7  9  1  0  0  0  0
  7 10  1  0  0  0  0
  5 11  1  0  0  0  0
 11 12  1  0  0  0  0
 11 13  1  0  0  0  0
 11 14  1  0  0  0  0
 14 15  1  0  0  0  0
 14 16  1  0  0  0  0
 14 17  1  0  0  0  0
 17 18  1  0  0  0  0
 17 19  1  0  0  0  0
 17 20  1  0  0  0  0
M  END
> <VConfSearch Rank>
305

> <Conf_Id>
63

> <Delta U+W>
0.420

> <U+W>
-35.856

> <U>
22.625

> <W>
-58.481

> <W(PB)>
-60.400

> <W(SA)>
1.919

> <Valence>
2.404

> <Coulomb>
19.464

> <VdW>
0.757

> <VdW6>
-5.074

> <VdW12>
5.830

> <Bond>
0.172

> <Angle>
1.207

> <Pdih>
1.025

> <Idih>
0.000

> <Tether>
0.000

$$$$
VeraChem MOL file


 20 19  0  0  0  0  0  0  0  0999 V2000     
   19.4396   20.7266   22.5988 N   0  3  0  0  0  0  0  0  0  0  0  0
   20.4061   20.7994   22.9265 H   0  0  0  0  0  0  0  0  0  0  0  0
   18.8338   21.0724   23.3470 H   0  0  0  0  0  0  0  0  0  0  0  0
   19.3375   21.3629   21.8037 H   0  0  0  0  0  0  0  0  0  0  0  0
   19.0955   19.3113   22.2208 C   0  0  2  0  0  0  0  0  0  0  0  0
   19.7828   19.0236   21.4196 H   0  0  0  0  0  0  0  0  0  0  0  0
   17.6614   19.2288   21.6730 C   0  0  0  0  0  0  0  0  0  0  0  0
   17.5352   19.8977   20.8128 H   0  0  0  0  0  0  0  0  0  0  0  0
   16.9269   19.5126   22.4371 H   0  0  0  0  0  0  0  0  0  0  0  0
   17.4300   18.2099   21.3385 H   0  0  0  0  0  0  0  0  0  0  0  0
   19.2803   18.3242   23.3957 C   0  0  0  0  0  0  0  0  0  0  0  0
   18.5861   18.5869   24.2049 H   0  0  0  0  0  0  0  0  0  0  0  0
   18.9966   17.3166   23.0637 H   0  0  0  0  0  0  0  0  0  0  0  0
   20.7222   18.2731   23.9615 C   0  0  0  0  0  0  0  0  0  0  0  0
   20.7505   17.5513   24.7898 H   0  0  0  0  0  0  0  0  0  0  0  0
   20.9937   19.2438   24.3982 H   0  0  0  0  0  0  0  0  0  0  0  0
   21.7737   17.8641   22.9049 C   0  0  0  0  0  0  0  0  0  0  0  0
   21.5232   16.8951   22.4537 H   0  0  0  0  0  0  0  0  0  0  0  0
   22.7659   17.7720   23.3654 H   0  0  0  0  0  0  0  0  0  0  0  0
   21.8502   18.6069   22.1010 H   0  0  0  0  0  0  0  0  0  0  0  0
  1  2  1  0  0  0  0
  1  3  1  0  0  0  0
  1  4  1  0  0  0  0
  1  5  1  0  0  0  0
  5  6  1  0  0  0  0
  5  7  1  0  0  0  0
  7  8  1  0  0  0  0
  7  9  1  0  0  0  0
  7 10  1  0  0  0  0
  5 11  1  0  0  0  0
 11 12  1  0  0  0  0
 11 13  1  0  0  0  0
 11 14  1  0  0  0  0
 14 15  1  0  0  0  0
 14 16  1  0  0  0  0
 14 17  1  0  0  0  0
 17 18  1  0  0  0  0
 17 19  1  0  0  0  0
 17 20  1  0  0  0  0
M  END
> <VConfSearch Rank>
306

> <Conf_Id>
50

> <Delta U+W>
0.466

> <U+W>
-35.811

> <U>
22.369

> <W>
-58.180

> <W(PB)>
-60.103

> <W(SA)>
1.923

> <Valence>
2.168

> <Coulomb>
19.636

> <VdW>
0.566

> <VdW6>
-5.263

> <VdW12>
5.829

> <Bond>
0.162

> <Angle>
1.066

> <Pdih>
0.939

> <Idih>
0.000

> <Tether>
0.000

$$$$
VeraChem MOL file


 20 19  0  0  0  0  0  0  0  0999 V2000     
   18.6550   16.9984   23.5735 N   0  3  0  0  0  0  0  0  0  0  0  0
   19.3058   16.2362   23.3647 H   0  0  0  0  0  0  0  0  0  0  0  0
   17.8188   16.8536   23.0020 H   0  0  0  0  0  0  0  0  0  0  0  0
   18.3754   16.8970   24.5530 H   0  0  0  0  0  0  0  0  0  0  0  0
   19.2755   18.3447   23.3144 C   0  0  2  0  0  0  0  0  0  0  0  0
   20.1555   18.4044   23.9623 H   0  0  0  0  0  0  0  0  0  0  0  0
   18.2933   19.4626   23.7115 C   0  0  0  0  0  0  0  0  0  0  0  0
   17.3732   19.4100   23.1163 H   0  0  0  0  0  0  0  0  0  0  0  0
   18.7322   20.4554   23.5649 H   0  0  0  0  0  0  0  0  0  0  0  0
   18.0175   19.3765   24.7696 H   0  0  0  0  0  0  0  0  0  0  0  0
   19.7469   18.4911   21.8466 C   0  0  0  0  0  0  0  0  0  0  0  0
   19.8103   17.4953   21.3884 H   0  0  0  0  0  0  0  0  0  0  0  0
   19.0009   19.0405   21.2570 H   0  0  0  0  0  0  0  0  0  0  0  0
   21.1387   19.1565   21.6980 C   0  0  0  0  0  0  0  0  0  0  0  0
   21.4210   19.1459   20.6359 H   0  0  0  0  0  0  0  0  0  0  0  0
   21.8929   18.5509   22.2200 H   0  0  0  0  0  0  0  0  0  0  0  0
   21.2025   20.6109   22.2144 C   0  0  0  0  0  0  0  0  0  0  0  0
   20.4314   21.2334   21.7423 H   0  0  0  0  0  0  0  0  0  0  0  0
   22.1790   21.0567   21.9847 H   0  0  0  0  0  0  0  0  0  0  0  0
   21.0698   20.6563   23.3025 H   0  0  0  0  0  0  0  0  0  0  0  0
  1  2  1  0  0  0  0
  1  3  1  0  0  0  0
  1  4  1  0  0  0  0
  1  5  1  0  0  0  0
  5  6  1  0  0  0  0
  5  7  1  0  0  0  0
  7  8  1  0  0  0  0
  7  9  1  0  0  0  0
  7 10  1  0  0  0  0
  5 11  1  0  0  0  0
 11 12  1  0  0  0  0
 11 13  1  0  0  0  0
 11 14  1  0  0  0  0
 14 15  1  0  0  0  0
 14 16  1  0  0  0  0
 14 17  1  0  0  0  0
 17 18  1  0  0  0  0
 17 19  1  0  0  0  0
 17 20  1  0  0  0  0
M  END
> <VConfSearch Rank>
307

> <Conf_Id>
3

> <Delta U+W>
3.093

> <U+W>
-33.184

> <U>
25.256

> <W>
-58.439

> <W(PB)>
-60.337

> <W(SA)>
1.898

> <Valence>
4.963

> <Coulomb>
19.511

> <VdW>
0.782

> <VdW6>
-5.429

> <VdW12>
6.211

> <Bond>
0.174

> <Angle>
1.377

> <Pdih>
3.412

> <Idih>
0.000

> <Tether>
0.000

$$$$
VeraChem MOL file


 20 19  0  0  0  0  0  0  0  0999 V2000     
   21.6319   20.0616   22.4219 N   0  3  0  0  0  0  0  0  0  0  0  0
   21.8786   20.4935   21.5273 H   0  0  0  0  0  0  0  0  0  0  0  0
   22.3474   19.3586   22.6258 H   0  0  0  0  0  0  0  0  0  0  0  0
   21.7024   20.7875   23.1394 H   0  0  0  0  0  0  0  0  0  0  0  0
   20.2551   19.4572   22.3807 C   0  0  2  0  0  0  0  0  0  0  0  0
   20.2753   18.7023   21.5890 H   0  0  0  0  0  0  0  0  0  0  0  0
   19.2120   20.5260   22.0069 C   0  0  0  0  0  0  0  0  0  0  0  0
   18.2266   20.0773   21.8360 H   0  0  0  0  0  0  0  0  0  0  0  0
   19.4994   21.0398   21.0815 H   0  0  0  0  0  0  0  0  0  0  0  0
   19.1143   21.2794   22.7983 H   0  0  0  0  0  0  0  0  0  0  0  0
   19.9127   18.7528   23.7153 C   0  0  0  0  0  0  0  0  0  0  0  0
   20.7291   18.0635   23.9683 H   0  0  0  0  0  0  0  0  0  0  0  0
   19.8821   19.4973   24.5218 H   0  0  0  0  0  0  0  0  0  0  0  0
   18.5839   17.9544   23.7126 C   0  0  0  0  0  0  0  0  0  0  0  0
   17.7300   18.6349   23.5946 H   0  0  0  0  0  0  0  0  0  0  0  0
   18.4561   17.4807   24.6961 H   0  0  0  0  0  0  0  0  0  0  0  0
   18.5359   16.8615   22.6206 C   0  0  0  0  0  0  0  0  0  0  0  0
   19.3828   16.1696   22.7168 H   0  0  0  0  0  0  0  0  0  0  0  0
   18.5602   17.2964   21.6135 H   0  0  0  0  0  0  0  0  0  0  0  0
   17.6124   16.2741   22.7048 H   0  0  0  0  0  0  0  0  0  0  0  0
  1  2  1  0  0  0  0
  1  3  1  0  0  0  0
  1  4  1  0  0  0  0
  1  5  1  0  0  0  0
  5  6  1  0  0  0  0
  5  7  1  0  0  0  0
  7  8  1  0  0  0  0
  7  9  1  0  0  0  0
  7 10  1  0  0  0  0
  5 11  1  0  0  0  0
 11 12  1  0  0  0  0
 11 13  1  0  0  0  0
 11 14  1  0  0  0  0
 14 15  1  0  0  0  0
 14 16  1  0  0  0  0
 14 17  1  0  0  0  0
 17 18  1  0  0  0  0
 17 19  1  0  0  0  0
 17 20  1  0  0  0  0
M  END
> <VConfSearch Rank>
308

> <Conf_Id>
64

> <Delta U+W>
0.544

> <U+W>
-35.732

> <U>
22.800

> <W>
-58.532

> <W(PB)>
-60.437

> <W(SA)>
1.905

> <Valence>
2.662

> <Coulomb>
19.485

> <VdW>
0.653

> <VdW6>
-5.460

> <VdW12>
6.113

> <Bond>
0.174

> <Angle>
1.378

> <Pdih>
1.109

> <Idih>
0.000

> <Tether>
0.000

$$$$
VeraChem MOL file


 20 19  0  0  0  0  0  0  0  0999 V2000     
   18.0119   19.4241   21.6669 N   0  3  0  0  0  0  0  0  0  0  0  0
   18.1868   20.2721   22.2107 H   0  0  0  0  0  0  0  0  0  0  0  0
   17.0253   19.1807   21.7892 H   0  0  0  0  0  0  0  0  0  0  0  0
   18.1464   19.6589   20.6798 H   0  0  0  0  0  0  0  0  0  0  0  0
   18.9138   18.2985   22.0962 C   0  0  2  0  0  0  0  0  0  0  0  0
   18.6435   17.4429   21.4695 H   0  0  0  0  0  0  0  0  0  0  0  0
   18.6395   17.9028   23.5564 C   0  0  0  0  0  0  0  0  0  0  0  0
   18.7602   18.7566   24.2332 H   0  0  0  0  0  0  0  0  0  0  0  0
   19.3172   17.1026   23.8785 H   0  0  0  0  0  0  0  0  0  0  0  0
   17.6127   17.5333   23.6663 H   0  0  0  0  0  0  0  0  0  0  0  0
   20.4082   18.6038   21.8234 C   0  0  0  0  0  0  0  0  0  0  0  0
   21.0016   17.6948   21.9882 H   0  0  0  0  0  0  0  0  0  0  0  0
   20.5079   18.8223   20.7521 H   0  0  0  0  0  0  0  0  0  0  0  0
   21.0244   19.7868   22.6209 C   0  0  0  0  0  0  0  0  0  0  0  0
   20.2671   20.5528   22.8334 H   0  0  0  0  0  0  0  0  0  0  0  0
   21.7759   20.2775   21.9865 H   0  0  0  0  0  0  0  0  0  0  0  0
   21.7238   19.3520   23.9302 C   0  0  0  0  0  0  0  0  0  0  0  0
   21.0265   18.8913   24.6384 H   0  0  0  0  0  0  0  0  0  0  0  0
   22.1765   20.2188   24.4290 H   0  0  0  0  0  0  0  0  0  0  0  0
   22.5256   18.6304   23.7265 H   0  0  0  0  0  0  0  0  0  0  0  0
  1  2  1  0  0  0  0
  1  3  1  0  0  0  0
  1  4  1  0  0  0  0
  1  5  1  0  0  0  0
  5  6  1  0  0  0  0
  5  7  1  0  0  0  0
  7  8  1  0  0  0  0
  7  9  1  0  0  0  0
  7 10  1  0  0  0  0
  5 11  1  0  0  0  0
 11 12  1  0  0  0  0
 11 13  1  0  0  0  0
 11 14  1  0  0  0  0
 14 15  1  0  0  0  0
 14 16  1  0  0  0  0
 14 17  1  0  0  0  0
 17 18  1  0  0  0  0
 17 19  1  0  0  0  0
 17 20  1  0  0  0  0
M  END
> <VConfSearch Rank>
309

> <Conf_Id>
35

> <Delta U+W>
3.004

> <U+W>
-33.272

> <U>
25.367

> <W>
-58.639

> <W(PB)>
-60.512

> <W(SA)>
1.873

> <Valence>
4.943

> <Coulomb>
19.661

> <VdW>
0.764

> <VdW6>
-5.871

> <VdW12>
6.636

> <Bond>
0.230

> <Angle>
1.857

> <Pdih>
2.855

> <Idih>
0.000

> <Tether>
0.000

$$$$
VeraChem MOL file


 20 19  0  0  0  0  0  0  0  0999 V2000     
   18.9209   20.2953   21.8987 N   0  3  0  0  0  0  0  0  0  0  0  0
   18.9957   21.3107   21.7932 H   0  0  0  0  0  0  0  0  0  0  0  0
   17.9620   20.0336   21.6547 H   0  0  0  0  0  0  0  0  0  0  0  0
   19.5402   19.8656   21.2089 H   0  0  0  0  0  0  0  0  0  0  0  0
   19.2731   19.8579   23.2940 C   0  0  2  0  0  0  0  0  0  0  0  0
   18.5422   20.3487   23.9442 H   0  0  0  0  0  0  0  0  0  0  0  0
   20.6664   20.3650   23.7066 C   0  0  0  0  0  0  0  0  0  0  0  0
   21.4490   19.9878   23.0376 H   0  0  0  0  0  0  0  0  0  0  0  0
   20.9072   20.0512   24.7298 H   0  0  0  0  0  0  0  0  0  0  0  0
   20.7004   21.4609   23.6782 H   0  0  0  0  0  0  0  0  0  0  0  0
   19.1118   18.3313   23.5107 C   0  0  0  0  0  0  0  0  0  0  0  0
   19.0783   18.1511   24.5933 H   0  0  0  0  0  0  0  0  0  0  0  0
   18.1286   18.0208   23.1339 H   0  0  0  0  0  0  0  0  0  0  0  0
   20.2067   17.4061   22.9092 C   0  0  0  0  0  0  0  0  0  0  0  0
   19.9678   16.3709   23.1902 H   0  0  0  0  0  0  0  0  0  0  0  0
   21.1807   17.6188   23.3704 H   0  0  0  0  0  0  0  0  0  0  0  0
   20.3345   17.4735   21.3704 C   0  0  0  0  0  0  0  0  0  0  0  0
   19.3583   17.3494   20.8838 H   0  0  0  0  0  0  0  0  0  0  0  0
   20.9906   16.6713   21.0083 H   0  0  0  0  0  0  0  0  0  0  0  0
   20.7762   18.4217   21.0430 H   0  0  0  0  0  0  0  0  0  0  0  0
  1  2  1  0  0  0  0
  1  3  1  0  0  0  0
  1  4  1  0  0  0  0
  1  5  1  0  0  0  0
  5  6  1  0  0  0  0
  5  7  1  0  0  0  0
  7  8  1  0  0  0  0
  7  9  1  0  0  0  0
  7 10  1  0  0  0  0
  5 11  1  0  0  0  0
 11 12  1  0  0  0  0
 11 13  1  0  0  0  0
 11 14  1  0  0  0  0
 14 15  1  0  0  0  0
 14 16  1  0  0  0  0
 14 17  1  0  0  0  0
 17 18  1  0  0  0  0
 17 19  1  0  0  0  0
 17 20  1  0  0  0  0
M  END
> <VConfSearch Rank>
310

> <Conf_Id>
55

> <Delta U+W>
2.767

> <U+W>
-33.509

> <U>
24.552

> <W>
-58.061

> <W(PB)>
-59.930

> <W(SA)>
1.869

> <Valence>
3.726

> <Coulomb>
20.219

> <VdW>
0.606

> <VdW6>
-6.395

> <VdW12>
7.001

> <Bond>
0.241

> <Angle>
2.098

> <Pdih>
1.387

> <Idih>
0.000

> <Tether>
0.000

$$$$
VeraChem MOL file


 20 19  0  0  0  0  0  0  0  0999 V2000     
   19.7701   17.8258   24.3339 N   0  3  0  0  0  0  0  0  0  0  0  0
   18.7577   17.7298   24.4450 H   0  0  0  0  0  0  0  0  0  0  0  0
   20.1933   17.6803   25.2544 H   0  0  0  0  0  0  0  0  0  0  0  0
   20.0870   17.0633   23.7300 H   0  0  0  0  0  0  0  0  0  0  0  0
   20.1373   19.1700   23.7652 C   0  0  2  0  0  0  0  0  0  0  0  0
   21.2281   19.1868   23.6759 H   0  0  0  0  0  0  0  0  0  0  0  0
   19.7158   20.2955   24.7241 C   0  0  0  0  0  0  0  0  0  0  0  0
   20.1712   20.1551   25.7121 H   0  0  0  0  0  0  0  0  0  0  0  0
   18.6263   20.3225   24.8507 H   0  0  0  0  0  0  0  0  0  0  0  0
   20.0398   21.2728   24.3450 H   0  0  0  0  0  0  0  0  0  0  0  0
   19.5346   19.4058   22.3626 C   0  0  0  0  0  0  0  0  0  0  0  0
   18.4386   19.3701   22.4203 H   0  0  0  0  0  0  0  0  0  0  0  0
   19.7975   20.4188   22.0299 H   0  0  0  0  0  0  0  0  0  0  0  0
   20.0363   18.3890   21.3090 C   0  0  0  0  0  0  0  0  0  0  0  0
   19.7361   17.3707   21.5908 H   0  0  0  0  0  0  0  0  0  0  0  0
   21.1350   18.3999   21.2777 H   0  0  0  0  0  0  0  0  0  0  0  0
   19.4820   18.7046   19.9032 C   0  0  0  0  0  0  0  0  0  0  0  0
   18.3846   18.6715   19.8947 H   0  0  0  0  0  0  0  0  0  0  0  0
   19.8463   17.9737   19.1696 H   0  0  0  0  0  0  0  0  0  0  0  0
   19.7963   19.7019   19.5686 H   0  0  0  0  0  0  0  0  0  0  0  0
  1  2  1  0  0  0  0
  1  3  1  0  0  0  0
  1  4  1  0  0  0  0
  1  5  1  0  0  0  0
  5  6  1  0  0  0  0
  5  7  1  0  0  0  0
  7  8  1  0  0  0  0
  7  9  1  0  0  0  0
  7 10  1  0  0  0  0
  5 11  1  0  0  0  0
 11 12  1  0  0  0  0
 11 13  1  0  0  0  0
 11 14  1  0  0  0  0
 14 15  1  0  0  0  0
 14 16  1  0  0  0  0
 14 17  1  0  0  0  0
 17 18  1  0  0  0  0
 17 19  1  0  0  0  0
 17 20  1  0  0  0  0
M  END
> <VConfSearch Rank>
311

> <Conf_Id>
74

> <Delta U+W>
0.000

> <U+W>
-36.276

> <U>
22.080

> <W>
-58.356

> <W(PB)>
-60.289

> <W(SA)>
1.932

> <Valence>
1.885

> <Coulomb>
19.559

> <VdW>
0.637

> <VdW6>
-4.482

> <VdW12>
5.119

> <Bond>
0.136

> <Angle>
0.867

> <Pdih>
0.882

> <Idih>
0.000

> <Tether>
0.000

$$$$
VeraChem MOL file


 20 19  0  0  0  0  0  0  0  0999 V2000     
   18.1041   18.3326   24.3583 N   0  3  0  0  0  0  0  0  0  0  0  0
   17.3431   18.9820   24.1413 H   0  0  0  0  0  0  0  0  0  0  0  0
   18.5885   18.6934   25.1840 H   0  0  0  0  0  0  0  0  0  0  0  0
   17.6749   17.4418   24.6224 H   0  0  0  0  0  0  0  0  0  0  0  0
   19.0429   18.1681   23.1946 C   0  0  2  0  0  0  0  0  0  0  0  0
   18.4421   17.7789   22.3667 H   0  0  0  0  0  0  0  0  0  0  0  0
   20.1341   17.1351   23.5310 C   0  0  0  0  0  0  0  0  0  0  0  0
   19.6843   16.1990   23.8838 H   0  0  0  0  0  0  0  0  0  0  0  0
   20.8046   17.5069   24.3157 H   0  0  0  0  0  0  0  0  0  0  0  0
   20.7381   16.8910   22.6496 H   0  0  0  0  0  0  0  0  0  0  0  0
   19.6403   19.5271   22.7613 C   0  0  0  0  0  0  0  0  0  0  0  0
   18.8185   20.2456   22.6425 H   0  0  0  0  0  0  0  0  0  0  0  0
   20.2831   19.9200   23.5602 H   0  0  0  0  0  0  0  0  0  0  0  0
   20.4355   19.4662   21.4343 C   0  0  0  0  0  0  0  0  0  0  0  0
   19.8127   19.0144   20.6493 H   0  0  0  0  0  0  0  0  0  0  0  0
   21.3193   18.8246   21.5486 H   0  0  0  0  0  0  0  0  0  0  0  0
   20.8935   20.8688   20.9797 C   0  0  0  0  0  0  0  0  0  0  0  0
   20.0341   21.5309   20.8118 H   0  0  0  0  0  0  0  0  0  0  0  0
   21.4583   20.8067   20.0405 H   0  0  0  0  0  0  0  0  0  0  0  0
   21.5425   21.3353   21.7324 H   0  0  0  0  0  0  0  0  0  0  0  0
  1  2  1  0  0  0  0
  1  3  1  0  0  0  0
  1  4  1  0  0  0  0
  1  5  1  0  0  0  0
  5  6  1  0  0  0  0
  5  7  1  0  0  0  0
  7  8  1  0  0  0  0
  7  9  1  0  0  0  0
  7 10  1  0  0  0  0
  5 11  1  0  0  0  0
 11 12  1  0  0  0  0
 11 13  1  0  0  0  0
 11 14  1  0  0  0  0
 14 15  1  0  0  0  0
 14 16  1  0  0  0  0
 14 17  1  0  0  0  0
 17 18  1  0  0  0  0
 17 19  1  0  0  0  0
 17 20  1  0  0  0  0
M  END
> <VConfSearch Rank>
312

> <Conf_Id>
80

> <Delta U+W>
0.460

> <U+W>
-35.817

> <U>
22.495

> <W>
-58.311

> <W(PB)>
-60.259

> <W(SA)>
1.948

> <Valence>
2.419

> <Coulomb>
19.304

> <VdW>
0.772

> <VdW6>
-4.635

> <VdW12>
5.407

> <Bond>
0.149

> <Angle>
1.142

> <Pdih>
1.129

> <Idih>
0.000

> <Tether>
0.000

$$$$
VeraChem MOL file


 20 19  0  0  0  0  0  0  0  0999 V2000     
   19.5607   19.9827   20.6006 N   0  3  0  0  0  0  0  0  0  0  0  0
   18.5886   20.2331   20.4004 H   0  0  0  0  0  0  0  0  0  0  0  0
   19.7818   19.1486   20.0509 H   0  0  0  0  0  0  0  0  0  0  0  0
   20.1476   20.7435   20.2480 H   0  0  0  0  0  0  0  0  0  0  0  0
   19.7838   19.7506   22.0700 C   0  0  2  0  0  0  0  0  0  0  0  0
   19.5296   20.6902   22.5704 H   0  0  0  0  0  0  0  0  0  0  0  0
   21.2677   19.4504   22.3422 C   0  0  0  0  0  0  0  0  0  0  0  0
   21.9086   20.2057   21.8711 H   0  0  0  0  0  0  0  0  0  0  0  0
   21.5538   18.4671   21.9488 H   0  0  0  0  0  0  0  0  0  0  0  0
   21.4820   19.4726   23.4167 H   0  0  0  0  0  0  0  0  0  0  0  0
   18.8385   18.6488   22.6083 C   0  0  0  0  0  0  0  0  0  0  0  0
   17.8134   18.9323   22.3355 H   0  0  0  0  0  0  0  0  0  0  0  0
   19.0320   17.6982   22.0939 H   0  0  0  0  0  0  0  0  0  0  0  0
   18.8784   18.4448   24.1460 C   0  0  0  0  0  0  0  0  0  0  0  0
   17.8607   18.2215   24.4962 H   0  0  0  0  0  0  0  0  0  0  0  0
   19.1711   19.3777   24.6479 H   0  0  0  0  0  0  0  0  0  0  0  0
   19.7988   17.2829   24.5886 C   0  0  0  0  0  0  0  0  0  0  0  0
   19.4675   16.3321   24.1511 H   0  0  0  0  0  0  0  0  0  0  0  0
   19.7780   17.1711   25.6804 H   0  0  0  0  0  0  0  0  0  0  0  0
   20.8410   17.4450   24.2917 H   0  0  0  0  0  0  0  0  0  0  0  0
  1  2  1  0  0  0  0
  1  3  1  0  0  0  0
  1  4  1  0  0  0  0
  1  5  1  0  0  0  0
  5  6  1  0  0  0  0
  5  7  1  0  0  0  0
  7  8  1  0  0  0  0
  7  9  1  0  0  0  0
  7 10  1  0  0  0  0
  5 11  1  0  0  0  0
 11 12  1  0  0  0  0
 11 13  1  0  0  0  0
 11 14  1  0  0  0  0
 14 15  1  0  0  0  0
 14 16  1  0  0  0  0
 14 17  1  0  0  0  0
 17 18  1  0  0  0  0
 17 19  1  0  0  0  0
 17 20  1  0  0  0  0
M  END
> <VConfSearch Rank>
313

> <Conf_Id>
52

> <Delta U+W>
2.995

> <U+W>
-33.282

> <U>
25.224

> <W>
-58.506

> <W(PB)>
-60.411

> <W(SA)>
1.905

> <Valence>
4.945

> <Coulomb>
19.467

> <VdW>
0.813

> <VdW6>
-5.458

> <VdW12>
6.270

> <Bond>
0.200

> <Angle>
1.675

> <Pdih>
3.070

> <Idih>
0.000

> <Tether>
0.000

$$$$
VeraChem MOL file


 20 19  0  0  0  0  0  0  0  0999 V2000     
   19.6592   20.6113   22.4704 N   0  3  0  0  0  0  0  0  0  0  0  0
   19.0559   20.7004   21.6491 H   0  0  0  0  0  0  0  0  0  0  0  0
   20.2082   21.4722   22.5416 H   0  0  0  0  0  0  0  0  0  0  0  0
   19.0526   20.5629   23.2917 H   0  0  0  0  0  0  0  0  0  0  0  0
   20.5436   19.3983   22.3722 C   0  0  2  0  0  0  0  0  0  0  0  0
   21.1888   19.3976   23.2562 H   0  0  0  0  0  0  0  0  0  0  0  0
   21.4373   19.5041   21.1249 C   0  0  0  0  0  0  0  0  0  0  0  0
   20.8387   19.4931   20.2054 H   0  0  0  0  0  0  0  0  0  0  0  0
   22.1475   18.6690   21.0805 H   0  0  0  0  0  0  0  0  0  0  0  0
   22.0205   20.4330   21.1421 H   0  0  0  0  0  0  0  0  0  0  0  0
   19.7446   18.0734   22.3525 C   0  0  0  0  0  0  0  0  0  0  0  0
   18.9153   18.1469   21.6366 H   0  0  0  0  0  0  0  0  0  0  0  0
   20.3979   17.2763   21.9733 H   0  0  0  0  0  0  0  0  0  0  0  0
   19.2166   17.6118   23.7363 C   0  0  0  0  0  0  0  0  0  0  0  0
   20.0581   17.4952   24.4335 H   0  0  0  0  0  0  0  0  0  0  0  0
   18.7802   16.6099   23.6190 H   0  0  0  0  0  0  0  0  0  0  0  0
   18.1496   18.5363   24.3656 C   0  0  0  0  0  0  0  0  0  0  0  0
   17.6855   18.0451   25.2308 H   0  0  0  0  0  0  0  0  0  0  0  0
   17.3512   18.7707   23.6494 H   0  0  0  0  0  0  0  0  0  0  0  0
   18.5891   19.4726   24.7286 H   0  0  0  0  0  0  0  0  0  0  0  0
  1  2  1  0  0  0  0
  1  3  1  0  0  0  0
  1  4  1  0  0  0  0
  1  5  1  0  0  0  0
  5  6  1  0  0  0  0
  5  7  1  0  0  0  0
  7  8  1  0  0  0  0
  7  9  1  0  0  0  0
  7 10  1  0  0  0  0
  5 11  1  0  0  0  0
 11 12  1  0  0  0  0
 11 13  1  0  0  0  0
 11 14  1  0  0  0  0
 14 15  1  0  0  0  0
 14 16  1  0  0  0  0
 14 17  1  0  0  0  0
 17 18  1  0  0  0  0
 17 19  1  0  0  0  0
 17 20  1  0  0  0  0
M  END
> <VConfSearch Rank>
314

> <Conf_Id>
54

> <Delta U+W>
2.752

> <U+W>
-33.525

> <U>
24.337

> <W>
-57.862

> <W(PB)>
-59.764

> <W(SA)>
1.901

> <Valence>
3.593

> <Coulomb>
20.067

> <VdW>
0.677

> <VdW6>
-5.466

> <VdW12>
6.144

> <Bond>
0.191

> <Angle>
1.557

> <Pdih>
1.845

> <Idih>
0.000

> <Tether>
0.000

$$$$
VeraChem MOL file


 20 19  0  0  0  0  0  0  0  0999 V2000     
   19.1549   20.7276   21.8230 N   0  3  0  0  0  0  0  0  0  0  0  0
   18.4209   21.4409   21.8119 H   0  0  0  0  0  0  0  0  0  0  0  0
   19.5549   20.6889   20.8816 H   0  0  0  0  0  0  0  0  0  0  0  0
   19.8887   21.0546   22.4556 H   0  0  0  0  0  0  0  0  0  0  0  0
   18.6161   19.3895   22.2506 C   0  0  2  0  0  0  0  0  0  0  0  0
   17.8326   19.1344   21.5301 H   0  0  0  0  0  0  0  0  0  0  0  0
   17.9582   19.4764   23.6393 C   0  0  0  0  0  0  0  0  0  0  0  0
   17.5682   18.4986   23.9482 H   0  0  0  0  0  0  0  0  0  0  0  0
   17.1160   20.1789   23.6214 H   0  0  0  0  0  0  0  0  0  0  0  0
   18.6652   19.8216   24.4029 H   0  0  0  0  0  0  0  0  0  0  0  0
   19.6834   18.2710   22.1814 C   0  0  0  0  0  0  0  0  0  0  0  0
   19.2046   17.3113   22.4172 H   0  0  0  0  0  0  0  0  0  0  0  0
   20.0310   18.1868   21.1434 H   0  0  0  0  0  0  0  0  0  0  0  0
   20.9066   18.4749   23.1123 C   0  0  0  0  0  0  0  0  0  0  0  0
   20.5842   18.5097   24.1615 H   0  0  0  0  0  0  0  0  0  0  0  0
   21.3921   19.4359   22.8956 H   0  0  0  0  0  0  0  0  0  0  0  0
   21.9404   17.3405   22.9456 C   0  0  0  0  0  0  0  0  0  0  0  0
   22.7988   17.4972   23.6117 H   0  0  0  0  0  0  0  0  0  0  0  0
   22.3178   17.2975   21.9155 H   0  0  0  0  0  0  0  0  0  0  0  0
   21.4995   16.3651   23.1890 H   0  0  0  0  0  0  0  0  0  0  0  0
  1  2  1  0  0  0  0
  1  3  1  0  0  0  0
  1  4  1  0  0  0  0
  1  5  1  0  0  0  0
  5  6  1  0  0  0  0
  5  7  1  0  0  0  0
  7  8  1  0  0  0  0
  7  9  1  0  0  0  0
  7 10  1  0  0  0  0
  5 11  1  0  0  0  0
 11 12  1  0  0  0  0
 11 13  1  0  0  0  0
 11 14  1  0  0  0  0
 14 15  1  0  0  0  0
 14 16  1  0  0  0  0
 14 17  1  0  0  0  0
 17 18  1  0  0  0  0
 17 19  1  0  0  0  0
 17 20  1  0  0  0  0
M  END
> <VConfSearch Rank>
315

> <Conf_Id>
63

> <Delta U+W>
0.420

> <U+W>
-35.856

> <U>
22.625

> <W>
-58.481

> <W(PB)>
-60.400

> <W(SA)>
1.919

> <Valence>
2.404

> <Coulomb>
19.464

> <VdW>
0.757

> <VdW6>
-5.074

> <VdW12>
5.830

> <Bond>
0.172

> <Angle>
1.207

> <Pdih>
1.025

> <Idih>
0.000

> <Tether>
0.000

$$$$
VeraChem MOL file


 20 19  0  0  0  0  0  0  0  0999 V2000     
   18.0464   18.3187   22.9051 N   0  3  0  0  0  0  0  0  0  0  0  0
   17.8394   19.1878   23.4039 H   0  0  0  0  0  0  0  0  0  0  0  0
   18.0274   17.5587   23.5895 H   0  0  0  0  0  0  0  0  0  0  0  0
   17.2813   18.1553   22.2452 H   0  0  0  0  0  0  0  0  0  0  0  0
   19.3748   18.3947   22.2025 C   0  0  2  0  0  0  0  0  0  0  0  0
   19.3083   19.2246   21.4925 H   0  0  0  0  0  0  0  0  0  0  0  0
   19.6434   17.1062   21.4080 C   0  0  0  0  0  0  0  0  0  0  0  0
   18.8378   16.9192   20.6874 H   0  0  0  0  0  0  0  0  0  0  0  0
   19.7155   16.2367   22.0732 H   0  0  0  0  0  0  0  0  0  0  0  0
   20.5817   17.1841   20.8448 H   0  0  0  0  0  0  0  0  0  0  0  0
   20.5420   18.6808   23.1744 C   0  0  0  0  0  0  0  0  0  0  0  0
   20.6356   17.8497   23.8860 H   0  0  0  0  0  0  0  0  0  0  0  0
   21.4817   18.7053   22.6067 H   0  0  0  0  0  0  0  0  0  0  0  0
   20.4023   20.0085   23.9614 C   0  0  0  0  0  0  0  0  0  0  0  0
   21.2724   20.1189   24.6238 H   0  0  0  0  0  0  0  0  0  0  0  0
   19.5246   19.9690   24.6207 H   0  0  0  0  0  0  0  0  0  0  0  0
   20.3105   21.2496   23.0445 C   0  0  0  0  0  0  0  0  0  0  0  0
   21.1785   21.3107   22.3752 H   0  0  0  0  0  0  0  0  0  0  0  0
   20.2848   22.1691   23.6436 H   0  0  0  0  0  0  0  0  0  0  0  0
   19.4029   21.2315   22.4281 H   0  0  0  0  0  0  0  0  0  0  0  0
  1  2  1  0  0  0  0
  1  3  1  0  0  0  0
  1  4  1  0  0  0  0
  1  5  1  0  0  0  0
  5  6  1  0  0  0  0
  5  7  1  0  0  0  0
  7  8  1  0  0  0  0
  7  9  1  0  0  0  0
  7 10  1  0  0  0  0
  5 11  1  0  0  0  0
 11 12  1  0  0  0  0
 11 13  1  0  0  0  0
 11 14  1  0  0  0  0
 14 15  1  0  0  0  0
 14 16  1  0  0  0  0
 14 17  1  0  0  0  0
 17 18  1  0  0  0  0
 17 19  1  0  0  0  0
 17 20  1  0  0  0  0
M  END
> <VConfSearch Rank>
316

> <Conf_Id>
50

> <Delta U+W>
0.466

> <U+W>
-35.811

> <U>
22.369

> <W>
-58.180

> <W(PB)>
-60.103

> <W(SA)>
1.923

> <Valence>
2.168

> <Coulomb>
19.636

> <VdW>
0.566

> <VdW6>
-5.263

> <VdW12>
5.829

> <Bond>
0.162

> <Angle>
1.066

> <Pdih>
0.939

> <Idih>
0.000

> <Tether>
0.000

$$$$
VeraChem MOL file


 20 19  0  0  0  0  0  0  0  0999 V2000     
   20.5977   20.9687   22.2993 N   0  3  0  0  0  0  0  0  0  0  0  0
   20.6821   21.4235   23.2125 H   0  0  0  0  0  0  0  0  0  0  0  0
   19.8940   21.4833   21.7637 H   0  0  0  0  0  0  0  0  0  0  0  0
   21.4934   21.0881   21.8183 H   0  0  0  0  0  0  0  0  0  0  0  0
   20.2350   19.5145   22.4349 C   0  0  2  0  0  0  0  0  0  0  0  0
   21.0373   19.0536   23.0195 H   0  0  0  0  0  0  0  0  0  0  0  0
   20.1920   18.8505   21.0460 C   0  0  0  0  0  0  0  0  0  0  0  0
   19.4301   19.3163   20.4087 H   0  0  0  0  0  0  0  0  0  0  0  0
   19.9631   17.7817   21.1172 H   0  0  0  0  0  0  0  0  0  0  0  0
   21.1610   18.9477   20.5413 H   0  0  0  0  0  0  0  0  0  0  0  0
   18.9053   19.3197   23.2043 C   0  0  0  0  0  0  0  0  0  0  0  0
   18.6656   20.2434   23.7475 H   0  0  0  0  0  0  0  0  0  0  0  0
   18.0748   19.1659   22.5024 H   0  0  0  0  0  0  0  0  0  0  0  0
   18.9442   18.1707   24.2436 C   0  0  0  0  0  0  0  0  0  0  0  0
   17.9907   18.1596   24.7902 H   0  0  0  0  0  0  0  0  0  0  0  0
   19.7221   18.3783   24.9918 H   0  0  0  0  0  0  0  0  0  0  0  0
   19.1821   16.7724   23.6316 C   0  0  0  0  0  0  0  0  0  0  0  0
   18.4451   16.5519   22.8485 H   0  0  0  0  0  0  0  0  0  0  0  0
   19.0932   15.9963   24.4027 H   0  0  0  0  0  0  0  0  0  0  0  0
   20.1867   16.6900   23.1985 H   0  0  0  0  0  0  0  0  0  0  0  0
  1  2  1  0  0  0  0
  1  3  1  0  0  0  0
  1  4  1  0  0  0  0
  1  5  1  0  0  0  0
  5  6  1  0  0  0  0
  5  7  1  0  0  0  0
  7  8  1  0  0  0  0
  7  9  1  0  0  0  0
  7 10  1  0  0  0  0
  5 11  1  0  0  0  0
 11 12  1  0  0  0  0
 11 13  1  0  0  0  0
 11 14  1  0  0  0  0
 14 15  1  0  0  0  0
 14 16  1  0  0  0  0
 14 17  1  0  0  0  0
 17 18  1  0  0  0  0
 17 19  1  0  0  0  0
 17 20  1  0  0  0  0
M  END
> <VConfSearch Rank>
317

> <Conf_Id>
3

> <Delta U+W>
3.093

> <U+W>
-33.184

> <U>
25.256

> <W>
-58.439

> <W(PB)>
-60.337

> <W(SA)>
1.898

> <Valence>
4.963

> <Coulomb>
19.511

> <VdW>
0.782

> <VdW6>
-5.429

> <VdW12>
6.211

> <Bond>
0.174

> <Angle>
1.377

> <Pdih>
3.412

> <Idih>
0.000

> <Tether>
0.000

$$$$
VeraChem MOL file


 20 19  0  0  0  0  0  0  0  0999 V2000     
   18.5895   17.1263   21.9052 N   0  3  0  0  0  0  0  0  0  0  0  0
   18.8205   16.7155   20.9966 H   0  0  0  0  0  0  0  0  0  0  0  0
   17.6147   17.4353   21.8582 H   0  0  0  0  0  0  0  0  0  0  0  0
   18.6400   16.3764   22.5994 H   0  0  0  0  0  0  0  0  0  0  0  0
   19.5158   18.2605   22.2485 C   0  0  2  0  0  0  0  0  0  0  0  0
   19.3963   19.0047   21.4554 H   0  0  0  0  0  0  0  0  0  0  0  0
   20.9776   17.7776   22.2458 C   0  0  0  0  0  0  0  0  0  0  0  0
   21.6739   18.6170   22.3559 H   0  0  0  0  0  0  0  0  0  0  0  0
   21.2183   17.2786   21.2992 H   0  0  0  0  0  0  0  0  0  0  0  0
   21.1629   17.0678   23.0615 H   0  0  0  0  0  0  0  0  0  0  0  0
   19.1230   18.9166   23.5938 C   0  0  0  0  0  0  0  0  0  0  0  0
   18.0541   19.1657   23.5644 H   0  0  0  0  0  0  0  0  0  0  0  0
   19.2428   18.1848   24.4036 H   0  0  0  0  0  0  0  0  0  0  0  0
   19.9132   20.2014   23.9516 C   0  0  0  0  0  0  0  0  0  0  0  0
   20.9721   19.9636   24.1206 H   0  0  0  0  0  0  0  0  0  0  0  0
   19.5371   20.5909   24.9080 H   0  0  0  0  0  0  0  0  0  0  0  0
   19.7908   21.3067   22.8781 C   0  0  0  0  0  0  0  0  0  0  0  0
   18.7393   21.5597   22.6898 H   0  0  0  0  0  0  0  0  0  0  0  0
   20.2454   20.9984   21.9281 H   0  0  0  0  0  0  0  0  0  0  0  0
   20.3014   22.2209   23.2074 H   0  0  0  0  0  0  0  0  0  0  0  0
  1  2  1  0  0  0  0
  1  3  1  0  0  0  0
  1  4  1  0  0  0  0
  1  5  1  0  0  0  0
  5  6  1  0  0  0  0
  5  7  1  0  0  0  0
  7  8  1  0  0  0  0
  7  9  1  0  0  0  0
  7 10  1  0  0  0  0
  5 11  1  0  0  0  0
 11 12  1  0  0  0  0
 11 13  1  0  0  0  0
 11 14  1  0  0  0  0
 14 15  1  0  0  0  0
 14 16  1  0  0  0  0
 14 17  1  0  0  0  0
 17 18  1  0  0  0  0
 17 19  1  0  0  0  0
 17 20  1  0  0  0  0
M  END
> <VConfSearch Rank>
318

> <Conf_Id>
64

> <Delta U+W>
0.544

> <U+W>
-35.732

> <U>
22.800

> <W>
-58.532

> <W(PB)>
-60.437

> <W(SA)>
1.905

> <Valence>
2.662

> <Coulomb>
19.485

> <VdW>
0.653

> <VdW6>
-5.460

> <VdW12>
6.113

> <Bond>
0.174

> <Angle>
1.378

> <Pdih>
1.109

> <Idih>
0.000

> <Tether>
0.000

$$$$
VeraChem MOL file


 20 19  0  0  0  0  0  0  0  0999 V2000     
   17.8302   19.5480   22.2014 N   0  3  0  0  0  0  0  0  0  0  0  0
   18.3401   19.7440   21.3372 H   0  0  0  0  0  0  0  0  0  0  0  0
   17.2729   20.3776   22.4223 H   0  0  0  0  0  0  0  0  0  0  0  0
   17.1756   18.7859   22.0057 H   0  0  0  0  0  0  0  0  0  0  0  0
   18.7666   19.1984   23.3264 C   0  0  2  0  0  0  0  0  0  0  0  0
   18.1314   19.0193   24.1996 H   0  0  0  0  0  0  0  0  0  0  0  0
   19.6859   20.3839   23.6629 C   0  0  0  0  0  0  0  0  0  0  0  0
   20.2596   20.7084   22.7869 H   0  0  0  0  0  0  0  0  0  0  0  0
   20.3884   20.1193   24.4627 H   0  0  0  0  0  0  0  0  0  0  0  0
   19.0947   21.2403   24.0095 H   0  0  0  0  0  0  0  0  0  0  0  0
   19.5461   17.8863   23.0585 C   0  0  0  0  0  0  0  0  0  0  0  0
   20.0766   17.5850   23.9713 H   0  0  0  0  0  0  0  0  0  0  0  0
   18.8055   17.0953   22.8815 H   0  0  0  0  0  0  0  0  0  0  0  0
   20.5329   17.9066   21.8580 C   0  0  0  0  0  0  0  0  0  0  0  0
   20.1790   18.5856   21.0712 H   0  0  0  0  0  0  0  0  0  0  0  0
   20.5469   16.9054   21.4048 H   0  0  0  0  0  0  0  0  0  0  0  0
   21.9841   18.2641   22.2568 C   0  0  0  0  0  0  0  0  0  0  0  0
   22.0608   19.2723   22.6783 H   0  0  0  0  0  0  0  0  0  0  0  0
   22.6438   18.2215   21.3805 H   0  0  0  0  0  0  0  0  0  0  0  0
   22.3734   17.5559   22.9997 H   0  0  0  0  0  0  0  0  0  0  0  0
  1  2  1  0  0  0  0
  1  3  1  0  0  0  0
  1  4  1  0  0  0  0
  1  5  1  0  0  0  0
  5  6  1  0  0  0  0
  5  7  1  0  0  0  0
  7  8  1  0  0  0  0
  7  9  1  0  0  0  0
  7 10  1  0  0  0  0
  5 11  1  0  0  0  0
 11 12  1  0  0  0  0
 11 13  1  0  0  0  0
 11 14  1  0  0  0  0
 14 15  1  0  0  0  0
 14 16  1  0  0  0  0
 14 17  1  0  0  0  0
 17 18  1  0  0  0  0
 17 19  1  0  0  0  0
 17 20  1  0  0  0  0
M  END
> <VConfSearch Rank>
319

> <Conf_Id>
35

> <Delta U+W>
3.004

> <U+W>
-33.272

> <U>
25.367

> <W>
-58.639

> <W(PB)>
-60.512

> <W(SA)>
1.873

> <Valence>
4.943

> <Coulomb>
19.661

> <VdW>
0.764

> <VdW6>
-5.871

> <VdW12>
6.636

> <Bond>
0.230

> <Angle>
1.857

> <Pdih>
2.855

> <Idih>
0.000

> <Tether>
0.000

$$$$
VeraChem MOL file


 20 19  0  0  0  0  0  0  0  0999 V2000     
   19.3406   17.2525   22.8155 N   0  3  0  0  0  0  0  0  0  0  0  0
   19.5769   16.4328   23.3811 H   0  0  0  0  0  0  0  0  0  0  0  0
   18.8787   16.9143   21.9671 H   0  0  0  0  0  0  0  0  0  0  0  0
   18.6561   17.8027   23.3378 H   0  0  0  0  0  0  0  0  0  0  0  0
   20.5612   18.0690   22.4899 C   0  0  2  0  0  0  0  0  0  0  0  0
   21.2105   17.4017   21.9147 H   0  0  0  0  0  0  0  0  0  0  0  0
   21.3269   18.4669   23.7643 C   0  0  0  0  0  0  0  0  0  0  0  0
   20.7042   19.0640   24.4410 H   0  0  0  0  0  0  0  0  0  0  0  0
   22.2214   19.0506   23.5142 H   0  0  0  0  0  0  0  0  0  0  0  0
   21.6545   17.5739   24.3103 H   0  0  0  0  0  0  0  0  0  0  0  0
   20.2526   19.2867   21.5815 C   0  0  0  0  0  0  0  0  0  0  0  0
   21.2021   19.6263   21.1471 H   0  0  0  0  0  0  0  0  0  0  0  0
   19.6471   18.9504   20.7297 H   0  0  0  0  0  0  0  0  0  0  0  0
   19.5675   20.5150   22.2438 C   0  0  0  0  0  0  0  0  0  0  0  0
   19.4632   21.2980   21.4798 H   0  0  0  0  0  0  0  0  0  0  0  0
   20.2192   20.9436   23.0173 H   0  0  0  0  0  0  0  0  0  0  0  0
   18.1703   20.2308   22.8404 C   0  0  0  0  0  0  0  0  0  0  0  0
   17.5227   19.7229   22.1139 H   0  0  0  0  0  0  0  0  0  0  0  0
   17.6794   21.1713   23.1227 H   0  0  0  0  0  0  0  0  0  0  0  0
   18.2354   19.6181   23.7469 H   0  0  0  0  0  0  0  0  0  0  0  0
  1  2  1  0  0  0  0
  1  3  1  0  0  0  0
  1  4  1  0  0  0  0
  1  5  1  0  0  0  0
  5  6  1  0  0  0  0
  5  7  1  0  0  0  0
  7  8  1  0  0  0  0
  7  9  1  0  0  0  0
  7 10  1  0  0  0  0
  5 11  1  0  0  0  0
 11 12  1  0  0  0  0
 11 13  1  0  0  0  0
 11 14  1  0  0  0  0
 14 15  1  0  0  0  0
 14 16  1  0  0  0  0
 14 17  1  0  0  0  0
 17 18  1  0  0  0  0
 17 19  1  0  0  0  0
 17 20  1  0  0  0  0
M  END
> <VConfSearch Rank>
320

> <Conf_Id>
55

> <Delta U+W>
2.767

> <U+W>
-33.509

> <U>
24.552

> <W>
-58.061

> <W(PB)>
-59.930

> <W(SA)>
1.869

> <Valence>
3.726

> <Coulomb>
20.219

> <VdW>
0.606

> <VdW6>
-6.395

> <VdW12>
7.001

> <Bond>
0.241

> <Angle>
2.098

> <Pdih>
1.387

> <Idih>
0.000

> <Tether>
0.000

$$$$
VeraChem MOL file


 20 19  0  0  0  0  0  0  0  0999 V2000     
   19.2299   18.1925   24.4615 N   0  3  0  0  0  0  0  0  0  0  0  0
   19.6227   17.2586   24.3201 H   0  0  0  0  0  0  0  0  0  0  0  0
   18.4838   18.1077   25.1570 H   0  0  0  0  0  0  0  0  0  0  0  0
   19.9632   18.7757   24.8724 H   0  0  0  0  0  0  0  0  0  0  0  0
   18.7174   18.7762   23.1724 C   0  0  2  0  0  0  0  0  0  0  0  0
   18.3220   19.7684   23.4112 H   0  0  0  0  0  0  0  0  0  0  0  0
   17.5681   17.9224   22.6122 C   0  0  0  0  0  0  0  0  0  0  0  0
   16.7577   17.8321   23.3460 H   0  0  0  0  0  0  0  0  0  0  0  0
   17.9115   16.9122   22.3564 H   0  0  0  0  0  0  0  0  0  0  0  0
   17.1475   18.3793   21.7078 H   0  0  0  0  0  0  0  0  0  0  0  0
   19.8290   18.9419   22.1126 C   0  0  0  0  0  0  0  0  0  0  0  0
   20.2598   17.9609   21.8720 H   0  0  0  0  0  0  0  0  0  0  0  0
   19.3803   19.3224   21.1852 H   0  0  0  0  0  0  0  0  0  0  0  0
   20.9508   19.9109   22.5579 C   0  0  0  0  0  0  0  0  0  0  0  0
   21.4541   19.5232   23.4539 H   0  0  0  0  0  0  0  0  0  0  0  0
   20.5142   20.8815   22.8327 H   0  0  0  0  0  0  0  0  0  0  0  0
   21.9992   20.1193   21.4440 C   0  0  0  0  0  0  0  0  0  0  0  0
   22.4762   19.1698   21.1679 H   0  0  0  0  0  0  0  0  0  0  0  0
   22.7871   20.8073   21.7770 H   0  0  0  0  0  0  0  0  0  0  0  0
   21.5396   20.5456   20.5427 H   0  0  0  0  0  0  0  0  0  0  0  0
  1  2  1  0  0  0  0
  1  3  1  0  0  0  0
  1  4  1  0  0  0  0
  1  5  1  0  0  0  0
  5  6  1  0  0  0  0
  5  7  1  0  0  0  0
  7  8  1  0  0  0  0
  7  9  1  0  0  0  0
  7 10  1  0  0  0  0
  5 11  1  0  0  0  0
 11 12  1  0  0  0  0
 11 13  1  0  0  0  0
 11 14  1  0  0  0  0
 14 15  1  0  0  0  0
 14 16  1  0  0  0  0
 14 17  1  0  0  0  0
 17 18  1  0  0  0  0
 17 19  1  0  0  0  0
 17 20  1  0  0  0  0
M  END
> <VConfSearch Rank>
321

> <Conf_Id>
74

> <Delta U+W>
0.000

> <U+W>
-36.276

> <U>
22.080

> <W>
-58.356

> <W(PB)>
-60.289

> <W(SA)>
1.932

> <Valence>
1.885

> <Coulomb>
19.559

> <VdW>
0.637

> <VdW6>
-4.482

> <VdW12>
5.119

> <Bond>
0.136

> <Angle>
0.867

> <Pdih>
0.882

> <Idih>
0.000

> <Tether>
0.000

$$$$
VeraChem MOL file


 20 19  0  0  0  0  0  0  0  0999 V2000     
   18.8211   20.2458   20.9448 N   0  3  0  0  0  0  0  0  0  0  0  0
   17.9624   19.7323   20.7284 H   0  0  0  0  0  0  0  0  0  0  0  0
   19.5079   20.0121   20.2234 H   0  0  0  0  0  0  0  0  0  0  0  0
   18.6087   21.2427   20.8511 H   0  0  0  0  0  0  0  0  0  0  0  0
   19.3323   19.9187   22.3212 C   0  0  2  0  0  0  0  0  0  0  0  0
   18.5391   20.2026   23.0199 H   0  0  0  0  0  0  0  0  0  0  0  0
   20.5836   20.7576   22.6393 C   0  0  0  0  0  0  0  0  0  0  0  0
   20.3866   21.8237   22.4726 H   0  0  0  0  0  0  0  0  0  0  0  0
   21.4296   20.4652   22.0051 H   0  0  0  0  0  0  0  0  0  0  0  0
   20.8842   20.6447   23.6872 H   0  0  0  0  0  0  0  0  0  0  0  0
   19.5924   18.4021   22.4754 C   0  0  0  0  0  0  0  0  0  0  0  0
   18.7015   17.8601   22.1315 H   0  0  0  0  0  0  0  0  0  0  0  0
   20.4149   18.0989   21.8140 H   0  0  0  0  0  0  0  0  0  0  0  0
   19.9029   17.9653   23.9279 C   0  0  0  0  0  0  0  0  0  0  0  0
   19.1106   18.3236   24.6002 H   0  0  0  0  0  0  0  0  0  0  0  0
   20.8417   18.4207   24.2705 H   0  0  0  0  0  0  0  0  0  0  0  0
   20.0207   16.4306   24.0485 C   0  0  0  0  0  0  0  0  0  0  0  0
   19.0846   15.9375   23.7555 H   0  0  0  0  0  0  0  0  0  0  0  0
   20.2445   16.1390   25.0829 H   0  0  0  0  0  0  0  0  0  0  0  0
   20.8251   16.0448   23.4086 H   0  0  0  0  0  0  0  0  0  0  0  0
  1  2  1  0  0  0  0
  1  3  1  0  0  0  0
  1  4  1  0  0  0  0
  1  5  1  0  0  0  0
  5  6  1  0  0  0  0
  5  7  1  0  0  0  0
  7  8  1  0  0  0  0
  7  9  1  0  0  0  0
  7 10  1  0  0  0  0
  5 11  1  0  0  0  0
 11 12  1  0  0  0  0
 11 13  1  0  0  0  0
 11 14  1  0  0  0  0
 14 15  1  0  0  0  0
 14 16  1  0  0  0  0
 14 17  1  0  0  0  0
 17 18  1  0  0  0  0
 17 19  1  0  0  0  0
 17 20  1  0  0  0  0
M  END
> <VConfSearch Rank>
322

> <Conf_Id>
80

> <Delta U+W>
0.460

> <U+W>
-35.817

> <U>
22.495

> <W>
-58.311

> <W(PB)>
-60.259

> <W(SA)>
1.948

> <Valence>
2.419

> <Coulomb>
19.304

> <VdW>
0.772

> <VdW6>
-4.635

> <VdW12>
5.407

> <Bond>
0.149

> <Angle>
1.142

> <Pdih>
1.129

> <Idih>
0.000

> <Tether>
0.000

$$$$
VeraChem MOL file


 20 19  0  0  0  0  0  0  0  0999 V2000     
   17.3782   19.2250   22.8125 N   0  3  0  0  0  0  0  0  0  0  0  0
   17.1186   19.8302   23.5963 H   0  0  0  0  0  0  0  0  0  0  0  0
   17.1613   18.2626   23.0835 H   0  0  0  0  0  0  0  0  0  0  0  0
   16.7654   19.4658   22.0289 H   0  0  0  0  0  0  0  0  0  0  0  0
   18.8286   19.3817   22.4457 C   0  0  2  0  0  0  0  0  0  0  0  0
   18.9622   20.4316   22.1671 H   0  0  0  0  0  0  0  0  0  0  0  0
   19.1642   18.5154   21.2197 C   0  0  0  0  0  0  0  0  0  0  0  0
   18.4418   18.6893   20.4128 H   0  0  0  0  0  0  0  0  0  0  0  0
   19.1456   17.4474   21.4696 H   0  0  0  0  0  0  0  0  0  0  0  0
   20.1550   18.7641   20.8227 H   0  0  0  0  0  0  0  0  0  0  0  0
   19.7437   19.0869   23.6594 C   0  0  0  0  0  0  0  0  0  0  0  0
   19.4054   19.7220   24.4888 H   0  0  0  0  0  0  0  0  0  0  0  0
   19.6021   18.0524   23.9989 H   0  0  0  0  0  0  0  0  0  0  0  0
   21.2510   19.3746   23.4291 C   0  0  0  0  0  0  0  0  0  0  0  0
   21.6760   19.7806   24.3579 H   0  0  0  0  0  0  0  0  0  0  0  0
   21.3787   20.1605   22.6714 H   0  0  0  0  0  0  0  0  0  0  0  0
   22.0652   18.1170   23.0438 C   0  0  0  0  0  0  0  0  0  0  0  0
   22.0048   17.3546   23.8313 H   0  0  0  0  0  0  0  0  0  0  0  0
   23.1245   18.3718   22.9090 H   0  0  0  0  0  0  0  0  0  0  0  0
   21.7116   17.6655   22.1102 H   0  0  0  0  0  0  0  0  0  0  0  0
  1  2  1  0  0  0  0
  1  3  1  0  0  0  0
  1  4  1  0  0  0  0
  1  5  1  0  0  0  0
  5  6  1  0  0  0  0
  5  7  1  0  0  0  0
  7  8  1  0  0  0  0
  7  9  1  0  0  0  0
  7 10  1  0  0  0  0
  5 11  1  0  0  0  0
 11 12  1  0  0  0  0
 11 13  1  0  0  0  0
 11 14  1  0  0  0  0
 14 15  1  0  0  0  0
 14 16  1  0  0  0  0
 14 17  1  0  0  0  0
 17 18  1  0  0  0  0
 17 19  1  0  0  0  0
 17 20  1  0  0  0  0
M  END
> <VConfSearch Rank>
323

> <Conf_Id>
52

> <Delta U+W>
2.995

> <U+W>
-33.282

> <U>
25.224

> <W>
-58.506

> <W(PB)>
-60.411

> <W(SA)>
1.905

> <Valence>
4.945

> <Coulomb>
19.467

> <VdW>
0.813

> <VdW6>
-5.458

> <VdW12>
6.270

> <Bond>
0.200

> <Angle>
1.675

> <Pdih>
3.070

> <Idih>
0.000

> <Tether>
0.000

$$$$
VeraChem MOL file


 20 19  0  0  0  0  0  0  0  0999 V2000     
   20.3150   20.2099   21.8010 N   0  3  0  0  0  0  0  0  0  0  0  0
   21.2410   20.4247   22.1789 H   0  0  0  0  0  0  0  0  0  0  0  0
   20.0051   21.0266   21.2676 H   0  0  0  0  0  0  0  0  0  0  0  0
   20.4253   19.4350   21.1434 H   0  0  0  0  0  0  0  0  0  0  0  0
   19.3428   19.8632   22.8955 C   0  0  2  0  0  0  0  0  0  0  0  0
   18.3707   19.6949   22.4216 H   0  0  0  0  0  0  0  0  0  0  0  0
   19.2058   21.0485   23.8660 C   0  0  0  0  0  0  0  0  0  0  0  0
   20.1527   21.2506   24.3822 H   0  0  0  0  0  0  0  0  0  0  0  0
   18.4394   20.8464   24.6246 H   0  0  0  0  0  0  0  0  0  0  0  0
   18.9079   21.9578   23.3296 H   0  0  0  0  0  0  0  0  0  0  0  0
   19.7376   18.5795   23.6640 C   0  0  0  0  0  0  0  0  0  0  0  0
   20.8014   18.6166   23.9333 H   0  0  0  0  0  0  0  0  0  0  0  0
   19.1884   18.5580   24.6148 H   0  0  0  0  0  0  0  0  0  0  0  0
   19.4200   17.2542   22.9228 C   0  0  0  0  0  0  0  0  0  0  0  0
   18.3451   17.2038   22.6988 H   0  0  0  0  0  0  0  0  0  0  0  0
   19.6250   16.4207   23.6093 H   0  0  0  0  0  0  0  0  0  0  0  0
   20.2285   17.0258   21.6254 C   0  0  0  0  0  0  0  0  0  0  0  0
   20.0988   15.9935   21.2751 H   0  0  0  0  0  0  0  0  0  0  0  0
   21.3018   17.1882   21.7896 H   0  0  0  0  0  0  0  0  0  0  0  0
   19.8883   17.6822   20.8161 H   0  0  0  0  0  0  0  0  0  0  0  0
  1  2  1  0  0  0  0
  1  3  1  0  0  0  0
  1  4  1  0  0  0  0
  1  5  1  0  0  0  0
  5  6  1  0  0  0  0
  5  7  1  0  0  0  0
  7  8  1  0  0  0  0
  7  9  1  0  0  0  0
  7 10  1  0  0  0  0
  5 11  1  0  0  0  0
 11 12  1  0  0  0  0
 11 13  1  0  0  0  0
 11 14  1  0  0  0  0
 14 15  1  0  0  0  0
 14 16  1  0  0  0  0
 14 17  1  0  0  0  0
 17 18  1  0  0  0  0
 17 19  1  0  0  0  0
 17 20  1  0  0  0  0
M  END
> <VConfSearch Rank>
324

> <Conf_Id>
54

> <Delta U+W>
2.752

> <U+W>
-33.525

> <U>
24.337

> <W>
-57.862

> <W(PB)>
-59.764

> <W(SA)>
1.901

> <Valence>
3.593

> <Coulomb>
20.067

> <VdW>
0.677

> <VdW6>
-5.466

> <VdW12>
6.144

> <Bond>
0.191

> <Angle>
1.557

> <Pdih>
1.845

> <Idih>
0.000

> <Tether>
0.000

$$$$
VeraChem MOL file


 20 19  0  0  0  0  0  0  0  0999 V2000     
   18.4891   20.2093   23.7400 N   0  3  0  0  0  0  0  0  0  0  0  0
   17.5420   20.5963   23.7685 H   0  0  0  0  0  0  0  0  0  0  0  0
   19.1143   20.9058   24.1543 H   0  0  0  0  0  0  0  0  0  0  0  0
   18.5010   19.3862   24.3464 H   0  0  0  0  0  0  0  0  0  0  0  0
   18.9004   19.8631   22.3347 C   0  0  2  0  0  0  0  0  0  0  0  0
   18.8404   20.7948   21.7635 H   0  0  0  0  0  0  0  0  0  0  0  0
   17.9148   18.8659   21.6998 C   0  0  0  0  0  0  0  0  0  0  0  0
   18.2191   18.6147   20.6762 H   0  0  0  0  0  0  0  0  0  0  0  0
   16.9088   19.3001   21.6498 H   0  0  0  0  0  0  0  0  0  0  0  0
   17.8493   17.9361   22.2771 H   0  0  0  0  0  0  0  0  0  0  0  0
   20.3643   19.3680   22.2503 C   0  0  0  0  0  0  0  0  0  0  0  0
   20.6266   19.2205   21.1943 H   0  0  0  0  0  0  0  0  0  0  0  0
   21.0225   20.1675   22.6150 H   0  0  0  0  0  0  0  0  0  0  0  0
   20.6613   18.0659   23.0380 C   0  0  0  0  0  0  0  0  0  0  0  0
   20.0485   17.2401   22.6524 H   0  0  0  0  0  0  0  0  0  0  0  0
   20.3953   18.1934   24.0959 H   0  0  0  0  0  0  0  0  0  0  0  0
   22.1504   17.6708   22.9381 C   0  0  0  0  0  0  0  0  0  0  0  0
   22.3448   16.7469   23.4983 H   0  0  0  0  0  0  0  0  0  0  0  0
   22.7965   18.4565   23.3509 H   0  0  0  0  0  0  0  0  0  0  0  0
   22.4446   17.4995   21.8944 H   0  0  0  0  0  0  0  0  0  0  0  0
  1  2  1  0  0  0  0
  1  3  1  0  0  0  0
  1  4  1  0  0  0  0
  1  5  1  0  0  0  0
  5  6  1  0  0  0  0
  5  7  1  0  0  0  0
  7  8  1  0  0  0  0
  7  9  1  0  0  0  0
  7 10  1  0  0  0  0
  5 11  1  0  0  0  0
 11 12  1  0  0  0  0
 11 13  1  0  0  0  0
 11 14  1  0  0  0  0
 14 15  1  0  0  0  0
 14 16  1  0  0  0  0
 14 17  1  0  0  0  0
 17 18  1  0  0  0  0
 17 19  1  0  0  0  0
 17 20  1  0  0  0  0
M  END
> <VConfSearch Rank>
325

> <Conf_Id>
63

> <Delta U+W>
0.420

> <U+W>
-35.856

> <U>
22.625

> <W>
-58.481

> <W(PB)>
-60.400

> <W(SA)>
1.919

> <Valence>
2.404

> <Coulomb>
19.464

> <VdW>
0.757

> <VdW6>
-5.074

> <VdW12>
5.830

> <Bond>
0.172

> <Angle>
1.207

> <Pdih>
1.025

> <Idih>
0.000

> <Tether>
0.000

$$$$
VeraChem MOL file


 20 19  0  0  0  0  0  0  0  0999 V2000     
   19.8872   18.7927   24.5114 N   0  3  0  0  0  0  0  0  0  0  0  0
   19.1635   19.5128   24.5789 H   0  0  0  0  0  0  0  0  0  0  0  0
   20.7691   19.2128   24.8149 H   0  0  0  0  0  0  0  0  0  0  0  0
   19.6509   18.0580   25.1838 H   0  0  0  0  0  0  0  0  0  0  0  0
   19.9884   18.2487   23.1122 C   0  0  2  0  0  0  0  0  0  0  0  0
   19.0118   17.8189   22.8702 H   0  0  0  0  0  0  0  0  0  0  0  0
   21.0360   17.1257   23.0405 C   0  0  0  0  0  0  0  0  0  0  0  0
   20.7941   16.3232   23.7481 H   0  0  0  0  0  0  0  0  0  0  0  0
   22.0387   17.5014   23.2798 H   0  0  0  0  0  0  0  0  0  0  0  0
   21.0670   16.6852   22.0363 H   0  0  0  0  0  0  0  0  0  0  0  0
   20.3054   19.3474   22.0723 C   0  0  0  0  0  0  0  0  0  0  0  0
   21.2910   19.7805   22.2889 H   0  0  0  0  0  0  0  0  0  0  0  0
   20.3848   18.8866   21.0787 H   0  0  0  0  0  0  0  0  0  0  0  0
   19.2546   20.4849   22.0099 C   0  0  0  0  0  0  0  0  0  0  0  0
   19.5690   21.2139   21.2498 H   0  0  0  0  0  0  0  0  0  0  0  0
   19.2308   21.0329   22.9615 H   0  0  0  0  0  0  0  0  0  0  0  0
   17.8354   19.9803   21.6627 C   0  0  0  0  0  0  0  0  0  0  0  0
   17.8341   19.4285   20.7137 H   0  0  0  0  0  0  0  0  0  0  0  0
   17.1417   20.8248   21.5594 H   0  0  0  0  0  0  0  0  0  0  0  0
   17.4380   19.3200   22.4437 H   0  0  0  0  0  0  0  0  0  0  0  0
  1  2  1  0  0  0  0
  1  3  1  0  0  0  0
  1  4  1  0  0  0  0
  1  5  1  0  0  0  0
  5  6  1  0  0  0  0
  5  7  1  0  0  0  0
  7  8  1  0  0  0  0
  7  9  1  0  0  0  0
  7 10  1  0  0  0  0
  5 11  1  0  0  0  0
 11 12  1  0  0  0  0
 11 13  1  0  0  0  0
 11 14  1  0  0  0  0
 14 15  1  0  0  0  0
 14 16  1  0  0  0  0
 14 17  1  0  0  0  0
 17 18  1  0  0  0  0
 17 19  1  0  0  0  0
 17 20  1  0  0  0  0
M  END
> <VConfSearch Rank>
326

> <Conf_Id>
50

> <Delta U+W>
0.466

> <U+W>
-35.811

> <U>
22.369

> <W>
-58.180

> <W(PB)>
-60.103

> <W(SA)>
1.923

> <Valence>
2.168

> <Coulomb>
19.636

> <VdW>
0.566

> <VdW6>
-5.263

> <VdW12>
5.829

> <Bond>
0.162

> <Angle>
1.066

> <Pdih>
0.939

> <Idih>
0.000

> <Tether>
0.000

$$$$
VeraChem MOL file


 20 19  0  0  0  0  0  0  0  0999 V2000     
   18.7200   19.9530   24.5672 N   0  3  0  0  0  0  0  0  0  0  0  0
   18.7332   19.2543   25.3153 H   0  0  0  0  0  0  0  0  0  0  0  0
   17.7414   20.1182   24.3184 H   0  0  0  0  0  0  0  0  0  0  0  0
   19.0851   20.8243   24.9611 H   0  0  0  0  0  0  0  0  0  0  0  0
   19.5253   19.5068   23.3768 C   0  0  2  0  0  0  0  0  0  0  0  0
   20.5464   19.3538   23.7398 H   0  0  0  0  0  0  0  0  0  0  0  0
   19.5424   20.6147   22.3071 C   0  0  0  0  0  0  0  0  0  0  0  0
   18.5289   20.8337   21.9488 H   0  0  0  0  0  0  0  0  0  0  0  0
   20.1507   20.3300   21.4418 H   0  0  0  0  0  0  0  0  0  0  0  0
   19.9641   21.5407   22.7168 H   0  0  0  0  0  0  0  0  0  0  0  0
   19.0120   18.1636   22.8020 C   0  0  0  0  0  0  0  0  0  0  0  0
   18.3777   17.6712   23.5509 H   0  0  0  0  0  0  0  0  0  0  0  0
   18.3618   18.3408   21.9349 H   0  0  0  0  0  0  0  0  0  0  0  0
   20.1401   17.1691   22.4278 C   0  0  0  0  0  0  0  0  0  0  0  0
   19.6817   16.2236   22.1057 H   0  0  0  0  0  0  0  0  0  0  0  0
   20.7322   16.9315   23.3228 H   0  0  0  0  0  0  0  0  0  0  0  0
   21.0805   17.6713   21.3099 C   0  0  0  0  0  0  0  0  0  0  0  0
   20.5140   17.9580   20.4144 H   0  0  0  0  0  0  0  0  0  0  0  0
   21.7872   16.8828   21.0204 H   0  0  0  0  0  0  0  0  0  0  0  0
   21.6710   18.5348   21.6405 H   0  0  0  0  0  0  0  0  0  0  0  0
  1  2  1  0  0  0  0
  1  3  1  0  0  0  0
  1  4  1  0  0  0  0
  1  5  1  0  0  0  0
  5  6  1  0  0  0  0
  5  7  1  0  0  0  0
  7  8  1  0  0  0  0
  7  9  1  0  0  0  0
  7 10  1  0  0  0  0
  5 11  1  0  0  0  0
 11 12  1  0  0  0  0
 11 13  1  0  0  0  0
 11 14  1  0  0  0  0
 14 15  1  0  0  0  0
 14 16  1  0  0  0  0
 14 17  1  0  0  0  0
 17 18  1  0  0  0  0
 17 19  1  0  0  0  0
 17 20  1  0  0  0  0
M  END
> <VConfSearch Rank>
327

> <Conf_Id>
3

> <Delta U+W>
3.093

> <U+W>
-33.184

> <U>
25.256

> <W>
-58.439

> <W(PB)>
-60.337

> <W(SA)>
1.898

> <Valence>
4.963

> <Coulomb>
19.511

> <VdW>
0.782

> <VdW6>
-5.429

> <VdW12>
6.211

> <Bond>
0.174

> <Angle>
1.377

> <Pdih>
3.412

> <Idih>
0.000

> <Tether>
0.000

$$$$
VeraChem MOL file


 20 19  0  0  0  0  0  0  0  0999 V2000     
   18.7945   18.1775   20.8026 N   0  3  0  0  0  0  0  0  0  0  0  0
   17.9486   17.6031   20.7567 H   0  0  0  0  0  0  0  0  0  0  0  0
   19.5566   17.6263   20.3985 H   0  0  0  0  0  0  0  0  0  0  0  0
   18.6458   18.9866   20.1944 H   0  0  0  0  0  0  0  0  0  0  0  0
   19.1001   18.5962   22.2146 C   0  0  2  0  0  0  0  0  0  0  0  0
   19.2383   17.6729   22.7850 H   0  0  0  0  0  0  0  0  0  0  0  0
   17.9089   19.3649   22.8148 C   0  0  0  0  0  0  0  0  0  0  0  0
   18.0569   19.5558   23.8841 H   0  0  0  0  0  0  0  0  0  0  0  0
   16.9837   18.7844   22.7140 H   0  0  0  0  0  0  0  0  0  0  0  0
   17.7631   20.3281   22.3104 H   0  0  0  0  0  0  0  0  0  0  0  0
   20.4131   19.4121   22.2850 C   0  0  0  0  0  0  0  0  0  0  0  0
   21.2043   18.8494   21.7723 H   0  0  0  0  0  0  0  0  0  0  0  0
   20.2907   20.3468   21.7219 H   0  0  0  0  0  0  0  0  0  0  0  0
   20.9018   19.7447   23.7181 C   0  0  0  0  0  0  0  0  0  0  0  0
   20.1930   20.4201   24.2159 H   0  0  0  0  0  0  0  0  0  0  0  0
   21.8468   20.3012   23.6472 H   0  0  0  0  0  0  0  0  0  0  0  0
   21.1253   18.4875   24.5890 C   0  0  0  0  0  0  0  0  0  0  0  0
   21.8294   17.7949   24.1097 H   0  0  0  0  0  0  0  0  0  0  0  0
   20.1857   17.9507   24.7711 H   0  0  0  0  0  0  0  0  0  0  0  0
   21.5417   18.7655   25.5659 H   0  0  0  0  0  0  0  0  0  0  0  0
  1  2  1  0  0  0  0
  1  3  1  0  0  0  0
  1  4  1  0  0  0  0
  1  5  1  0  0  0  0
  5  6  1  0  0  0  0
  5  7  1  0  0  0  0
  7  8  1  0  0  0  0
  7  9  1  0  0  0  0
  7 10  1  0  0  0  0
  5 11  1  0  0  0  0
 11 12  1  0  0  0  0
 11 13  1  0  0  0  0
 11 14  1  0  0  0  0
 14 15  1  0  0  0  0
 14 16  1  0  0  0  0
 14 17  1  0  0  0  0
 17 18  1  0  0  0  0
 17 19  1  0  0  0  0
 17 20  1  0  0  0  0
M  END
> <VConfSearch Rank>
328

> <Conf_Id>
64

> <Delta U+W>
0.544

> <U+W>
-35.732

> <U>
22.800

> <W>
-58.532

> <W(PB)>
-60.437

> <W(SA)>
1.905

> <Valence>
2.662

> <Coulomb>
19.485

> <VdW>
0.653

> <VdW6>
-5.460

> <VdW12>
6.113

> <Bond>
0.174

> <Angle>
1.378

> <Pdih>
1.109

> <Idih>
0.000

> <Tether>
0.000

$$$$
VeraChem MOL file


 20 19  0  0  0  0  0  0  0  0999 V2000     
   21.8940   19.0116   22.6323 N   0  3  0  0  0  0  0  0  0  0  0  0
   21.6706   19.7767   23.2727 H   0  0  0  0  0  0  0  0  0  0  0  0
   22.5682   19.3704   21.9509 H   0  0  0  0  0  0  0  0  0  0  0  0
   22.3685   18.2852   23.1752 H   0  0  0  0  0  0  0  0  0  0  0  0
   20.6587   18.4800   21.9568 C   0  0  2  0  0  0  0  0  0  0  0  0
   21.0017   17.6817   21.2913 H   0  0  0  0  0  0  0  0  0  0  0  0
   20.0059   19.5605   21.0792 C   0  0  0  0  0  0  0  0  0  0  0  0
   19.7569   20.4549   21.6621 H   0  0  0  0  0  0  0  0  0  0  0  0
   19.0891   19.1822   20.6104 H   0  0  0  0  0  0  0  0  0  0  0  0
   20.6883   19.8654   20.2765 H   0  0  0  0  0  0  0  0  0  0  0  0
   19.6685   17.8370   22.9603 C   0  0  0  0  0  0  0  0  0  0  0  0
   18.8772   17.3144   22.4070 H   0  0  0  0  0  0  0  0  0  0  0  0
   20.2122   17.0492   23.4981 H   0  0  0  0  0  0  0  0  0  0  0  0
   19.0347   18.7935   24.0085 C   0  0  0  0  0  0  0  0  0  0  0  0
   19.7227   19.6116   24.2590 H   0  0  0  0  0  0  0  0  0  0  0  0
   18.8844   18.2330   24.9419 H   0  0  0  0  0  0  0  0  0  0  0  0
   17.6640   19.3645   23.5751 C   0  0  0  0  0  0  0  0  0  0  0  0
   17.7385   19.9771   22.6701 H   0  0  0  0  0  0  0  0  0  0  0  0
   17.2442   19.9967   24.3682 H   0  0  0  0  0  0  0  0  0  0  0  0
   16.9462   18.5573   23.3796 H   0  0  0  0  0  0  0  0  0  0  0  0
  1  2  1  0  0  0  0
  1  3  1  0  0  0  0
  1  4  1  0  0  0  0
  1  5  1  0  0  0  0
  5  6  1  0  0  0  0
  5  7  1  0  0  0  0
  7  8  1  0  0  0  0
  7  9  1  0  0  0  0
  7 10  1  0  0  0  0
  5 11  1  0  0  0  0
 11 12  1  0  0  0  0
 11 13  1  0  0  0  0
 11 14  1  0  0  0  0
 14 15  1  0  0  0  0
 14 16  1  0  0  0  0
 14 17  1  0  0  0  0
 17 18  1  0  0  0  0
 17 19  1  0  0  0  0
 17 20  1  0  0  0  0
M  END
> <VConfSearch Rank>
329

> <Conf_Id>
35

> <Delta U+W>
3.004

> <U+W>
-33.272

> <U>
25.367

> <W>
-58.639

> <W(PB)>
-60.512

> <W(SA)>
1.873

> <Valence>
4.943

> <Coulomb>
19.661

> <VdW>
0.764

> <VdW6>
-5.871

> <VdW12>
6.636

> <Bond>
0.230

> <Angle>
1.857

> <Pdih>
2.855

> <Idih>
0.000

> <Tether>
0.000

$$$$
VeraChem MOL file


 20 19  0  0  0  0  0  0  0  0999 V2000     
   21.1311   18.6809   23.8530 N   0  3  0  0  0  0  0  0  0  0  0  0
   21.4389   17.9476   24.4974 H   0  0  0  0  0  0  0  0  0  0  0  0
   21.6049   19.5457   24.1270 H   0  0  0  0  0  0  0  0  0  0  0  0
   21.4636   18.4325   22.9193 H   0  0  0  0  0  0  0  0  0  0  0  0
   19.6358   18.8418   23.8735 C   0  0  2  0  0  0  0  0  0  0  0  0
   19.3899   19.1296   24.9005 H   0  0  0  0  0  0  0  0  0  0  0  0
   18.9235   17.5076   23.5888 C   0  0  0  0  0  0  0  0  0  0  0  0
   19.1962   17.1046   22.6062 H   0  0  0  0  0  0  0  0  0  0  0  0
   17.8342   17.6341   23.6190 H   0  0  0  0  0  0  0  0  0  0  0  0
   19.1924   16.7595   24.3444 H   0  0  0  0  0  0  0  0  0  0  0  0
   19.1355   19.9864   22.9554 C   0  0  0  0  0  0  0  0  0  0  0  0
   18.1116   20.2360   23.2634 H   0  0  0  0  0  0  0  0  0  0  0  0
   19.7278   20.8885   23.1572 H   0  0  0  0  0  0  0  0  0  0  0  0
   19.1182   19.7166   21.4245 C   0  0  0  0  0  0  0  0  0  0  0  0
   18.6980   20.6029   20.9287 H   0  0  0  0  0  0  0  0  0  0  0  0
   18.4289   18.8940   21.1904 H   0  0  0  0  0  0  0  0  0  0  0  0
   20.5039   19.4259   20.8048 C   0  0  0  0  0  0  0  0  0  0  0  0
   21.2378   20.1894   21.0939 H   0  0  0  0  0  0  0  0  0  0  0  0
   20.4376   19.4269   19.7090 H   0  0  0  0  0  0  0  0  0  0  0  0
   20.8808   18.4407   21.1026 H   0  0  0  0  0  0  0  0  0  0  0  0
  1  2  1  0  0  0  0
  1  3  1  0  0  0  0
  1  4  1  0  0  0  0
  1  5  1  0  0  0  0
  5  6  1  0  0  0  0
  5  7  1  0  0  0  0
  7  8  1  0  0  0  0
  7  9  1  0  0  0  0
  7 10  1  0  0  0  0
  5 11  1  0  0  0  0
 11 12  1  0  0  0  0
 11 13  1  0  0  0  0
 11 14  1  0  0  0  0
 14 15  1  0  0  0  0
 14 16  1  0  0  0  0
 14 17  1  0  0  0  0
 17 18  1  0  0  0  0
 17 19  1  0  0  0  0
 17 20  1  0  0  0  0
M  END
> <VConfSearch Rank>
330

> <Conf_Id>
55

> <Delta U+W>
2.767

> <U+W>
-33.509

> <U>
24.552

> <W>
-58.061

> <W(PB)>
-59.930

> <W(SA)>
1.869

> <Valence>
3.726

> <Coulomb>
20.219

> <VdW>
0.606

> <VdW6>
-6.395

> <VdW12>
7.001

> <Bond>
0.241

> <Angle>
2.098

> <Pdih>
1.387

> <Idih>
0.000

> <Tether>
0.000

$$$$
VeraChem MOL file


 20 19  0  0  0  0  0  0  0  0999 V2000     
   18.3892   17.9160   23.7013 N   0  3  0  0  0  0  0  0  0  0  0  0
   19.0124   17.1882   24.0597 H   0  0  0  0  0  0  0  0  0  0  0  0
   17.4449   17.5221   23.6726 H   0  0  0  0  0  0  0  0  0  0  0  0
   18.3800   18.6772   24.3848 H   0  0  0  0  0  0  0  0  0  0  0  0
   18.8267   18.3975   22.3442 C   0  0  2  0  0  0  0  0  0  0  0  0
   18.1142   19.1705   22.0396 H   0  0  0  0  0  0  0  0  0  0  0  0
   18.7627   17.2535   21.3189 C   0  0  0  0  0  0  0  0  0  0  0  0
   17.7522   16.8294   21.2725 H   0  0  0  0  0  0  0  0  0  0  0  0
   19.4601   16.4474   21.5788 H   0  0  0  0  0  0  0  0  0  0  0  0
   19.0175   17.6149   20.3148 H   0  0  0  0  0  0  0  0  0  0  0  0
   20.2389   19.0231   22.3632 C   0  0  0  0  0  0  0  0  0  0  0  0
   20.9714   18.2727   22.6892 H   0  0  0  0  0  0  0  0  0  0  0  0
   20.5151   19.3052   21.3384 H   0  0  0  0  0  0  0  0  0  0  0  0
   20.3346   20.2751   23.2680 C   0  0  0  0  0  0  0  0  0  0  0  0
   20.1173   20.0076   24.3109 H   0  0  0  0  0  0  0  0  0  0  0  0
   19.5768   21.0108   22.9635 H   0  0  0  0  0  0  0  0  0  0  0  0
   21.7337   20.9237   23.1974 C   0  0  0  0  0  0  0  0  0  0  0  0
   22.5115   20.2217   23.5253 H   0  0  0  0  0  0  0  0  0  0  0  0
   21.7842   21.8084   23.8454 H   0  0  0  0  0  0  0  0  0  0  0  0
   21.9708   21.2428   22.1740 H   0  0  0  0  0  0  0  0  0  0  0  0
  1  2  1  0  0  0  0
  1  3  1  0  0  0  0
  1  4  1  0  0  0  0
  1  5  1  0  0  0  0
  5  6  1  0  0  0  0
  5  7  1  0  0  0  0
  7  8  1  0  0  0  0
  7  9  1  0  0  0  0
  7 10  1  0  0  0  0
  5 11  1  0  0  0  0
 11 12  1  0  0  0  0
 11 13  1  0  0  0  0
 11 14  1  0  0  0  0
 14 15  1  0  0  0  0
 14 16  1  0  0  0  0
 14 17  1  0  0  0  0
 17 18  1  0  0  0  0
 17 19  1  0  0  0  0
 17 20  1  0  0  0  0
M  END
> <VConfSearch Rank>
331

> <Conf_Id>
74

> <Delta U+W>
0.000

> <U+W>
-36.276

> <U>
22.080

> <W>
-58.356

> <W(PB)>
-60.289

> <W(SA)>
1.932

> <Valence>
1.885

> <Coulomb>
19.559

> <VdW>
0.637

> <VdW6>
-4.482

> <VdW12>
5.119

> <Bond>
0.136

> <Angle>
0.867

> <Pdih>
0.882

> <Idih>
0.000

> <Tether>
0.000

$$$$
VeraChem MOL file


 20 19  0  0  0  0  0  0  0  0999 V2000     
   18.7419   16.8599   23.3713 N   0  3  0  0  0  0  0  0  0  0  0  0
   18.3214   16.5456   22.4926 H   0  0  0  0  0  0  0  0  0  0  0  0
   17.9899   17.2386   23.9526 H   0  0  0  0  0  0  0  0  0  0  0  0
   19.1047   16.0292   23.8467 H   0  0  0  0  0  0  0  0  0  0  0  0
   19.8248   17.8772   23.1367 C   0  0  2  0  0  0  0  0  0  0  0  0
   20.5793   17.3860   22.5143 H   0  0  0  0  0  0  0  0  0  0  0  0
   20.4806   18.2764   24.4714 C   0  0  0  0  0  0  0  0  0  0  0  0
   20.8091   17.3863   25.0219 H   0  0  0  0  0  0  0  0  0  0  0  0
   19.7798   18.8303   25.1082 H   0  0  0  0  0  0  0  0  0  0  0  0
   21.3663   18.9014   24.3099 H   0  0  0  0  0  0  0  0  0  0  0  0
   19.2834   19.1022   22.3637 C   0  0  0  0  0  0  0  0  0  0  0  0
   18.7363   18.7427   21.4822 H   0  0  0  0  0  0  0  0  0  0  0  0
   18.5535   19.6383   22.9847 H   0  0  0  0  0  0  0  0  0  0  0  0
   20.3860   20.0814   21.8918 C   0  0  0  0  0  0  0  0  0  0  0  0
   21.1501   19.5330   21.3231 H   0  0  0  0  0  0  0  0  0  0  0  0
   20.8931   20.5298   22.7565 H   0  0  0  0  0  0  0  0  0  0  0  0
   19.8069   21.2109   21.0130 C   0  0  0  0  0  0  0  0  0  0  0  0
   19.3272   20.8056   20.1125 H   0  0  0  0  0  0  0  0  0  0  0  0
   20.6008   21.8972   20.6908 H   0  0  0  0  0  0  0  0  0  0  0  0
   19.0594   21.7963   21.5643 H   0  0  0  0  0  0  0  0  0  0  0  0
  1  2  1  0  0  0  0
  1  3  1  0  0  0  0
  1  4  1  0  0  0  0
  1  5  1  0  0  0  0
  5  6  1  0  0  0  0
  5  7  1  0  0  0  0
  7  8  1  0  0  0  0
  7  9  1  0  0  0  0
  7 10  1  0  0  0  0
  5 11  1  0  0  0  0
 11 12  1  0  0  0  0
 11 13  1  0  0  0  0
 11 14  1  0  0  0  0
 14 15  1  0  0  0  0
 14 16  1  0  0  0  0
 14 17  1  0  0  0  0
 17 18  1  0  0  0  0
 17 19  1  0  0  0  0
 17 20  1  0  0  0  0
M  END
> <VConfSearch Rank>
332

> <Conf_Id>
80

> <Delta U+W>
0.460

> <U+W>
-35.817

> <U>
22.495

> <W>
-58.311

> <W(PB)>
-60.259

> <W(SA)>
1.948

> <Valence>
2.419

> <Coulomb>
19.304

> <VdW>
0.772

> <VdW6>
-4.635

> <VdW12>
5.407

> <Bond>
0.149

> <Angle>
1.142

> <Pdih>
1.129

> <Idih>
0.000

> <Tether>
0.000

$$$$
VeraChem MOL file


 20 19  0  0  0  0  0  0  0  0999 V2000     
   17.6417   17.7770   22.4488 N   0  3  0  0  0  0  0  0  0  0  0  0
   17.7175   16.7777   22.6571 H   0  0  0  0  0  0  0  0  0  0  0  0
   17.6236   17.8774   21.4308 H   0  0  0  0  0  0  0  0  0  0  0  0
   16.7337   18.0912   22.8015 H   0  0  0  0  0  0  0  0  0  0  0  0
   18.7710   18.5598   23.0609 C   0  0  2  0  0  0  0  0  0  0  0  0
   18.7058   18.3975   24.1412 H   0  0  0  0  0  0  0  0  0  0  0  0
   18.5845   20.0627   22.7912 C   0  0  0  0  0  0  0  0  0  0  0  0
   17.5720   20.3830   23.0660 H   0  0  0  0  0  0  0  0  0  0  0  0
   18.7412   20.2997   21.7316 H   0  0  0  0  0  0  0  0  0  0  0  0
   19.2831   20.6586   23.3895 H   0  0  0  0  0  0  0  0  0  0  0  0
   20.1422   18.0275   22.5773 C   0  0  0  0  0  0  0  0  0  0  0  0
   20.1658   16.9482   22.7780 H   0  0  0  0  0  0  0  0  0  0  0  0
   20.2260   18.1300   21.4872 H   0  0  0  0  0  0  0  0  0  0  0  0
   21.3747   18.6639   23.2726 C   0  0  0  0  0  0  0  0  0  0  0  0
   22.1397   17.8866   23.4096 H   0  0  0  0  0  0  0  0  0  0  0  0
   21.1094   19.0058   24.2829 H   0  0  0  0  0  0  0  0  0  0  0  0
   22.0100   19.8184   22.4623 C   0  0  0  0  0  0  0  0  0  0  0  0
   22.3473   19.4673   21.4784 H   0  0  0  0  0  0  0  0  0  0  0  0
   22.8849   20.2211   22.9890 H   0  0  0  0  0  0  0  0  0  0  0  0
   21.3095   20.6456   22.3026 H   0  0  0  0  0  0  0  0  0  0  0  0
  1  2  1  0  0  0  0
  1  3  1  0  0  0  0
  1  4  1  0  0  0  0
  1  5  1  0  0  0  0
  5  6  1  0  0  0  0
  5  7  1  0  0  0  0
  7  8  1  0  0  0  0
  7  9  1  0  0  0  0
  7 10  1  0  0  0  0
  5 11  1  0  0  0  0
 11 12  1  0  0  0  0
 11 13  1  0  0  0  0
 11 14  1  0  0  0  0
 14 15  1  0  0  0  0
 14 16  1  0  0  0  0
 14 17  1  0  0  0  0
 17 18  1  0  0  0  0
 17 19  1  0  0  0  0
 17 20  1  0  0  0  0
M  END
> <VConfSearch Rank>
333

> <Conf_Id>
52

> <Delta U+W>
2.995

> <U+W>
-33.282

> <U>
25.224

> <W>
-58.506

> <W(PB)>
-60.411

> <W(SA)>
1.905

> <Valence>
4.945

> <Coulomb>
19.467

> <VdW>
0.813

> <VdW6>
-5.458

> <VdW12>
6.270

> <Bond>
0.200

> <Angle>
1.675

> <Pdih>
3.070

> <Idih>
0.000

> <Tether>
0.000

$$$$
VeraChem MOL file


 20 19  0  0  0  0  0  0  0  0999 V2000     
   18.8500   18.9526   24.0910 N   0  3  0  0  0  0  0  0  0  0  0  0
   18.3721   19.8563   24.1256 H   0  0  0  0  0  0  0  0  0  0  0  0
   18.8475   18.5685   25.0397 H   0  0  0  0  0  0  0  0  0  0  0  0
   18.2880   18.3317   23.5047 H   0  0  0  0  0  0  0  0  0  0  0  0
   20.2487   19.0919   23.5548 C   0  0  2  0  0  0  0  0  0  0  0  0
   20.7089   18.0997   23.5934 H   0  0  0  0  0  0  0  0  0  0  0  0
   21.0620   20.0345   24.4580 C   0  0  0  0  0  0  0  0  0  0  0  0
   20.6506   21.0516   24.4433 H   0  0  0  0  0  0  0  0  0  0  0  0
   22.1079   20.0840   24.1307 H   0  0  0  0  0  0  0  0  0  0  0  0
   21.0571   19.6788   25.4957 H   0  0  0  0  0  0  0  0  0  0  0  0
   20.2827   19.5868   22.0891 C   0  0  0  0  0  0  0  0  0  0  0  0
   19.6131   20.4486   21.9693 H   0  0  0  0  0  0  0  0  0  0  0  0
   21.2922   19.9588   21.8687 H   0  0  0  0  0  0  0  0  0  0  0  0
   19.9537   18.5030   21.0290 C   0  0  0  0  0  0  0  0  0  0  0  0
   20.6583   17.6650   21.1252 H   0  0  0  0  0  0  0  0  0  0  0  0
   20.1303   18.9336   20.0333 H   0  0  0  0  0  0  0  0  0  0  0  0
   18.5048   17.9666   21.0768 C   0  0  0  0  0  0  0  0  0  0  0  0
   18.2941   17.3647   20.1832 H   0  0  0  0  0  0  0  0  0  0  0  0
   17.7756   18.7869   21.1038 H   0  0  0  0  0  0  0  0  0  0  0  0
   18.3426   17.3167   21.9444 H   0  0  0  0  0  0  0  0  0  0  0  0
  1  2  1  0  0  0  0
  1  3  1  0  0  0  0
  1  4  1  0  0  0  0
  1  5  1  0  0  0  0
  5  6  1  0  0  0  0
  5  7  1  0  0  0  0
  7  8  1  0  0  0  0
  7  9  1  0  0  0  0
  7 10  1  0  0  0  0
  5 11  1  0  0  0  0
 11 12  1  0  0  0  0
 11 13  1  0  0  0  0
 11 14  1  0  0  0  0
 14 15  1  0  0  0  0
 14 16  1  0  0  0  0
 14 17  1  0  0  0  0
 17 18  1  0  0  0  0
 17 19  1  0  0  0  0
 17 20  1  0  0  0  0
M  END
> <VConfSearch Rank>
334

> <Conf_Id>
54

> <Delta U+W>
2.752

> <U+W>
-33.525

> <U>
24.337

> <W>
-57.862

> <W(PB)>
-59.764

> <W(SA)>
1.901

> <Valence>
3.593

> <Coulomb>
20.067

> <VdW>
0.677

> <VdW6>
-5.466

> <VdW12>
6.144

> <Bond>
0.191

> <Angle>
1.557

> <Pdih>
1.845

> <Idih>
0.000

> <Tether>
0.000

$$$$
VeraChem MOL file


 20 19  0  0  0  0  0  0  0  0999 V2000     
   19.1794   19.9271   24.4259 N   0  3  0  0  0  0  0  0  0  0  0  0
   18.4793   20.5536   24.8323 H   0  0  0  0  0  0  0  0  0  0  0  0
   20.0582   20.0892   24.9251 H   0  0  0  0  0  0  0  0  0  0  0  0
   18.8844   18.9689   24.6263 H   0  0  0  0  0  0  0  0  0  0  0  0
   19.3325   20.1577   22.9470 C   0  0  2  0  0  0  0  0  0  0  0  0
   19.6305   21.2048   22.8332 H   0  0  0  0  0  0  0  0  0  0  0  0
   17.9897   19.9760   22.2171 C   0  0  0  0  0  0  0  0  0  0  0  0
   18.1059   20.1432   21.1391 H   0  0  0  0  0  0  0  0  0  0  0  0
   17.2514   20.6978   22.5871 H   0  0  0  0  0  0  0  0  0  0  0  0
   17.5787   18.9707   22.3669 H   0  0  0  0  0  0  0  0  0  0  0  0
   20.4547   19.2923   22.3251 C   0  0  0  0  0  0  0  0  0  0  0  0
   20.5737   19.5735   21.2703 H   0  0  0  0  0  0  0  0  0  0  0  0
   21.4032   19.5502   22.8141 H   0  0  0  0  0  0  0  0  0  0  0  0
   20.2314   17.7610   22.4243 C   0  0  0  0  0  0  0  0  0  0  0  0
   19.3122   17.4759   21.8953 H   0  0  0  0  0  0  0  0  0  0  0  0
   20.1010   17.4639   23.4735 H   0  0  0  0  0  0  0  0  0  0  0  0
   21.4169   16.9758   21.8231 C   0  0  0  0  0  0  0  0  0  0  0  0
   21.2438   15.8944   21.8984 H   0  0  0  0  0  0  0  0  0  0  0  0
   22.3514   17.2043   22.3519 H   0  0  0  0  0  0  0  0  0  0  0  0
   21.5558   17.2210   20.7620 H   0  0  0  0  0  0  0  0  0  0  0  0
  1  2  1  0  0  0  0
  1  3  1  0  0  0  0
  1  4  1  0  0  0  0
  1  5  1  0  0  0  0
  5  6  1  0  0  0  0
  5  7  1  0  0  0  0
  7  8  1  0  0  0  0
  7  9  1  0  0  0  0
  7 10  1  0  0  0  0
  5 11  1  0  0  0  0
 11 12  1  0  0  0  0
 11 13  1  0  0  0  0
 11 14  1  0  0  0  0
 14 15  1  0  0  0  0
 14 16  1  0  0  0  0
 14 17  1  0  0  0  0
 17 18  1  0  0  0  0
 17 19  1  0  0  0  0
 17 20  1  0  0  0  0
M  END
> <VConfSearch Rank>
335

> <Conf_Id>
63

> <Delta U+W>
0.420

> <U+W>
-35.856

> <U>
22.625

> <W>
-58.481

> <W(PB)>
-60.400

> <W(SA)>
1.919

> <Valence>
2.404

> <Coulomb>
19.464

> <VdW>
0.757

> <VdW6>
-5.074

> <VdW12>
5.830

> <Bond>
0.172

> <Angle>
1.207

> <Pdih>
1.025

> <Idih>
0.000

> <Tether>
0.000

$$$$
VeraChem MOL file


 20 19  0  0  0  0  0  0  0  0999 V2000     
   18.2540   19.1513   23.7924 N   0  3  0  0  0  0  0  0  0  0  0  0
   17.8125   19.5436   22.9569 H   0  0  0  0  0  0  0  0  0  0  0  0
   18.3854   19.9158   24.4592 H   0  0  0  0  0  0  0  0  0  0  0  0
   17.5899   18.4930   24.2086 H   0  0  0  0  0  0  0  0  0  0  0  0
   19.5591   18.4813   23.4577 C   0  0  2  0  0  0  0  0  0  0  0  0
   19.3292   17.6813   22.7476 H   0  0  0  0  0  0  0  0  0  0  0  0
   20.1795   17.8439   24.7116 C   0  0  0  0  0  0  0  0  0  0  0  0
   19.4853   17.1269   25.1669 H   0  0  0  0  0  0  0  0  0  0  0  0
   20.4271   18.6040   25.4631 H   0  0  0  0  0  0  0  0  0  0  0  0
   21.0990   17.3014   24.4587 H   0  0  0  0  0  0  0  0  0  0  0  0
   20.5652   19.4467   22.7909 C   0  0  0  0  0  0  0  0  0  0  0  0
   20.8215   20.2493   23.4953 H   0  0  0  0  0  0  0  0  0  0  0  0
   21.4994   18.9059   22.5895 H   0  0  0  0  0  0  0  0  0  0  0  0
   20.0602   20.0759   21.4677 C   0  0  0  0  0  0  0  0  0  0  0  0
   20.8388   20.7454   21.0760 H   0  0  0  0  0  0  0  0  0  0  0  0
   19.1847   20.7111   21.6587 H   0  0  0  0  0  0  0  0  0  0  0  0
   19.7158   19.0235   20.3891 C   0  0  0  0  0  0  0  0  0  0  0  0
   20.5772   18.3757   20.1808 H   0  0  0  0  0  0  0  0  0  0  0  0
   19.4320   19.5148   19.4493 H   0  0  0  0  0  0  0  0  0  0  0  0
   18.8757   18.3883   20.6967 H   0  0  0  0  0  0  0  0  0  0  0  0
  1  2  1  0  0  0  0
  1  3  1  0  0  0  0
  1  4  1  0  0  0  0
  1  5  1  0  0  0  0
  5  6  1  0  0  0  0
  5  7  1  0  0  0  0
  7  8  1  0  0  0  0
  7  9  1  0  0  0  0
  7 10  1  0  0  0  0
  5 11  1  0  0  0  0
 11 12  1  0  0  0  0
 11 13  1  0  0  0  0
 11 14  1  0  0  0  0
 14 15  1  0  0  0  0
 14 16  1  0  0  0  0
 14 17  1  0  0  0  0
 17 18  1  0  0  0  0
 17 19  1  0  0  0  0
 17 20  1  0  0  0  0
M  END
> <VConfSearch Rank>
336

> <Conf_Id>
50

> <Delta U+W>
0.466

> <U+W>
-35.811

> <U>
22.369

> <W>
-58.180

> <W(PB)>
-60.103

> <W(SA)>
1.923

> <Valence>
2.168

> <Coulomb>
19.636

> <VdW>
0.566

> <VdW6>
-5.263

> <VdW12>
5.829

> <Bond>
0.162

> <Angle>
1.066

> <Pdih>
0.939

> <Idih>
0.000

> <Tether>
0.000

$$$$
VeraChem MOL file


 20 19  0  0  0  0  0  0  0  0999 V2000     
   20.0602   19.8743   24.8200 N   0  3  0  0  0  0  0  0  0  0  0  0
   19.1237   20.0786   25.1795 H   0  0  0  0  0  0  0  0  0  0  0  0
   20.5229   20.7693   24.6417 H   0  0  0  0  0  0  0  0  0  0  0  0
   20.5773   19.4089   25.5708 H   0  0  0  0  0  0  0  0  0  0  0  0
   20.0053   19.0237   23.5798 C   0  0  2  0  0  0  0  0  0  0  0  0
   19.4953   18.0989   23.8670 H   0  0  0  0  0  0  0  0  0  0  0  0
   21.4322   18.6769   23.1152 C   0  0  0  0  0  0  0  0  0  0  0  0
   21.9964   19.5830   22.8617 H   0  0  0  0  0  0  0  0  0  0  0  0
   21.4221   18.0291   22.2320 H   0  0  0  0  0  0  0  0  0  0  0  0
   21.9781   18.1483   23.9062 H   0  0  0  0  0  0  0  0  0  0  0  0
   19.1837   19.6969   22.4529 C   0  0  0  0  0  0  0  0  0  0  0  0
   18.5675   20.4960   22.8856 H   0  0  0  0  0  0  0  0  0  0  0  0
   19.8510   20.1939   21.7361 H   0  0  0  0  0  0  0  0  0  0  0  0
   18.2283   18.7295   21.7092 C   0  0  0  0  0  0  0  0  0  0  0  0
   17.6356   19.3082   20.9869 H   0  0  0  0  0  0  0  0  0  0  0  0
   17.5087   18.3035   22.4224 H   0  0  0  0  0  0  0  0  0  0  0  0
   18.9454   17.5849   20.9595 C   0  0  0  0  0  0  0  0  0  0  0  0
   19.7028   17.9770   20.2684 H   0  0  0  0  0  0  0  0  0  0  0  0
   18.2252   17.0021   20.3707 H   0  0  0  0  0  0  0  0  0  0  0  0
   19.4340   16.8931   21.6569 H   0  0  0  0  0  0  0  0  0  0  0  0
  1  2  1  0  0  0  0
  1  3  1  0  0  0  0
  1  4  1  0  0  0  0
  1  5  1  0  0  0  0
  5  6  1  0  0  0  0
  5  7  1  0  0  0  0
  7  8  1  0  0  0  0
  7  9  1  0  0  0  0
  7 10  1  0  0  0  0
  5 11  1  0  0  0  0
 11 12  1  0  0  0  0
 11 13  1  0  0  0  0
 11 14  1  0  0  0  0
 14 15  1  0  0  0  0
 14 16  1  0  0  0  0
 14 17  1  0  0  0  0
 17 18  1  0  0  0  0
 17 19  1  0  0  0  0
 17 20  1  0  0  0  0
M  END
> <VConfSearch Rank>
337

> <Conf_Id>
3

> <Delta U+W>
3.093

> <U+W>
-33.184

> <U>
25.256

> <W>
-58.439

> <W(PB)>
-60.337

> <W(SA)>
1.898

> <Valence>
4.963

> <Coulomb>
19.511

> <VdW>
0.782

> <VdW6>
-5.429

> <VdW12>
6.211

> <Bond>
0.174

> <Angle>
1.377

> <Pdih>
3.412

> <Idih>
0.000

> <Tether>
0.000

$$$$
VeraChem MOL file


 20 19  0  0  0  0  0  0  0  0999 V2000     
   21.0261   18.9257   20.9250 N   0  3  0  0  0  0  0  0  0  0  0  0
   21.9818   18.5593   20.9367 H   0  0  0  0  0  0  0  0  0  0  0  0
   21.0846   19.9146   20.6675 H   0  0  0  0  0  0  0  0  0  0  0  0
   20.5248   18.4430   20.1752 H   0  0  0  0  0  0  0  0  0  0  0  0
   20.3476   18.7371   22.2541 C   0  0  2  0  0  0  0  0  0  0  0  0
   20.9521   19.2801   22.9867 H   0  0  0  0  0  0  0  0  0  0  0  0
   20.3354   17.2474   22.6425 C   0  0  0  0  0  0  0  0  0  0  0  0
   19.9717   17.1065   23.6669 H   0  0  0  0  0  0  0  0  0  0  0  0
   21.3477   16.8275   22.5970 H   0  0  0  0  0  0  0  0  0  0  0  0
   19.6952   16.6662   21.9672 H   0  0  0  0  0  0  0  0  0  0  0  0
   18.9259   19.3478   22.2487 C   0  0  0  0  0  0  0  0  0  0  0  0
   18.9896   20.3829   21.8881 H   0  0  0  0  0  0  0  0  0  0  0  0
   18.3022   18.8103   21.5221 H   0  0  0  0  0  0  0  0  0  0  0  0
   18.2101   19.3539   23.6237 C   0  0  0  0  0  0  0  0  0  0  0  0
   18.0095   18.3259   23.9541 H   0  0  0  0  0  0  0  0  0  0  0  0
   17.2258   19.8284   23.5058 H   0  0  0  0  0  0  0  0  0  0  0  0
   19.0020   20.1086   24.7157 C   0  0  0  0  0  0  0  0  0  0  0  0
   19.2171   21.1396   24.4063 H   0  0  0  0  0  0  0  0  0  0  0  0
   19.9543   19.6113   24.9396 H   0  0  0  0  0  0  0  0  0  0  0  0
   18.4248   20.1524   25.6484 H   0  0  0  0  0  0  0  0  0  0  0  0
  1  2  1  0  0  0  0
  1  3  1  0  0  0  0
  1  4  1  0  0  0  0
  1  5  1  0  0  0  0
  5  6  1  0  0  0  0
  5  7  1  0  0  0  0
  7  8  1  0  0  0  0
  7  9  1  0  0  0  0
  7 10  1  0  0  0  0
  5 11  1  0  0  0  0
 11 12  1  0  0  0  0
 11 13  1  0  0  0  0
 11 14  1  0  0  0  0
 14 15  1  0  0  0  0
 14 16  1  0  0  0  0
 14 17  1  0  0  0  0
 17 18  1  0  0  0  0
 17 19  1  0  0  0  0
 17 20  1  0  0  0  0
M  END
> <VConfSearch Rank>
338

> <Conf_Id>
64

> <Delta U+W>
0.544

> <U+W>
-35.732

> <U>
22.800

> <W>
-58.532

> <W(PB)>
-60.437

> <W(SA)>
1.905

> <Valence>
2.662

> <Coulomb>
19.485

> <VdW>
0.653

> <VdW6>
-5.460

> <VdW12>
6.113

> <Bond>
0.174

> <Angle>
1.378

> <Pdih>
1.109

> <Idih>
0.000

> <Tether>
0.000

$$$$
VeraChem MOL file


 20 19  0  0  0  0  0  0  0  0999 V2000     
   21.7096   18.2429   22.1532 N   0  3  0  0  0  0  0  0  0  0  0  0
   21.8873   19.2252   22.3738 H   0  0  0  0  0  0  0  0  0  0  0  0
   22.1652   18.0433   21.2586 H   0  0  0  0  0  0  0  0  0  0  0  0
   22.1796   17.6780   22.8657 H   0  0  0  0  0  0  0  0  0  0  0  0
   20.2348   17.9487   22.0973 C   0  0  2  0  0  0  0  0  0  0  0  0
   20.1508   16.8867   21.8462 H   0  0  0  0  0  0  0  0  0  0  0  0
   19.5600   18.7425   20.9667 C   0  0  0  0  0  0  0  0  0  0  0  0
   19.7215   19.8207   21.0814 H   0  0  0  0  0  0  0  0  0  0  0  0
   18.4801   18.5509   20.9451 H   0  0  0  0  0  0  0  0  0  0  0  0
   19.9698   18.4461   19.9935 H   0  0  0  0  0  0  0  0  0  0  0  0
   19.5423   18.1442   23.4696 C   0  0  0  0  0  0  0  0  0  0  0  0
   18.5177   17.7530   23.4196 H   0  0  0  0  0  0  0  0  0  0  0  0
   20.0609   17.5013   24.1930 H   0  0  0  0  0  0  0  0  0  0  0  0
   19.5261   19.5934   24.0306 C   0  0  0  0  0  0  0  0  0  0  0  0
   20.4132   20.1507   23.7022 H   0  0  0  0  0  0  0  0  0  0  0  0
   19.5946   19.5411   25.1263 H   0  0  0  0  0  0  0  0  0  0  0  0
   18.2420   20.3794   23.6753 C   0  0  0  0  0  0  0  0  0  0  0  0
   18.1249   20.5136   22.5944 H   0  0  0  0  0  0  0  0  0  0  0  0
   18.2652   21.3776   24.1314 H   0  0  0  0  0  0  0  0  0  0  0  0
   17.3489   19.8636   24.0513 H   0  0  0  0  0  0  0  0  0  0  0  0
  1  2  1  0  0  0  0
  1  3  1  0  0  0  0
  1  4  1  0  0  0  0
  1  5  1  0  0  0  0
  5  6  1  0  0  0  0
  5  7  1  0  0  0  0
  7  8  1  0  0  0  0
  7  9  1  0  0  0  0
  7 10  1  0  0  0  0
  5 11  1  0  0  0  0
 11 12  1  0  0  0  0
 11 13  1  0  0  0  0
 11 14  1  0  0  0  0
 14 15  1  0  0  0  0
 14 16  1  0  0  0  0
 14 17  1  0  0  0  0
 17 18  1  0  0  0  0
 17 19  1  0  0  0  0
 17 20  1  0  0  0  0
M  END
> <VConfSearch Rank>
339

> <Conf_Id>
35

> <Delta U+W>
3.004

> <U+W>
-33.272

> <U>
25.367

> <W>
-58.639

> <W(PB)>
-60.512

> <W(SA)>
1.873

> <Valence>
4.943

> <Coulomb>
19.661

> <VdW>
0.764

> <VdW6>
-5.871

> <VdW12>
6.636

> <Bond>
0.230

> <Angle>
1.857

> <Pdih>
2.855

> <Idih>
0.000

> <Tether>
0.000

$$$$
VeraChem MOL file


 20 19  0  0  0  0  0  0  0  0999 V2000     
   20.0214   17.6722   21.4950 N   0  3  0  0  0  0  0  0  0  0  0  0
   20.1637   17.5803   20.4856 H   0  0  0  0  0  0  0  0  0  0  0  0
   19.7088   16.7617   21.8426 H   0  0  0  0  0  0  0  0  0  0  0  0
   20.9301   17.8662   21.9198 H   0  0  0  0  0  0  0  0  0  0  0  0
   19.0279   18.7550   21.8161 C   0  0  2  0  0  0  0  0  0  0  0  0
   18.0934   18.4401   21.3414 H   0  0  0  0  0  0  0  0  0  0  0  0
   19.4348   20.0966   21.1812 C   0  0  0  0  0  0  0  0  0  0  0  0
   20.4145   20.4338   21.5401 H   0  0  0  0  0  0  0  0  0  0  0  0
   18.6970   20.8752   21.4111 H   0  0  0  0  0  0  0  0  0  0  0  0
   19.4912   20.0037   20.0898 H   0  0  0  0  0  0  0  0  0  0  0  0
   18.7387   18.8830   23.3338 C   0  0  0  0  0  0  0  0  0  0  0  0
   17.8053   19.4499   23.4475 H   0  0  0  0  0  0  0  0  0  0  0  0
   18.5245   17.8860   23.7402 H   0  0  0  0  0  0  0  0  0  0  0  0
   19.8220   19.5718   24.2105 C   0  0  0  0  0  0  0  0  0  0  0  0
   19.4433   19.6213   25.2410 H   0  0  0  0  0  0  0  0  0  0  0  0
   19.9589   20.6156   23.8969 H   0  0  0  0  0  0  0  0  0  0  0  0
   21.1895   18.8517   24.2308 C   0  0  0  0  0  0  0  0  0  0  0  0
   21.0740   17.7838   24.4580 H   0  0  0  0  0  0  0  0  0  0  0  0
   21.8368   19.2876   25.0029 H   0  0  0  0  0  0  0  0  0  0  0  0
   21.7151   18.9562   23.2747 H   0  0  0  0  0  0  0  0  0  0  0  0
  1  2  1  0  0  0  0
  1  3  1  0  0  0  0
  1  4  1  0  0  0  0
  1  5  1  0  0  0  0
  5  6  1  0  0  0  0
  5  7  1  0  0  0  0
  7  8  1  0  0  0  0
  7  9  1  0  0  0  0
  7 10  1  0  0  0  0
  5 11  1  0  0  0  0
 11 12  1  0  0  0  0
 11 13  1  0  0  0  0
 11 14  1  0  0  0  0
 14 15  1  0  0  0  0
 14 16  1  0  0  0  0
 14 17  1  0  0  0  0
 17 18  1  0  0  0  0
 17 19  1  0  0  0  0
 17 20  1  0  0  0  0
M  END
> <VConfSearch Rank>
340

> <Conf_Id>
55

> <Delta U+W>
2.767

> <U+W>
-33.509

> <U>
24.552

> <W>
-58.061

> <W(PB)>
-59.930

> <W(SA)>
1.869

> <Valence>
3.726

> <Coulomb>
20.219

> <VdW>
0.606

> <VdW6>
-6.395

> <VdW12>
7.001

> <Bond>
0.241

> <Angle>
2.098

> <Pdih>
1.387

> <Idih>
0.000

> <Tether>
0.000

$$$$
VeraChem MOL file


 20 19  0  0  0  0  0  0  0  0999 V2000     
   20.1608   18.8313   20.7947 N   0  3  0  0  0  0  0  0  0  0  0  0
   20.4165   19.8111   20.6497 H   0  0  0  0  0  0  0  0  0  0  0  0
   19.8618   18.4569   19.8902 H   0  0  0  0  0  0  0  0  0  0  0  0
   21.0096   18.3286   21.0658 H   0  0  0  0  0  0  0  0  0  0  0  0
   19.0804   18.6912   21.8331 C   0  0  2  0  0  0  0  0  0  0  0  0
   18.8720   17.6209   21.9282 H   0  0  0  0  0  0  0  0  0  0  0  0
   17.7928   19.3928   21.3708 C   0  0  0  0  0  0  0  0  0  0  0  0
   17.4573   18.9929   20.4060 H   0  0  0  0  0  0  0  0  0  0  0  0
   17.9474   20.4731   21.2578 H   0  0  0  0  0  0  0  0  0  0  0  0
   16.9827   19.2377   22.0942 H   0  0  0  0  0  0  0  0  0  0  0  0
   19.5145   19.2231   23.2168 C   0  0  0  0  0  0  0  0  0  0  0  0
   19.7529   20.2926   23.1437 H   0  0  0  0  0  0  0  0  0  0  0  0
   18.6674   19.1382   23.9106 H   0  0  0  0  0  0  0  0  0  0  0  0
   20.7224   18.4573   23.8085 C   0  0  0  0  0  0  0  0  0  0  0  0
   21.6009   18.5739   23.1596 H   0  0  0  0  0  0  0  0  0  0  0  0
   20.4961   17.3823   23.8478 H   0  0  0  0  0  0  0  0  0  0  0  0
   21.0754   18.9572   25.2258 C   0  0  0  0  0  0  0  0  0  0  0  0
   21.3364   20.0235   25.2148 H   0  0  0  0  0  0  0  0  0  0  0  0
   21.9341   18.4048   25.6291 H   0  0  0  0  0  0  0  0  0  0  0  0
   20.2326   18.8187   25.9156 H   0  0  0  0  0  0  0  0  0  0  0  0
  1  2  1  0  0  0  0
  1  3  1  0  0  0  0
  1  4  1  0  0  0  0
  1  5  1  0  0  0  0
  5  6  1  0  0  0  0
  5  7  1  0  0  0  0
  7  8  1  0  0  0  0
  7  9  1  0  0  0  0
  7 10  1  0  0  0  0
  5 11  1  0  0  0  0
 11 12  1  0  0  0  0
 11 13  1  0  0  0  0
 11 14  1  0  0  0  0
 14 15  1  0  0  0  0
 14 16  1  0  0  0  0
 14 17  1  0  0  0  0
 17 18  1  0  0  0  0
 17 19  1  0  0  0  0
 17 20  1  0  0  0  0
M  END
> <VConfSearch Rank>
341

> <Conf_Id>
74

> <Delta U+W>
0.000

> <U+W>
-36.276

> <U>
22.080

> <W>
-58.356

> <W(PB)>
-60.289

> <W(SA)>
1.932

> <Valence>
1.885

> <Coulomb>
19.559

> <VdW>
0.637

> <VdW6>
-4.482

> <VdW12>
5.119

> <Bond>
0.136

> <Angle>
0.867

> <Pdih>
0.882

> <Idih>
0.000

> <Tether>
0.000

$$$$
VeraChem MOL file


 20 19  0  0  0  0  0  0  0  0999 V2000     
   21.6050   17.8860   21.6516 N   0  3  0  0  0  0  0  0  0  0  0  0
   22.1679   17.5924   22.4546 H   0  0  0  0  0  0  0  0  0  0  0  0
   22.0395   18.7273   21.2641 H   0  0  0  0  0  0  0  0  0  0  0  0
   21.6818   17.1506   20.9439 H   0  0  0  0  0  0  0  0  0  0  0  0
   20.1721   18.1316   22.0375 C   0  0  2  0  0  0  0  0  0  0  0  0
   19.7934   17.1848   22.4350 H   0  0  0  0  0  0  0  0  0  0  0  0
   19.3413   18.5045   20.7959 C   0  0  0  0  0  0  0  0  0  0  0  0
   19.4736   17.7573   20.0038 H   0  0  0  0  0  0  0  0  0  0  0  0
   19.6415   19.4809   20.3956 H   0  0  0  0  0  0  0  0  0  0  0  0
   18.2709   18.5425   21.0284 H   0  0  0  0  0  0  0  0  0  0  0  0
   20.0679   19.1997   23.1510 C   0  0  0  0  0  0  0  0  0  0  0  0
   20.7631   18.9301   23.9570 H   0  0  0  0  0  0  0  0  0  0  0  0
   20.4030   20.1712   22.7641 H   0  0  0  0  0  0  0  0  0  0  0  0
   18.6483   19.3393   23.7529 C   0  0  0  0  0  0  0  0  0  0  0  0
   18.2872   18.3551   24.0831 H   0  0  0  0  0  0  0  0  0  0  0  0
   17.9443   19.6975   22.9900 H   0  0  0  0  0  0  0  0  0  0  0  0
   18.6294   20.3179   24.9469 C   0  0  0  0  0  0  0  0  0  0  0  0
   19.2899   19.9721   25.7527 H   0  0  0  0  0  0  0  0  0  0  0  0
   17.6158   20.4077   25.3586 H   0  0  0  0  0  0  0  0  0  0  0  0
   18.9585   21.3198   24.6415 H   0  0  0  0  0  0  0  0  0  0  0  0
  1  2  1  0  0  0  0
  1  3  1  0  0  0  0
  1  4  1  0  0  0  0
  1  5  1  0  0  0  0
  5  6  1  0  0  0  0
  5  7  1  0  0  0  0
  7  8  1  0  0  0  0
  7  9  1  0  0  0  0
  7 10  1  0  0  0  0
  5 11  1  0  0  0  0
 11 12  1  0  0  0  0
 11 13  1  0  0  0  0
 11 14  1  0  0  0  0
 14 15  1  0  0  0  0
 14 16  1  0  0  0  0
 14 17  1  0  0  0  0
 17 18  1  0  0  0  0
 17 19  1  0  0  0  0
 17 20  1  0  0  0  0
M  END
> <VConfSearch Rank>
342

> <Conf_Id>
80

> <Delta U+W>
0.460

> <U+W>
-35.817

> <U>
22.495

> <W>
-58.311

> <W(PB)>
-60.259

> <W(SA)>
1.948

> <Valence>
2.419

> <Coulomb>
19.304

> <VdW>
0.772

> <VdW6>
-4.635

> <VdW12>
5.407

> <Bond>
0.149

> <Angle>
1.142

> <Pdih>
1.129

> <Idih>
0.000

> <Tether>
0.000

$$$$
VeraChem MOL file


 20 19  0  0  0  0  0  0  0  0999 V2000     
   21.8656   19.8321   22.0853 N   0  3  0  0  0  0  0  0  0  0  0  0
   22.4009   19.1823   21.5031 H   0  0  0  0  0  0  0  0  0  0  0  0
   22.2657   19.8015   23.0263 H   0  0  0  0  0  0  0  0  0  0  0  0
   22.0282   20.7728   21.7161 H   0  0  0  0  0  0  0  0  0  0  0  0
   20.4006   19.4908   22.0968 C   0  0  2  0  0  0  0  0  0  0  0  0
   20.0630   19.5552   21.0578 H   0  0  0  0  0  0  0  0  0  0  0  0
   19.6185   20.5295   22.9188 C   0  0  0  0  0  0  0  0  0  0  0  0
   19.8733   21.5476   22.5999 H   0  0  0  0  0  0  0  0  0  0  0  0
   19.8428   20.4413   23.9890 H   0  0  0  0  0  0  0  0  0  0  0  0
   18.5384   20.4096   22.7772 H   0  0  0  0  0  0  0  0  0  0  0  0
   20.1720   18.0399   22.5868 C   0  0  0  0  0  0  0  0  0  0  0  0
   20.7952   17.3812   21.9677 H   0  0  0  0  0  0  0  0  0  0  0  0
   20.5432   17.9233   23.6136 H   0  0  0  0  0  0  0  0  0  0  0  0
   18.7077   17.5367   22.4851 C   0  0  0  0  0  0  0  0  0  0  0  0
   18.7211   16.4755   22.1992 H   0  0  0  0  0  0  0  0  0  0  0  0
   18.1792   18.0596   21.6756 H   0  0  0  0  0  0  0  0  0  0  0  0
   17.9210   17.6617   23.8112 C   0  0  0  0  0  0  0  0  0  0  0  0
   18.4015   17.0796   24.6083 H   0  0  0  0  0  0  0  0  0  0  0  0
   16.8998   17.2779   23.6895 H   0  0  0  0  0  0  0  0  0  0  0  0
   17.8463   18.7006   24.1513 H   0  0  0  0  0  0  0  0  0  0  0  0
  1  2  1  0  0  0  0
  1  3  1  0  0  0  0
  1  4  1  0  0  0  0
  1  5  1  0  0  0  0
  5  6  1  0  0  0  0
  5  7  1  0  0  0  0
  7  8  1  0  0  0  0
  7  9  1  0  0  0  0
  7 10  1  0  0  0  0
  5 11  1  0  0  0  0
 11 12  1  0  0  0  0
 11 13  1  0  0  0  0
 11 14  1  0  0  0  0
 14 15  1  0  0  0  0
 14 16  1  0  0  0  0
 14 17  1  0  0  0  0
 17 18  1  0  0  0  0
 17 19  1  0  0  0  0
 17 20  1  0  0  0  0
M  END
> <VConfSearch Rank>
343

> <Conf_Id>
52

> <Delta U+W>
2.995

> <U+W>
-33.282

> <U>
25.224

> <W>
-58.506

> <W(PB)>
-60.411

> <W(SA)>
1.905

> <Valence>
4.945

> <Coulomb>
19.467

> <VdW>
0.813

> <VdW6>
-5.458

> <VdW12>
6.270

> <Bond>
0.200

> <Angle>
1.675

> <Pdih>
3.070

> <Idih>
0.000

> <Tether>
0.000

$$$$
VeraChem MOL file


 20 19  0  0  0  0  0  0  0  0999 V2000     
   21.1418   19.6275   23.3143 N   0  3  0  0  0  0  0  0  0  0  0  0
   21.0152   20.6417   23.2724 H   0  0  0  0  0  0  0  0  0  0  0  0
   22.1487   19.4458   23.3438 H   0  0  0  0  0  0  0  0  0  0  0  0
   20.7437   19.3059   24.1992 H   0  0  0  0  0  0  0  0  0  0  0  0
   20.4911   18.9446   22.1424 C   0  0  2  0  0  0  0  0  0  0  0  0
   20.7093   17.8758   22.2304 H   0  0  0  0  0  0  0  0  0  0  0  0
   21.1112   19.4555   20.8308 C   0  0  0  0  0  0  0  0  0  0  0  0
   20.9074   20.5237   20.6849 H   0  0  0  0  0  0  0  0  0  0  0  0
   20.7081   18.9097   19.9688 H   0  0  0  0  0  0  0  0  0  0  0  0
   22.1988   19.3122   20.8333 H   0  0  0  0  0  0  0  0  0  0  0  0
   18.9547   19.1267   22.1195 C   0  0  0  0  0  0  0  0  0  0  0  0
   18.7000   20.1813   22.2882 H   0  0  0  0  0  0  0  0  0  0  0  0
   18.5890   18.8877   21.1119 H   0  0  0  0  0  0  0  0  0  0  0  0
   18.1779   18.2238   23.1135 C   0  0  0  0  0  0  0  0  0  0  0  0
   18.4019   17.1677   22.9071 H   0  0  0  0  0  0  0  0  0  0  0  0
   17.1031   18.3480   22.9203 H   0  0  0  0  0  0  0  0  0  0  0  0
   18.4417   18.5247   24.6065 C   0  0  0  0  0  0  0  0  0  0  0  0
   17.7153   17.9923   25.2343 H   0  0  0  0  0  0  0  0  0  0  0  0
   18.3433   19.5968   24.8215 H   0  0  0  0  0  0  0  0  0  0  0  0
   19.4379   18.1888   24.9168 H   0  0  0  0  0  0  0  0  0  0  0  0
  1  2  1  0  0  0  0
  1  3  1  0  0  0  0
  1  4  1  0  0  0  0
  1  5  1  0  0  0  0
  5  6  1  0  0  0  0
  5  7  1  0  0  0  0
  7  8  1  0  0  0  0
  7  9  1  0  0  0  0
  7 10  1  0  0  0  0
  5 11  1  0  0  0  0
 11 12  1  0  0  0  0
 11 13  1  0  0  0  0
 11 14  1  0  0  0  0
 14 15  1  0  0  0  0
 14 16  1  0  0  0  0
 14 17  1  0  0  0  0
 17 18  1  0  0  0  0
 17 19  1  0  0  0  0
 17 20  1  0  0  0  0
M  END
> <VConfSearch Rank>
344

> <Conf_Id>
54

> <Delta U+W>
2.752

> <U+W>
-33.525

> <U>
24.337

> <W>
-57.862

> <W(PB)>
-59.764

> <W(SA)>
1.901

> <Valence>
3.593

> <Coulomb>
20.067

> <VdW>
0.677

> <VdW6>
-5.466

> <VdW12>
6.144

> <Bond>
0.191

> <Angle>
1.557

> <Pdih>
1.845

> <Idih>
0.000

> <Tether>
0.000

$$$$
VeraChem MOL file


 20 19  0  0  0  0  0  0  0  0999 V2000     
   18.8191   18.1759   24.3647 N   0  3  0  0  0  0  0  0  0  0  0  0
   18.6554   18.3135   25.3657 H   0  0  0  0  0  0  0  0  0  0  0  0
   18.7972   17.1678   24.1892 H   0  0  0  0  0  0  0  0  0  0  0  0
   18.0292   18.5919   23.8662 H   0  0  0  0  0  0  0  0  0  0  0  0
   20.1250   18.7847   23.9315 C   0  0  2  0  0  0  0  0  0  0  0  0
   20.9006   18.2925   24.5267 H   0  0  0  0  0  0  0  0  0  0  0  0
   20.1712   20.2873   24.2615 C   0  0  0  0  0  0  0  0  0  0  0  0
   21.1240   20.7277   23.9426 H   0  0  0  0  0  0  0  0  0  0  0  0
   20.0780   20.4454   25.3429 H   0  0  0  0  0  0  0  0  0  0  0  0
   19.3578   20.8359   23.7721 H   0  0  0  0  0  0  0  0  0  0  0  0
   20.4444   18.5058   22.4431 C   0  0  0  0  0  0  0  0  0  0  0  0
   21.4455   18.8966   22.2177 H   0  0  0  0  0  0  0  0  0  0  0  0
   20.5061   17.4191   22.2992 H   0  0  0  0  0  0  0  0  0  0  0  0
   19.4258   19.0953   21.4335 C   0  0  0  0  0  0  0  0  0  0  0  0
   19.3878   20.1889   21.5266 H   0  0  0  0  0  0  0  0  0  0  0  0
   18.4163   18.7214   21.6510 H   0  0  0  0  0  0  0  0  0  0  0  0
   19.7943   18.7311   19.9792 C   0  0  0  0  0  0  0  0  0  0  0  0
   19.0662   19.1567   19.2765 H   0  0  0  0  0  0  0  0  0  0  0  0
   19.8047   17.6429   19.8346 H   0  0  0  0  0  0  0  0  0  0  0  0
   20.7857   19.1207   19.7134 H   0  0  0  0  0  0  0  0  0  0  0  0
  1  2  1  0  0  0  0
  1  3  1  0  0  0  0
  1  4  1  0  0  0  0
  1  5  1  0  0  0  0
  5  6  1  0  0  0  0
  5  7  1  0  0  0  0
  7  8  1  0  0  0  0
  7  9  1  0  0  0  0
  7 10  1  0  0  0  0
  5 11  1  0  0  0  0
 11 12  1  0  0  0  0
 11 13  1  0  0  0  0
 11 14  1  0  0  0  0
 14 15  1  0  0  0  0
 14 16  1  0  0  0  0
 14 17  1  0  0  0  0
 17 18  1  0  0  0  0
 17 19  1  0  0  0  0
 17 20  1  0  0  0  0
M  END
> <VConfSearch Rank>
345

> <Conf_Id>
63

> <Delta U+W>
0.420

> <U+W>
-35.856

> <U>
22.625

> <W>
-58.481

> <W(PB)>
-60.400

> <W(SA)>
1.919

> <Valence>
2.404

> <Coulomb>
19.464

> <VdW>
0.757

> <VdW6>
-5.074

> <VdW12>
5.830

> <Bond>
0.172

> <Angle>
1.207

> <Pdih>
1.025

> <Idih>
0.000

> <Tether>
0.000

$$$$
VeraChem MOL file


 20 19  0  0  0  0  0  0  0  0999 V2000     
   18.3933   19.5464   21.6880 N   0  3  0  0  0  0  0  0  0  0  0  0
   18.0268   18.5954   21.7777 H   0  0  0  0  0  0  0  0  0  0  0  0
   18.7442   19.6525   20.7330 H   0  0  0  0  0  0  0  0  0  0  0  0
   17.6047   20.1896   21.7973 H   0  0  0  0  0  0  0  0  0  0  0  0
   19.4701   19.8155   22.7040 C   0  0  2  0  0  0  0  0  0  0  0  0
   19.0130   19.6842   23.6893 H   0  0  0  0  0  0  0  0  0  0  0  0
   19.9673   21.2664   22.5970 C   0  0  0  0  0  0  0  0  0  0  0  0
   19.1366   21.9718   22.7218 H   0  0  0  0  0  0  0  0  0  0  0  0
   20.4333   21.4562   21.6221 H   0  0  0  0  0  0  0  0  0  0  0  0
   20.7074   21.4832   23.3774 H   0  0  0  0  0  0  0  0  0  0  0  0
   20.6551   18.8305   22.5843 C   0  0  0  0  0  0  0  0  0  0  0  0
   21.1381   18.9586   21.6065 H   0  0  0  0  0  0  0  0  0  0  0  0
   21.4123   19.0895   23.3364 H   0  0  0  0  0  0  0  0  0  0  0  0
   20.2643   17.3417   22.7652 C   0  0  0  0  0  0  0  0  0  0  0  0
   21.1675   16.7247   22.6591 H   0  0  0  0  0  0  0  0  0  0  0  0
   19.5872   17.0260   21.9600 H   0  0  0  0  0  0  0  0  0  0  0  0
   19.6157   17.0480   24.1372 C   0  0  0  0  0  0  0  0  0  0  0  0
   20.2752   17.3555   24.9592 H   0  0  0  0  0  0  0  0  0  0  0  0
   19.4216   15.9732   24.2486 H   0  0  0  0  0  0  0  0  0  0  0  0
   18.6577   17.5703   24.2526 H   0  0  0  0  0  0  0  0  0  0  0  0
  1  2  1  0  0  0  0
  1  3  1  0  0  0  0
  1  4  1  0  0  0  0
  1  5  1  0  0  0  0
  5  6  1  0  0  0  0
  5  7  1  0  0  0  0
  7  8  1  0  0  0  0
  7  9  1  0  0  0  0
  7 10  1  0  0  0  0
  5 11  1  0  0  0  0
 11 12  1  0  0  0  0
 11 13  1  0  0  0  0
 11 14  1  0  0  0  0
 14 15  1  0  0  0  0
 14 16  1  0  0  0  0
 14 17  1  0  0  0  0
 17 18  1  0  0  0  0
 17 19  1  0  0  0  0
 17 20  1  0  0  0  0
M  END
> <VConfSearch Rank>
346

> <Conf_Id>
50

> <Delta U+W>
0.466

> <U+W>
-35.811

> <U>
22.369

> <W>
-58.180

> <W(PB)>
-60.103

> <W(SA)>
1.923

> <Valence>
2.168

> <Coulomb>
19.636

> <VdW>
0.566

> <VdW6>
-5.263

> <VdW12>
5.829

> <Bond>
0.162

> <Angle>
1.066

> <Pdih>
0.939

> <Idih>
0.000

> <Tether>
0.000

$$$$
VeraChem MOL file


 20 19  0  0  0  0  0  0  0  0999 V2000     
   17.9802   18.9600   24.3070 N   0  3  0  0  0  0  0  0  0  0  0  0
   17.4369   19.7905   24.0557 H   0  0  0  0  0  0  0  0  0  0  0  0
   18.4116   19.1390   25.2174 H   0  0  0  0  0  0  0  0  0  0  0  0
   17.3165   18.1907   24.4308 H   0  0  0  0  0  0  0  0  0  0  0  0
   19.0118   18.6343   23.2609 C   0  0  2  0  0  0  0  0  0  0  0  0
   18.4598   18.4639   22.3314 H   0  0  0  0  0  0  0  0  0  0  0  0
   19.7545   17.3391   23.6387 C   0  0  0  0  0  0  0  0  0  0  0  0
   20.2848   17.4515   24.5926 H   0  0  0  0  0  0  0  0  0  0  0  0
   20.4896   17.0591   22.8765 H   0  0  0  0  0  0  0  0  0  0  0  0
   19.0494   16.5050   23.7396 H   0  0  0  0  0  0  0  0  0  0  0  0
   19.9925   19.8104   23.0301 C   0  0  0  0  0  0  0  0  0  0  0  0
   19.5560   20.7289   23.4441 H   0  0  0  0  0  0  0  0  0  0  0  0
   20.9241   19.6483   23.5886 H   0  0  0  0  0  0  0  0  0  0  0  0
   20.3067   20.0817   21.5370 C   0  0  0  0  0  0  0  0  0  0  0  0
   20.9428   20.9754   21.4691 H   0  0  0  0  0  0  0  0  0  0  0  0
   19.3770   20.3280   21.0048 H   0  0  0  0  0  0  0  0  0  0  0  0
   21.0146   18.9124   20.8173 C   0  0  0  0  0  0  0  0  0  0  0  0
   21.9270   18.6136   21.3494 H   0  0  0  0  0  0  0  0  0  0  0  0
   21.3021   19.2065   19.7995 H   0  0  0  0  0  0  0  0  0  0  0  0
   20.3579   18.0377   20.7320 H   0  0  0  0  0  0  0  0  0  0  0  0
  1  2  1  0  0  0  0
  1  3  1  0  0  0  0
  1  4  1  0  0  0  0
  1  5  1  0  0  0  0
  5  6  1  0  0  0  0
  5  7  1  0  0  0  0
  7  8  1  0  0  0  0
  7  9  1  0  0  0  0
  7 10  1  0  0  0  0
  5 11  1  0  0  0  0
 11 12  1  0  0  0  0
 11 13  1  0  0  0  0
 11 14  1  0  0  0  0
 14 15  1  0  0  0  0
 14 16  1  0  0  0  0
 14 17  1  0  0  0  0
 17 18  1  0  0  0  0
 17 19  1  0  0  0  0
 17 20  1  0  0  0  0
M  END
> <VConfSearch Rank>
347

> <Conf_Id>
3

> <Delta U+W>
3.093

> <U+W>
-33.184

> <U>
25.256

> <W>
-58.439

> <W(PB)>
-60.337

> <W(SA)>
1.898

> <Valence>
4.963

> <Coulomb>
19.511

> <VdW>
0.782

> <VdW6>
-5.429

> <VdW12>
6.211

> <Bond>
0.174

> <Angle>
1.377

> <Pdih>
3.412

> <Idih>
0.000

> <Tether>
0.000

$$$$
VeraChem MOL file


 20 19  0  0  0  0  0  0  0  0999 V2000     
   18.4780   19.2058   20.8415 N   0  3  0  0  0  0  0  0  0  0  0  0
   17.4999   18.9186   20.7490 H   0  0  0  0  0  0  0  0  0  0  0  0
   19.0157   18.6743   20.1514 H   0  0  0  0  0  0  0  0  0  0  0  0
   18.5312   20.1927   20.5772 H   0  0  0  0  0  0  0  0  0  0  0  0
   18.9889   18.9793   22.2379 C   0  0  2  0  0  0  0  0  0  0  0  0
   18.8896   17.9069   22.4305 H   0  0  0  0  0  0  0  0  0  0  0  0
   18.1190   19.7387   23.2561 C   0  0  0  0  0  0  0  0  0  0  0  0
   18.3894   19.4750   24.2851 H   0  0  0  0  0  0  0  0  0  0  0  0
   17.0598   19.4861   23.1243 H   0  0  0  0  0  0  0  0  0  0  0  0
   18.2272   20.8241   23.1395 H   0  0  0  0  0  0  0  0  0  0  0  0
   20.4848   19.3577   22.3551 C   0  0  0  0  0  0  0  0  0  0  0  0
   21.0395   18.8491   21.5557 H   0  0  0  0  0  0  0  0  0  0  0  0
   20.6030   20.4336   22.1705 H   0  0  0  0  0  0  0  0  0  0  0  0
   21.1466   19.0010   23.7108 C   0  0  0  0  0  0  0  0  0  0  0  0
   20.7025   19.5955   24.5205 H   0  0  0  0  0  0  0  0  0  0  0  0
   22.2059   19.2911   23.6722 H   0  0  0  0  0  0  0  0  0  0  0  0
   21.0516   17.4969   24.0543 C   0  0  0  0  0  0  0  0  0  0  0  0
   21.4875   16.8814   23.2566 H   0  0  0  0  0  0  0  0  0  0  0  0
   20.0109   17.1818   24.2015 H   0  0  0  0  0  0  0  0  0  0  0  0
   21.5972   17.2790   24.9815 H   0  0  0  0  0  0  0  0  0  0  0  0
  1  2  1  0  0  0  0
  1  3  1  0  0  0  0
  1  4  1  0  0  0  0
  1  5  1  0  0  0  0
  5  6  1  0  0  0  0
  5  7  1  0  0  0  0
  7  8  1  0  0  0  0
  7  9  1  0  0  0  0
  7 10  1  0  0  0  0
  5 11  1  0  0  0  0
 11 12  1  0  0  0  0
 11 13  1  0  0  0  0
 11 14  1  0  0  0  0
 14 15  1  0  0  0  0
 14 16  1  0  0  0  0
 14 17  1  0  0  0  0
 17 18  1  0  0  0  0
 17 19  1  0  0  0  0
 17 20  1  0  0  0  0
M  END
> <VConfSearch Rank>
348

> <Conf_Id>
64

> <Delta U+W>
0.544

> <U+W>
-35.732

> <U>
22.800

> <W>
-58.532

> <W(PB)>
-60.437

> <W(SA)>
1.905

> <Valence>
2.662

> <Coulomb>
19.485

> <VdW>
0.653

> <VdW6>
-5.460

> <VdW12>
6.113

> <Bond>
0.174

> <Angle>
1.378

> <Pdih>
1.109

> <Idih>
0.000

> <Tether>
0.000

$$$$
VeraChem MOL file


 20 19  0  0  0  0  0  0  0  0999 V2000     
   19.0131   18.0187   20.9513 N   0  3  0  0  0  0  0  0  0  0  0  0
   19.7964   18.5607   20.5798 H   0  0  0  0  0  0  0  0  0  0  0  0
   18.2025   18.2047   20.3548 H   0  0  0  0  0  0  0  0  0  0  0  0
   19.2472   17.0279   20.8449 H   0  0  0  0  0  0  0  0  0  0  0  0
   18.7319   18.3701   22.3873 C   0  0  2  0  0  0  0  0  0  0  0  0
   17.8794   17.7517   22.6852 H   0  0  0  0  0  0  0  0  0  0  0  0
   18.3005   19.8400   22.5175 C   0  0  0  0  0  0  0  0  0  0  0  0
   19.0582   20.5186   22.1087 H   0  0  0  0  0  0  0  0  0  0  0  0
   18.1243   20.1043   23.5675 H   0  0  0  0  0  0  0  0  0  0  0  0
   17.3666   20.0148   21.9695 H   0  0  0  0  0  0  0  0  0  0  0  0
   19.9079   18.0001   23.3259 C   0  0  0  0  0  0  0  0  0  0  0  0
   19.5891   18.1116   24.3706 H   0  0  0  0  0  0  0  0  0  0  0  0
   20.1046   16.9275   23.1979 H   0  0  0  0  0  0  0  0  0  0  0  0
   21.2384   18.7696   23.0962 C   0  0  0  0  0  0  0  0  0  0  0  0
   21.3552   19.0437   22.0395 H   0  0  0  0  0  0  0  0  0  0  0  0
   22.0736   18.0921   23.3234 H   0  0  0  0  0  0  0  0  0  0  0  0
   21.3905   20.0222   23.9911 C   0  0  0  0  0  0  0  0  0  0  0  0
   20.6154   20.7700   23.7911 H   0  0  0  0  0  0  0  0  0  0  0  0
   22.3633   20.5005   23.8185 H   0  0  0  0  0  0  0  0  0  0  0  0
   21.3366   19.7544   25.0543 H   0  0  0  0  0  0  0  0  0  0  0  0
  1  2  1  0  0  0  0
  1  3  1  0  0  0  0
  1  4  1  0  0  0  0
  1  5  1  0  0  0  0
  5  6  1  0  0  0  0
  5  7  1  0  0  0  0
  7  8  1  0  0  0  0
  7  9  1  0  0  0  0
  7 10  1  0  0  0  0
  5 11  1  0  0  0  0
 11 12  1  0  0  0  0
 11 13  1  0  0  0  0
 11 14  1  0  0  0  0
 14 15  1  0  0  0  0
 14 16  1  0  0  0  0
 14 17  1  0  0  0  0
 17 18  1  0  0  0  0
 17 19  1  0  0  0  0
 17 20  1  0  0  0  0
M  END
> <VConfSearch Rank>
349

> <Conf_Id>
35

> <Delta U+W>
3.004

> <U+W>
-33.272

> <U>
25.367

> <W>
-58.639

> <W(PB)>
-60.512

> <W(SA)>
1.873

> <Valence>
4.943

> <Coulomb>
19.661

> <VdW>
0.764

> <VdW6>
-5.871

> <VdW12>
6.636

> <Bond>
0.230

> <Angle>
1.857

> <Pdih>
2.855

> <Idih>
0.000

> <Tether>
0.000

$$$$
VeraChem MOL file


 20 19  0  0  0  0  0  0  0  0999 V2000     
   18.1904   19.0676   21.9481 N   0  3  0  0  0  0  0  0  0  0  0  0
   17.7635   19.4421   21.0966 H   0  0  0  0  0  0  0  0  0  0  0  0
   17.4368   18.9091   22.6223 H   0  0  0  0  0  0  0  0  0  0  0  0
   18.5922   18.1566   21.7186 H   0  0  0  0  0  0  0  0  0  0  0  0
   19.2345   20.0001   22.4983 C   0  0  2  0  0  0  0  0  0  0  0  0
   18.7004   20.9262   22.7328 H   0  0  0  0  0  0  0  0  0  0  0  0
   20.2978   20.3403   21.4389 C   0  0  0  0  0  0  0  0  0  0  0  0
   20.8159   19.4421   21.0823 H   0  0  0  0  0  0  0  0  0  0  0  0
   21.0463   21.0306   21.8470 H   0  0  0  0  0  0  0  0  0  0  0  0
   19.8345   20.8268   20.5719 H   0  0  0  0  0  0  0  0  0  0  0  0
   19.8610   19.4961   23.8237 C   0  0  0  0  0  0  0  0  0  0  0  0
   20.3557   20.3508   24.3035 H   0  0  0  0  0  0  0  0  0  0  0  0
   19.0549   19.2044   24.5096 H   0  0  0  0  0  0  0  0  0  0  0  0
   20.8963   18.3404   23.7289 C   0  0  0  0  0  0  0  0  0  0  0  0
   21.2722   18.1379   24.7416 H   0  0  0  0  0  0  0  0  0  0  0  0
   21.7723   18.6603   23.1484 H   0  0  0  0  0  0  0  0  0  0  0  0
   20.3398   17.0216   23.1458 C   0  0  0  0  0  0  0  0  0  0  0  0
   19.4129   16.7220   23.6521 H   0  0  0  0  0  0  0  0  0  0  0  0
   21.0679   16.2107   23.2782 H   0  0  0  0  0  0  0  0  0  0  0  0
   20.1454   17.1060   22.0704 H   0  0  0  0  0  0  0  0  0  0  0  0
  1  2  1  0  0  0  0
  1  3  1  0  0  0  0
  1  4  1  0  0  0  0
  1  5  1  0  0  0  0
  5  6  1  0  0  0  0
  5  7  1  0  0  0  0
  7  8  1  0  0  0  0
  7  9  1  0  0  0  0
  7 10  1  0  0  0  0
  5 11  1  0  0  0  0
 11 12  1  0  0  0  0
 11 13  1  0  0  0  0
 11 14  1  0  0  0  0
 14 15  1  0  0  0  0
 14 16  1  0  0  0  0
 14 17  1  0  0  0  0
 17 18  1  0  0  0  0
 17 19  1  0  0  0  0
 17 20  1  0  0  0  0
M  END
> <VConfSearch Rank>
350

> <Conf_Id>
55

> <Delta U+W>
2.767

> <U+W>
-33.509

> <U>
24.552

> <W>
-58.061

> <W(PB)>
-59.930

> <W(SA)>
1.869

> <Valence>
3.726

> <Coulomb>
20.219

> <VdW>
0.606

> <VdW6>
-6.395

> <VdW12>
7.001

> <Bond>
0.241

> <Angle>
2.098

> <Pdih>
1.387

> <Idih>
0.000

> <Tether>
0.000

$$$$
VeraChem MOL file


 20 19  0  0  0  0  0  0  0  0999 V2000     
   21.0494   19.5858   24.0562 N   0  3  0  0  0  0  0  0  0  0  0  0
   21.6204   20.1564   23.4278 H   0  0  0  0  0  0  0  0  0  0  0  0
   21.6406   19.3191   24.8480 H   0  0  0  0  0  0  0  0  0  0  0  0
   20.3036   20.1831   24.4217 H   0  0  0  0  0  0  0  0  0  0  0  0
   20.4940   18.3773   23.3518 C   0  0  2  0  0  0  0  0  0  0  0  0
   19.8980   17.8297   24.0885 H   0  0  0  0  0  0  0  0  0  0  0  0
   21.6319   17.4594   22.8756 C   0  0  0  0  0  0  0  0  0  0  0  0
   22.2673   17.1592   23.7179 H   0  0  0  0  0  0  0  0  0  0  0  0
   22.2639   17.9624   22.1330 H   0  0  0  0  0  0  0  0  0  0  0  0
   21.2311   16.5454   22.4199 H   0  0  0  0  0  0  0  0  0  0  0  0
   19.5744   18.7506   22.1681 C   0  0  0  0  0  0  0  0  0  0  0  0
   20.1438   19.3227   21.4236 H   0  0  0  0  0  0  0  0  0  0  0  0
   19.2464   17.8285   21.6699 H   0  0  0  0  0  0  0  0  0  0  0  0
   18.3250   19.5545   22.6020 C   0  0  0  0  0  0  0  0  0  0  0  0
   18.6257   20.5096   23.0534 H   0  0  0  0  0  0  0  0  0  0  0  0
   17.7753   18.9968   23.3734 H   0  0  0  0  0  0  0  0  0  0  0  0
   17.3864   19.8368   21.4092 C   0  0  0  0  0  0  0  0  0  0  0  0
   17.8987   20.4201   20.6329 H   0  0  0  0  0  0  0  0  0  0  0  0
   16.5073   20.4083   21.7343 H   0  0  0  0  0  0  0  0  0  0  0  0
   17.0309   18.9024   20.9556 H   0  0  0  0  0  0  0  0  0  0  0  0
  1  2  1  0  0  0  0
  1  3  1  0  0  0  0
  1  4  1  0  0  0  0
  1  5  1  0  0  0  0
  5  6  1  0  0  0  0
  5  7  1  0  0  0  0
  7  8  1  0  0  0  0
  7  9  1  0  0  0  0
  7 10  1  0  0  0  0
  5 11  1  0  0  0  0
 11 12  1  0  0  0  0
 11 13  1  0  0  0  0
 11 14  1  0  0  0  0
 14 15  1  0  0  0  0
 14 16  1  0  0  0  0
 14 17  1  0  0  0  0
 17 18  1  0  0  0  0
 17 19  1  0  0  0  0
 17 20  1  0  0  0  0
M  END
> <VConfSearch Rank>
351

> <Conf_Id>
74

> <Delta U+W>
0.000

> <U+W>
-36.276

> <U>
22.080

> <W>
-58.356

> <W(PB)>
-60.289

> <W(SA)>
1.932

> <Valence>
1.885

> <Coulomb>
19.559

> <VdW>
0.637

> <VdW6>
-4.482

> <VdW12>
5.119

> <Bond>
0.136

> <Angle>
0.867

> <Pdih>
0.882

> <Idih>
0.000

> <Tether>
0.000

$$$$
VeraChem MOL file


 20 19  0  0  0  0  0  0  0  0999 V2000     
   18.2453   19.9689   24.2738 N   0  3  0  0  0  0  0  0  0  0  0  0
   17.4149   20.1211   23.6949 H   0  0  0  0  0  0  0  0  0  0  0  0
   18.7275   20.8671   24.3601 H   0  0  0  0  0  0  0  0  0  0  0  0
   17.9184   19.7083   25.2081 H   0  0  0  0  0  0  0  0  0  0  0  0
   19.1437   18.9131   23.6902 C   0  0  2  0  0  0  0  0  0  0  0  0
   18.5486   17.9960   23.6392 H   0  0  0  0  0  0  0  0  0  0  0  0
   20.3456   18.6616   24.6192 C   0  0  0  0  0  0  0  0  0  0  0  0
   20.0066   18.4514   25.6410 H   0  0  0  0  0  0  0  0  0  0  0  0
   21.0098   19.5341   24.6543 H   0  0  0  0  0  0  0  0  0  0  0  0
   20.9315   17.7963   24.2888 H   0  0  0  0  0  0  0  0  0  0  0  0
   19.5838   19.2842   22.2549 C   0  0  0  0  0  0  0  0  0  0  0  0
   18.6905   19.5553   21.6768 H   0  0  0  0  0  0  0  0  0  0  0  0
   20.2191   20.1794   22.2828 H   0  0  0  0  0  0  0  0  0  0  0  0
   20.3220   18.1436   21.5125 C   0  0  0  0  0  0  0  0  0  0  0  0
   19.7131   17.2289   21.5393 H   0  0  0  0  0  0  0  0  0  0  0  0
   21.2692   17.9107   22.0169 H   0  0  0  0  0  0  0  0  0  0  0  0
   20.6185   18.5178   20.0442 C   0  0  0  0  0  0  0  0  0  0  0  0
   19.6911   18.7167   19.4914 H   0  0  0  0  0  0  0  0  0  0  0  0
   21.1448   17.7003   19.5345 H   0  0  0  0  0  0  0  0  0  0  0  0
   21.2505   19.4135   19.9850 H   0  0  0  0  0  0  0  0  0  0  0  0
  1  2  1  0  0  0  0
  1  3  1  0  0  0  0
  1  4  1  0  0  0  0
  1  5  1  0  0  0  0
  5  6  1  0  0  0  0
  5  7  1  0  0  0  0
  7  8  1  0  0  0  0
  7  9  1  0  0  0  0
  7 10  1  0  0  0  0
  5 11  1  0  0  0  0
 11 12  1  0  0  0  0
 11 13  1  0  0  0  0
 11 14  1  0  0  0  0
 14 15  1  0  0  0  0
 14 16  1  0  0  0  0
 14 17  1  0  0  0  0
 17 18  1  0  0  0  0
 17 19  1  0  0  0  0
 17 20  1  0  0  0  0
M  END
> <VConfSearch Rank>
352

> <Conf_Id>
80

> <Delta U+W>
0.460

> <U+W>
-35.817

> <U>
22.495

> <W>
-58.311

> <W(PB)>
-60.259

> <W(SA)>
1.948

> <Valence>
2.419

> <Coulomb>
19.304

> <VdW>
0.772

> <VdW6>
-4.635

> <VdW12>
5.407

> <Bond>
0.149

> <Angle>
1.142

> <Pdih>
1.129

> <Idih>
0.000

> <Tether>
0.000

$$$$
VeraChem MOL file


 20 19  0  0  0  0  0  0  0  0999 V2000     
   21.9741   18.2895   23.4248 N   0  3  0  0  0  0  0  0  0  0  0  0
   21.9579   17.5032   24.0801 H   0  0  0  0  0  0  0  0  0  0  0  0
   22.1259   19.1409   23.9714 H   0  0  0  0  0  0  0  0  0  0  0  0
   22.7924   18.1645   22.8230 H   0  0  0  0  0  0  0  0  0  0  0  0
   20.7056   18.3689   22.6202 C   0  0  2  0  0  0  0  0  0  0  0  0
   20.6325   17.4256   22.0700 H   0  0  0  0  0  0  0  0  0  0  0  0
   20.7954   19.5136   21.5965 C   0  0  0  0  0  0  0  0  0  0  0  0
   21.7271   19.4471   21.0216 H   0  0  0  0  0  0  0  0  0  0  0  0
   20.7688   20.4927   22.0906 H   0  0  0  0  0  0  0  0  0  0  0  0
   19.9701   19.4626   20.8773 H   0  0  0  0  0  0  0  0  0  0  0  0
   19.4680   18.4832   23.5435 C   0  0  0  0  0  0  0  0  0  0  0  0
   19.5114   17.6497   24.2570 H   0  0  0  0  0  0  0  0  0  0  0  0
   19.5293   19.3974   24.1487 H   0  0  0  0  0  0  0  0  0  0  0  0
   18.0990   18.4115   22.8168 C   0  0  0  0  0  0  0  0  0  0  0  0
   17.3936   17.8577   23.4523 H   0  0  0  0  0  0  0  0  0  0  0  0
   18.1888   17.8291   21.8890 H   0  0  0  0  0  0  0  0  0  0  0  0
   17.4848   19.8007   22.5236 C   0  0  0  0  0  0  0  0  0  0  0  0
   17.3211   20.3609   23.4534 H   0  0  0  0  0  0  0  0  0  0  0  0
   16.5126   19.6933   22.0253 H   0  0  0  0  0  0  0  0  0  0  0  0
   18.1253   20.4071   21.8736 H   0  0  0  0  0  0  0  0  0  0  0  0
  1  2  1  0  0  0  0
  1  3  1  0  0  0  0
  1  4  1  0  0  0  0
  1  5  1  0  0  0  0
  5  6  1  0  0  0  0
  5  7  1  0  0  0  0
  7  8  1  0  0  0  0
  7  9  1  0  0  0  0
  7 10  1  0  0  0  0
  5 11  1  0  0  0  0
 11 12  1  0  0  0  0
 11 13  1  0  0  0  0
 11 14  1  0  0  0  0
 14 15  1  0  0  0  0
 14 16  1  0  0  0  0
 14 17  1  0  0  0  0
 17 18  1  0  0  0  0
 17 19  1  0  0  0  0
 17 20  1  0  0  0  0
M  END
> <VConfSearch Rank>
353

> <Conf_Id>
52

> <Delta U+W>
2.995

> <U+W>
-33.282

> <U>
25.224

> <W>
-58.506

> <W(PB)>
-60.411

> <W(SA)>
1.905

> <Valence>
4.945

> <Coulomb>
19.467

> <VdW>
0.813

> <VdW6>
-5.458

> <VdW12>
6.270

> <Bond>
0.200

> <Angle>
1.675

> <Pdih>
3.070

> <Idih>
0.000

> <Tether>
0.000

$$$$
VeraChem MOL file


 20 19  0  0  0  0  0  0  0  0999 V2000     
   20.5821   19.3429   24.0984 N   0  3  0  0  0  0  0  0  0  0  0  0
   19.9823   19.9857   24.6213 H   0  0  0  0  0  0  0  0  0  0  0  0
   21.5369   19.4632   24.4471 H   0  0  0  0  0  0  0  0  0  0  0  0
   20.2862   18.3921   24.3295 H   0  0  0  0  0  0  0  0  0  0  0  0
   20.4984   19.5963   22.6179 C   0  0  2  0  0  0  0  0  0  0  0  0
   21.1983   18.9086   22.1332 H   0  0  0  0  0  0  0  0  0  0  0  0
   20.9462   21.0350   22.3088 C   0  0  0  0  0  0  0  0  0  0  0  0
   20.2661   21.7682   22.7603 H   0  0  0  0  0  0  0  0  0  0  0  0
   20.9711   21.2130   21.2266 H   0  0  0  0  0  0  0  0  0  0  0  0
   21.9552   21.2200   22.6973 H   0  0  0  0  0  0  0  0  0  0  0  0
   19.0853   19.3361   22.0438 C   0  0  0  0  0  0  0  0  0  0  0  0
   18.3291   19.8184   22.6772 H   0  0  0  0  0  0  0  0  0  0  0  0
   19.0105   19.8248   21.0631 H   0  0  0  0  0  0  0  0  0  0  0  0
   18.7329   17.8396   21.8365 C   0  0  0  0  0  0  0  0  0  0  0  0
   19.4679   17.3759   21.1636 H   0  0  0  0  0  0  0  0  0  0  0  0
   17.7677   17.7846   21.3137 H   0  0  0  0  0  0  0  0  0  0  0  0
   18.6295   17.0107   23.1371 C   0  0  0  0  0  0  0  0  0  0  0  0
   18.1848   16.0293   22.9263 H   0  0  0  0  0  0  0  0  0  0  0  0
   17.9940   17.5103   23.8799 H   0  0  0  0  0  0  0  0  0  0  0  0
   19.6157   16.8256   23.5782 H   0  0  0  0  0  0  0  0  0  0  0  0
  1  2  1  0  0  0  0
  1  3  1  0  0  0  0
  1  4  1  0  0  0  0
  1  5  1  0  0  0  0
  5  6  1  0  0  0  0
  5  7  1  0  0  0  0
  7  8  1  0  0  0  0
  7  9  1  0  0  0  0
  7 10  1  0  0  0  0
  5 11  1  0  0  0  0
 11 12  1  0  0  0  0
 11 13  1  0  0  0  0
 11 14  1  0  0  0  0
 14 15  1  0  0  0  0
 14 16  1  0  0  0  0
 14 17  1  0  0  0  0
 17 18  1  0  0  0  0
 17 19  1  0  0  0  0
 17 20  1  0  0  0  0
M  END
> <VConfSearch Rank>
354

> <Conf_Id>
54

> <Delta U+W>
2.752

> <U+W>
-33.525

> <U>
24.337

> <W>
-57.862

> <W(PB)>
-59.764

> <W(SA)>
1.901

> <Valence>
3.593

> <Coulomb>
20.067

> <VdW>
0.677

> <VdW6>
-5.466

> <VdW12>
6.144

> <Bond>
0.191

> <Angle>
1.557

> <Pdih>
1.845

> <Idih>
0.000

> <Tether>
0.000

$$$$
VeraChem MOL file


 20 19  0  0  0  0  0  0  0  0999 V2000     
   21.7052   18.2692   22.6712 N   0  3  0  0  0  0  0  0  0  0  0  0
   22.5735   18.2142   23.2104 H   0  0  0  0  0  0  0  0  0  0  0  0
   21.9636   18.2920   21.6810 H   0  0  0  0  0  0  0  0  0  0  0  0
   21.1892   17.4017   22.8343 H   0  0  0  0  0  0  0  0  0  0  0  0
   20.8918   19.4743   23.0586 C   0  0  2  0  0  0  0  0  0  0  0  0
   21.5284   20.3436   22.8662 H   0  0  0  0  0  0  0  0  0  0  0  0
   20.5667   19.4617   24.5629 C   0  0  0  0  0  0  0  0  0  0  0  0
   19.9722   20.3408   24.8409 H   0  0  0  0  0  0  0  0  0  0  0  0
   21.4898   19.4846   25.1549 H   0  0  0  0  0  0  0  0  0  0  0  0
   20.0075   18.5634   24.8501 H   0  0  0  0  0  0  0  0  0  0  0  0
   19.6212   19.6361   22.1900 C   0  0  0  0  0  0  0  0  0  0  0  0
   19.1252   20.5771   22.4623 H   0  0  0  0  0  0  0  0  0  0  0  0
   19.9293   19.7505   21.1424 H   0  0  0  0  0  0  0  0  0  0  0  0
   18.6030   18.4715   22.2963 C   0  0  0  0  0  0  0  0  0  0  0  0
   18.2431   18.3743   23.3293 H   0  0  0  0  0  0  0  0  0  0  0  0
   19.0862   17.5202   22.0360 H   0  0  0  0  0  0  0  0  0  0  0  0
   17.3917   18.6916   21.3648 C   0  0  0  0  0  0  0  0  0  0  0  0
   16.6792   17.8611   21.4524 H   0  0  0  0  0  0  0  0  0  0  0  0
   17.7065   18.7550   20.3150 H   0  0  0  0  0  0  0  0  0  0  0  0
   16.8609   19.6183   21.6190 H   0  0  0  0  0  0  0  0  0  0  0  0
  1  2  1  0  0  0  0
  1  3  1  0  0  0  0
  1  4  1  0  0  0  0
  1  5  1  0  0  0  0
  5  6  1  0  0  0  0
  5  7  1  0  0  0  0
  7  8  1  0  0  0  0
  7  9  1  0  0  0  0
  7 10  1  0  0  0  0
  5 11  1  0  0  0  0
 11 12  1  0  0  0  0
 11 13  1  0  0  0  0
 11 14  1  0  0  0  0
 14 15  1  0  0  0  0
 14 16  1  0  0  0  0
 14 17  1  0  0  0  0
 17 18  1  0  0  0  0
 17 19  1  0  0  0  0
 17 20  1  0  0  0  0
M  END
> <VConfSearch Rank>
355

> <Conf_Id>
63

> <Delta U+W>
0.420

> <U+W>
-35.856

> <U>
22.625

> <W>
-58.481

> <W(PB)>
-60.400

> <W(SA)>
1.919

> <Valence>
2.404

> <Coulomb>
19.464

> <VdW>
0.757

> <VdW6>
-5.074

> <VdW12>
5.830

> <Bond>
0.172

> <Angle>
1.207

> <Pdih>
1.025

> <Idih>
0.000

> <Tether>
0.000

$$$$
VeraChem MOL file


 20 19  0  0  0  0  0  0  0  0999 V2000     
   21.1483   19.5103   21.9150 N   0  3  0  0  0  0  0  0  0  0  0  0
   21.1949   18.5442   21.5811 H   0  0  0  0  0  0  0  0  0  0  0  0
   21.9150   19.6440   22.5789 H   0  0  0  0  0  0  0  0  0  0  0  0
   21.3284   20.1200   21.1129 H   0  0  0  0  0  0  0  0  0  0  0  0
   19.8148   19.8071   22.5457 C   0  0  2  0  0  0  0  0  0  0  0  0
   19.0578   19.6434   21.7729 H   0  0  0  0  0  0  0  0  0  0  0  0
   19.7379   21.2779   22.9864 C   0  0  0  0  0  0  0  0  0  0  0  0
   19.9187   21.9479   22.1369 H   0  0  0  0  0  0  0  0  0  0  0  0
   20.4821   21.5003   23.7614 H   0  0  0  0  0  0  0  0  0  0  0  0
   18.7448   21.5126   23.3893 H   0  0  0  0  0  0  0  0  0  0  0  0
   19.5025   18.8717   23.7358 C   0  0  0  0  0  0  0  0  0  0  0  0
   20.2433   19.0331   24.5302 H   0  0  0  0  0  0  0  0  0  0  0  0
   18.5297   19.1496   24.1629 H   0  0  0  0  0  0  0  0  0  0  0  0
   19.4723   17.3661   23.3694 C   0  0  0  0  0  0  0  0  0  0  0  0
   19.2483   16.7870   24.2762 H   0  0  0  0  0  0  0  0  0  0  0  0
   20.4662   17.0355   23.0384 H   0  0  0  0  0  0  0  0  0  0  0  0
   18.4225   17.0269   22.2867 C   0  0  0  0  0  0  0  0  0  0  0  0
   17.4193   17.3485   22.5956 H   0  0  0  0  0  0  0  0  0  0  0  0
   18.3872   15.9439   22.1113 H   0  0  0  0  0  0  0  0  0  0  0  0
   18.6574   17.5092   21.3296 H   0  0  0  0  0  0  0  0  0  0  0  0
  1  2  1  0  0  0  0
  1  3  1  0  0  0  0
  1  4  1  0  0  0  0
  1  5  1  0  0  0  0
  5  6  1  0  0  0  0
  5  7  1  0  0  0  0
  7  8  1  0  0  0  0
  7  9  1  0  0  0  0
  7 10  1  0  0  0  0
  5 11  1  0  0  0  0
 11 12  1  0  0  0  0
 11 13  1  0  0  0  0
 11 14  1  0  0  0  0
 14 15  1  0  0  0  0
 14 16  1  0  0  0  0
 14 17  1  0  0  0  0
 17 18  1  0  0  0  0
 17 19  1  0  0  0  0
 17 20  1  0  0  0  0
M  END
> <VConfSearch Rank>
356

> <Conf_Id>
50

> <Delta U+W>
0.466

> <U+W>
-35.811

> <U>
22.369

> <W>
-58.180

> <W(PB)>
-60.103

> <W(SA)>
1.923

> <Valence>
2.168

> <Coulomb>
19.636

> <VdW>
0.566

> <VdW6>
-5.263

> <VdW12>
5.829

> <Bond>
0.162

> <Angle>
1.066

> <Pdih>
0.939

> <Idih>
0.000

> <Tether>
0.000

$$$$
VeraChem MOL file


 20 19  0  0  0  0  0  0  0  0999 V2000     
   19.0424   20.4566   21.1908 N   0  3  0  0  0  0  0  0  0  0  0  0
   19.6263   21.2754   21.3822 H   0  0  0  0  0  0  0  0  0  0  0  0
   18.0761   20.7101   21.4117 H   0  0  0  0  0  0  0  0  0  0  0  0
   19.0883   20.2816   20.1834 H   0  0  0  0  0  0  0  0  0  0  0  0
   19.4934   19.2568   21.9793 C   0  0  2  0  0  0  0  0  0  0  0  0
   20.5288   19.0671   21.6799 H   0  0  0  0  0  0  0  0  0  0  0  0
   18.6391   18.0305   21.6073 C   0  0  0  0  0  0  0  0  0  0  0  0
   17.5819   18.1976   21.8481 H   0  0  0  0  0  0  0  0  0  0  0  0
   18.9679   17.1331   22.1424 H   0  0  0  0  0  0  0  0  0  0  0  0
   18.7126   17.8201   20.5334 H   0  0  0  0  0  0  0  0  0  0  0  0
   19.4746   19.5267   23.5041 C   0  0  0  0  0  0  0  0  0  0  0  0
   19.4329   20.6103   23.6769 H   0  0  0  0  0  0  0  0  0  0  0  0
   18.5590   19.1205   23.9544 H   0  0  0  0  0  0  0  0  0  0  0  0
   20.7205   18.9882   24.2521 C   0  0  0  0  0  0  0  0  0  0  0  0
   20.6559   19.2932   25.3060 H   0  0  0  0  0  0  0  0  0  0  0  0
   21.6250   19.4669   23.8511 H   0  0  0  0  0  0  0  0  0  0  0  0
   20.8819   17.4533   24.1881 C   0  0  0  0  0  0  0  0  0  0  0  0
   19.9762   16.9444   24.5428 H   0  0  0  0  0  0  0  0  0  0  0  0
   21.7176   17.1290   24.8217 H   0  0  0  0  0  0  0  0  0  0  0  0
   21.0950   17.1147   23.1665 H   0  0  0  0  0  0  0  0  0  0  0  0
  1  2  1  0  0  0  0
  1  3  1  0  0  0  0
  1  4  1  0  0  0  0
  1  5  1  0  0  0  0
  5  6  1  0  0  0  0
  5  7  1  0  0  0  0
  7  8  1  0  0  0  0
  7  9  1  0  0  0  0
  7 10  1  0  0  0  0
  5 11  1  0  0  0  0
 11 12  1  0  0  0  0
 11 13  1  0  0  0  0
 11 14  1  0  0  0  0
 14 15  1  0  0  0  0
 14 16  1  0  0  0  0
 14 17  1  0  0  0  0
 17 18  1  0  0  0  0
 17 19  1  0  0  0  0
 17 20  1  0  0  0  0
M  END
> <VConfSearch Rank>
357

> <Conf_Id>
3

> <Delta U+W>
3.093

> <U+W>
-33.184

> <U>
25.256

> <W>
-58.439

> <W(PB)>
-60.337

> <W(SA)>
1.898

> <Valence>
4.963

> <Coulomb>
19.511

> <VdW>
0.782

> <VdW6>
-5.429

> <VdW12>
6.211

> <Bond>
0.174

> <Angle>
1.377

> <Pdih>
3.412

> <Idih>
0.000

> <Tether>
0.000

$$$$
VeraChem MOL file


 20 19  0  0  0  0  0  0  0  0999 V2000     
   18.0033   20.4838   22.8849 N   0  3  0  0  0  0  0  0  0  0  0  0
   17.3432   20.5317   23.6656 H   0  0  0  0  0  0  0  0  0  0  0  0
   17.4570   20.3082   22.0373 H   0  0  0  0  0  0  0  0  0  0  0  0
   18.4283   21.4095   22.7891 H   0  0  0  0  0  0  0  0  0  0  0  0
   19.0424   19.4191   23.1065 C   0  0  2  0  0  0  0  0  0  0  0  0
   18.4982   18.4745   23.2003 H   0  0  0  0  0  0  0  0  0  0  0  0
   19.8004   19.6761   24.4216 C   0  0  0  0  0  0  0  0  0  0  0  0
   20.4626   18.8384   24.6691 H   0  0  0  0  0  0  0  0  0  0  0  0
   19.0984   19.7922   25.2563 H   0  0  0  0  0  0  0  0  0  0  0  0
   20.4077   20.5875   24.3583 H   0  0  0  0  0  0  0  0  0  0  0  0
   19.9998   19.3102   21.8957 C   0  0  0  0  0  0  0  0  0  0  0  0
   19.4000   19.2088   20.9816 H   0  0  0  0  0  0  0  0  0  0  0  0
   20.5597   20.2489   21.7896 H   0  0  0  0  0  0  0  0  0  0  0  0
   21.0005   18.1278   21.9558 C   0  0  0  0  0  0  0  0  0  0  0  0
   21.7062   18.2670   22.7858 H   0  0  0  0  0  0  0  0  0  0  0  0
   21.6089   18.1350   21.0406 H   0  0  0  0  0  0  0  0  0  0  0  0
   20.3065   16.7527   22.0848 C   0  0  0  0  0  0  0  0  0  0  0  0
   19.5930   16.5920   21.2661 H   0  0  0  0  0  0  0  0  0  0  0  0
   19.7653   16.6617   23.0350 H   0  0  0  0  0  0  0  0  0  0  0  0
   21.0470   15.9433   22.0474 H   0  0  0  0  0  0  0  0  0  0  0  0
  1  2  1  0  0  0  0
  1  3  1  0  0  0  0
  1  4  1  0  0  0  0
  1  5  1  0  0  0  0
  5  6  1  0  0  0  0
  5  7  1  0  0  0  0
  7  8  1  0  0  0  0
  7  9  1  0  0  0  0
  7 10  1  0  0  0  0
  5 11  1  0  0  0  0
 11 12  1  0  0  0  0
 11 13  1  0  0  0  0
 11 14  1  0  0  0  0
 14 15  1  0  0  0  0
 14 16  1  0  0  0  0
 14 17  1  0  0  0  0
 17 18  1  0  0  0  0
 17 19  1  0  0  0  0
 17 20  1  0  0  0  0
M  END
> <VConfSearch Rank>
358

> <Conf_Id>
64

> <Delta U+W>
0.544

> <U+W>
-35.732

> <U>
22.800

> <W>
-58.532

> <W(PB)>
-60.437

> <W(SA)>
1.905

> <Valence>
2.662

> <Coulomb>
19.485

> <VdW>
0.653

> <VdW6>
-5.460

> <VdW12>
6.113

> <Bond>
0.174

> <Angle>
1.378

> <Pdih>
1.109

> <Idih>
0.000

> <Tether>
0.000

$$$$
VeraChem MOL file


 20 19  0  0  0  0  0  0  0  0999 V2000     
   19.0449   20.7275   23.5036 N   0  3  0  0  0  0  0  0  0  0  0  0
   19.8516   20.5446   24.1045 H   0  0  0  0  0  0  0  0  0  0  0  0
   18.2572   20.9637   24.1130 H   0  0  0  0  0  0  0  0  0  0  0  0
   19.2585   21.5597   22.9474 H   0  0  0  0  0  0  0  0  0  0  0  0
   18.7290   19.5436   22.6299 C   0  0  2  0  0  0  0  0  0  0  0  0
   17.8535   19.8324   22.0399 H   0  0  0  0  0  0  0  0  0  0  0  0
   18.3288   18.3264   23.4797 C   0  0  0  0  0  0  0  0  0  0  0  0
   19.1143   18.0619   24.1971 H   0  0  0  0  0  0  0  0  0  0  0  0
   18.1275   17.4552   22.8443 H   0  0  0  0  0  0  0  0  0  0  0  0
   17.4163   18.5406   24.0492 H   0  0  0  0  0  0  0  0  0  0  0  0
   19.8672   19.2316   21.6258 C   0  0  0  0  0  0  0  0  0  0  0  0
   19.5198   18.4818   20.9030 H   0  0  0  0  0  0  0  0  0  0  0  0
   20.0421   20.1409   21.0357 H   0  0  0  0  0  0  0  0  0  0  0  0
   21.2219   18.7825   22.2409 C   0  0  0  0  0  0  0  0  0  0  0  0
   21.3768   19.2425   23.2256 H   0  0  0  0  0  0  0  0  0  0  0  0
   22.0335   19.1605   21.6034 H   0  0  0  0  0  0  0  0  0  0  0  0
   21.3766   17.2466   22.3405 C   0  0  0  0  0  0  0  0  0  0  0  0
   20.6258   16.7971   22.9994 H   0  0  0  0  0  0  0  0  0  0  0  0
   22.3652   16.9862   22.7402 H   0  0  0  0  0  0  0  0  0  0  0  0
   21.2844   16.7775   21.3523 H   0  0  0  0  0  0  0  0  0  0  0  0
  1  2  1  0  0  0  0
  1  3  1  0  0  0  0
  1  4  1  0  0  0  0
  1  5  1  0  0  0  0
  5  6  1  0  0  0  0
  5  7  1  0  0  0  0
  7  8  1  0  0  0  0
  7  9  1  0  0  0  0
  7 10  1  0  0  0  0
  5 11  1  0  0  0  0
 11 12  1  0  0  0  0
 11 13  1  0  0  0  0
 11 14  1  0  0  0  0
 14 15  1  0  0  0  0
 14 16  1  0  0  0  0
 14 17  1  0  0  0  0
 17 18  1  0  0  0  0
 17 19  1  0  0  0  0
 17 20  1  0  0  0  0
M  END
> <VConfSearch Rank>
359

> <Conf_Id>
35

> <Delta U+W>
3.004

> <U+W>
-33.272

> <U>
25.367

> <W>
-58.639

> <W(PB)>
-60.512

> <W(SA)>
1.873

> <Valence>
4.943

> <Coulomb>
19.661

> <VdW>
0.764

> <VdW6>
-5.871

> <VdW12>
6.636

> <Bond>
0.230

> <Angle>
1.857

> <Pdih>
2.855

> <Idih>
0.000

> <Tether>
0.000

$$$$
VeraChem MOL file


 20 19  0  0  0  0  0  0  0  0999 V2000     
   21.3399   18.6082   21.8677 N   0  3  0  0  0  0  0  0  0  0  0  0
   22.0357   17.8582   21.8378 H   0  0  0  0  0  0  0  0  0  0  0  0
   21.7782   19.4461   21.4760 H   0  0  0  0  0  0  0  0  0  0  0  0
   20.5732   18.3448   21.2458 H   0  0  0  0  0  0  0  0  0  0  0  0
   20.8469   18.8482   23.2684 C   0  0  2  0  0  0  0  0  0  0  0  0
   21.7319   19.1462   23.8394 H   0  0  0  0  0  0  0  0  0  0  0  0
   20.3068   17.5543   23.9029 C   0  0  0  0  0  0  0  0  0  0  0  0
   19.4704   17.1397   23.3277 H   0  0  0  0  0  0  0  0  0  0  0  0
   19.9622   17.7383   24.9280 H   0  0  0  0  0  0  0  0  0  0  0  0
   21.0933   16.7912   23.9484 H   0  0  0  0  0  0  0  0  0  0  0  0
   19.8364   20.0198   23.3641 C   0  0  0  0  0  0  0  0  0  0  0  0
   19.7775   20.3227   24.4178 H   0  0  0  0  0  0  0  0  0  0  0  0
   20.2484   20.8888   22.8346 H   0  0  0  0  0  0  0  0  0  0  0  0
   18.3882   19.7550   22.8648 C   0  0  0  0  0  0  0  0  0  0  0  0
   17.7962   20.6635   23.0440 H   0  0  0  0  0  0  0  0  0  0  0  0
   17.9140   18.9707   23.4703 H   0  0  0  0  0  0  0  0  0  0  0  0
   18.2783   19.3926   21.3663 C   0  0  0  0  0  0  0  0  0  0  0  0
   18.8184   20.1155   20.7410 H   0  0  0  0  0  0  0  0  0  0  0  0
   17.2271   19.3997   21.0500 H   0  0  0  0  0  0  0  0  0  0  0  0
   18.6676   18.3882   21.1642 H   0  0  0  0  0  0  0  0  0  0  0  0
  1  2  1  0  0  0  0
  1  3  1  0  0  0  0
  1  4  1  0  0  0  0
  1  5  1  0  0  0  0
  5  6  1  0  0  0  0
  5  7  1  0  0  0  0
  7  8  1  0  0  0  0
  7  9  1  0  0  0  0
  7 10  1  0  0  0  0
  5 11  1  0  0  0  0
 11 12  1  0  0  0  0
 11 13  1  0  0  0  0
 11 14  1  0  0  0  0
 14 15  1  0  0  0  0
 14 16  1  0  0  0  0
 14 17  1  0  0  0  0
 17 18  1  0  0  0  0
 17 19  1  0  0  0  0
 17 20  1  0  0  0  0
M  END
> <VConfSearch Rank>
360

> <Conf_Id>
55

> <Delta U+W>
2.767

> <U+W>
-33.509

> <U>
24.552

> <W>
-58.061

> <W(PB)>
-59.930

> <W(SA)>
1.869

> <Valence>
3.726

> <Coulomb>
20.219

> <VdW>
0.606

> <VdW6>
-6.395

> <VdW12>
7.001

> <Bond>
0.241

> <Angle>
2.098

> <Pdih>
1.387

> <Idih>
0.000

> <Tether>
0.000

$$$$
VeraChem MOL file


 20 19  0  0  0  0  0  0  0  0999 V2000     
   20.3967   17.0986   22.5930 N   0  3  0  0  0  0  0  0  0  0  0  0
   19.5411   16.6821   22.2175 H   0  0  0  0  0  0  0  0  0  0  0  0
   20.9169   16.3540   23.0649 H   0  0  0  0  0  0  0  0  0  0  0  0
   20.9624   17.4079   21.7988 H   0  0  0  0  0  0  0  0  0  0  0  0
   20.0911   18.2361   23.5299 C   0  0  2  0  0  0  0  0  0  0  0  0
   21.0534   18.6234   23.8792 H   0  0  0  0  0  0  0  0  0  0  0  0
   19.3032   17.7334   24.7507 C   0  0  0  0  0  0  0  0  0  0  0  0
   19.8557   16.9409   25.2704 H   0  0  0  0  0  0  0  0  0  0  0  0
   18.3261   17.3313   24.4551 H   0  0  0  0  0  0  0  0  0  0  0  0
   19.1350   18.5462   25.4682 H   0  0  0  0  0  0  0  0  0  0  0  0
   19.3301   19.3878   22.8368 C   0  0  0  0  0  0  0  0  0  0  0  0
   18.3687   19.0190   22.4553 H   0  0  0  0  0  0  0  0  0  0  0  0
   19.0955   20.1575   23.5842 H   0  0  0  0  0  0  0  0  0  0  0  0
   20.1344   20.0390   21.6859 C   0  0  0  0  0  0  0  0  0  0  0  0
   20.3336   19.3013   20.8969 H   0  0  0  0  0  0  0  0  0  0  0  0
   21.1113   20.3757   22.0611 H   0  0  0  0  0  0  0  0  0  0  0  0
   19.3816   21.2391   21.0724 C   0  0  0  0  0  0  0  0  0  0  0  0
   18.4124   20.9287   20.6607 H   0  0  0  0  0  0  0  0  0  0  0  0
   19.9651   21.6875   20.2578 H   0  0  0  0  0  0  0  0  0  0  0  0
   19.1998   22.0184   21.8240 H   0  0  0  0  0  0  0  0  0  0  0  0
  1  2  1  0  0  0  0
  1  3  1  0  0  0  0
  1  4  1  0  0  0  0
  1  5  1  0  0  0  0
  5  6  1  0  0  0  0
  5  7  1  0  0  0  0
  7  8  1  0  0  0  0
  7  9  1  0  0  0  0
  7 10  1  0  0  0  0
  5 11  1  0  0  0  0
 11 12  1  0  0  0  0
 11 13  1  0  0  0  0
 11 14  1  0  0  0  0
 14 15  1  0  0  0  0
 14 16  1  0  0  0  0
 14 17  1  0  0  0  0
 17 18  1  0  0  0  0
 17 19  1  0  0  0  0
 17 20  1  0  0  0  0
M  END
> <VConfSearch Rank>
361

> <Conf_Id>
74

> <Delta U+W>
0.000

> <U+W>
-36.276

> <U>
22.080

> <W>
-58.356

> <W(PB)>
-60.289

> <W(SA)>
1.932

> <Valence>
1.885

> <Coulomb>
19.559

> <VdW>
0.637

> <VdW6>
-4.482

> <VdW12>
5.119

> <Bond>
0.136

> <Angle>
0.867

> <Pdih>
0.882

> <Idih>
0.000

> <Tether>
0.000

$$$$
VeraChem MOL file


 20 19  0  0  0  0  0  0  0  0999 V2000     
   20.3999   17.3658   21.0395 N   0  3  0  0  0  0  0  0  0  0  0  0
   20.8192   17.9791   20.3352 H   0  0  0  0  0  0  0  0  0  0  0  0
   19.4668   17.1105   20.7067 H   0  0  0  0  0  0  0  0  0  0  0  0
   20.9588   16.5087   21.0648 H   0  0  0  0  0  0  0  0  0  0  0  0
   20.3437   18.0269   22.3894 C   0  0  2  0  0  0  0  0  0  0  0  0
   21.3779   18.2591   22.6620 H   0  0  0  0  0  0  0  0  0  0  0  0
   19.7716   17.0540   23.4368 C   0  0  0  0  0  0  0  0  0  0  0  0
   20.3200   16.1041   23.4219 H   0  0  0  0  0  0  0  0  0  0  0  0
   18.7136   16.8386   23.2428 H   0  0  0  0  0  0  0  0  0  0  0  0
   19.8594   17.4617   24.4504 H   0  0  0  0  0  0  0  0  0  0  0  0
   19.5500   19.3528   22.3303 C   0  0  0  0  0  0  0  0  0  0  0  0
   19.9373   19.9526   21.4961 H   0  0  0  0  0  0  0  0  0  0  0  0
   18.4970   19.1434   22.0995 H   0  0  0  0  0  0  0  0  0  0  0  0
   19.6426   20.1954   23.6259 C   0  0  0  0  0  0  0  0  0  0  0  0
   20.6975   20.3517   23.8919 H   0  0  0  0  0  0  0  0  0  0  0  0
   19.1788   19.6583   24.4639 H   0  0  0  0  0  0  0  0  0  0  0  0
   18.9472   21.5646   23.4659 C   0  0  0  0  0  0  0  0  0  0  0  0
   19.4112   22.1529   22.6634 H   0  0  0  0  0  0  0  0  0  0  0  0
   19.0191   22.1467   24.3938 H   0  0  0  0  0  0  0  0  0  0  0  0
   17.8827   21.4413   23.2276 H   0  0  0  0  0  0  0  0  0  0  0  0
  1  2  1  0  0  0  0
  1  3  1  0  0  0  0
  1  4  1  0  0  0  0
  1  5  1  0  0  0  0
  5  6  1  0  0  0  0
  5  7  1  0  0  0  0
  7  8  1  0  0  0  0
  7  9  1  0  0  0  0
  7 10  1  0  0  0  0
  5 11  1  0  0  0  0
 11 12  1  0  0  0  0
 11 13  1  0  0  0  0
 11 14  1  0  0  0  0
 14 15  1  0  0  0  0
 14 16  1  0  0  0  0
 14 17  1  0  0  0  0
 17 18  1  0  0  0  0
 17 19  1  0  0  0  0
 17 20  1  0  0  0  0
M  END
> <VConfSearch Rank>
362

> <Conf_Id>
80

> <Delta U+W>
0.460

> <U+W>
-35.817

> <U>
22.495

> <W>
-58.311

> <W(PB)>
-60.259

> <W(SA)>
1.948

> <Valence>
2.419

> <Coulomb>
19.304

> <VdW>
0.772

> <VdW6>
-4.635

> <VdW12>
5.407

> <Bond>
0.149

> <Angle>
1.142

> <Pdih>
1.129

> <Idih>
0.000

> <Tether>
0.000

$$$$
VeraChem MOL file


 20 19  0  0  0  0  0  0  0  0999 V2000     
   21.0008   20.3931   21.3352 N   0  3  0  0  0  0  0  0  0  0  0  0
   22.0085   20.2517   21.4459 H   0  0  0  0  0  0  0  0  0  0  0  0
   20.7488   21.2310   21.8654 H   0  0  0  0  0  0  0  0  0  0  0  0
   20.8309   20.5963   20.3465 H   0  0  0  0  0  0  0  0  0  0  0  0
   20.2174   19.1934   21.7933 C   0  0  2  0  0  0  0  0  0  0  0  0
   20.5476   18.3561   21.1708 H   0  0  0  0  0  0  0  0  0  0  0  0
   18.7153   19.4114   21.5435 C   0  0  0  0  0  0  0  0  0  0  0  0
   18.5374   19.7373   20.5114 H   0  0  0  0  0  0  0  0  0  0  0  0
   18.3061   20.1744   22.2173 H   0  0  0  0  0  0  0  0  0  0  0  0
   18.1543   18.4810   21.6875 H   0  0  0  0  0  0  0  0  0  0  0  0
   20.5383   18.8505   23.2687 C   0  0  0  0  0  0  0  0  0  0  0  0
   21.6285   18.7509   23.3539 H   0  0  0  0  0  0  0  0  0  0  0  0
   20.2636   19.6895   23.9217 H   0  0  0  0  0  0  0  0  0  0  0  0
   19.9020   17.5346   23.7893 C   0  0  0  0  0  0  0  0  0  0  0  0
   20.6154   17.0445   24.4667 H   0  0  0  0  0  0  0  0  0  0  0  0
   19.7443   16.8318   22.9591 H   0  0  0  0  0  0  0  0  0  0  0  0
   18.5829   17.7549   24.5668 C   0  0  0  0  0  0  0  0  0  0  0  0
   18.7467   18.3959   25.4428 H   0  0  0  0  0  0  0  0  0  0  0  0
   18.1844   16.7973   24.9262 H   0  0  0  0  0  0  0  0  0  0  0  0
   17.8107   18.2234   23.9466 H   0  0  0  0  0  0  0  0  0  0  0  0
  1  2  1  0  0  0  0
  1  3  1  0  0  0  0
  1  4  1  0  0  0  0
  1  5  1  0  0  0  0
  5  6  1  0  0  0  0
  5  7  1  0  0  0  0
  7  8  1  0  0  0  0
  7  9  1  0  0  0  0
  7 10  1  0  0  0  0
  5 11  1  0  0  0  0
 11 12  1  0  0  0  0
 11 13  1  0  0  0  0
 11 14  1  0  0  0  0
 14 15  1  0  0  0  0
 14 16  1  0  0  0  0
 14 17  1  0  0  0  0
 17 18  1  0  0  0  0
 17 19  1  0  0  0  0
 17 20  1  0  0  0  0
M  END
> <VConfSearch Rank>
363

> <Conf_Id>
52

> <Delta U+W>
2.995

> <U+W>
-33.282

> <U>
25.224

> <W>
-58.506

> <W(PB)>
-60.411

> <W(SA)>
1.905

> <Valence>
4.945

> <Coulomb>
19.467

> <VdW>
0.813

> <VdW6>
-5.458

> <VdW12>
6.270

> <Bond>
0.200

> <Angle>
1.675

> <Pdih>
3.070

> <Idih>
0.000

> <Tether>
0.000

$$$$
VeraChem MOL file


 20 19  0  0  0  0  0  0  0  0999 V2000     
   20.3214   19.6291   21.3531 N   0  3  0  0  0  0  0  0  0  0  0  0
   20.1480   20.6348   21.4234 H   0  0  0  0  0  0  0  0  0  0  0  0
   20.4300   19.4060   20.3601 H   0  0  0  0  0  0  0  0  0  0  0  0
   21.2151   19.4400   21.8118 H   0  0  0  0  0  0  0  0  0  0  0  0
   19.2073   18.8354   21.9793 C   0  0  2  0  0  0  0  0  0  0  0  0
   19.4382   17.7772   21.8229 H   0  0  0  0  0  0  0  0  0  0  0  0
   17.8802   19.1483   21.2675 C   0  0  0  0  0  0  0  0  0  0  0  0
   17.5927   20.1980   21.4067 H   0  0  0  0  0  0  0  0  0  0  0  0
   17.0703   18.5178   21.6552 H   0  0  0  0  0  0  0  0  0  0  0  0
   17.9618   18.9560   20.1907 H   0  0  0  0  0  0  0  0  0  0  0  0
   19.0752   19.0844   23.5007 C   0  0  0  0  0  0  0  0  0  0  0  0
   19.0984   20.1626   23.7072 H   0  0  0  0  0  0  0  0  0  0  0  0
   18.0856   18.7380   23.8274 H   0  0  0  0  0  0  0  0  0  0  0  0
   20.1271   18.3506   24.3735 C   0  0  0  0  0  0  0  0  0  0  0  0
   20.0650   17.2677   24.1959 H   0  0  0  0  0  0  0  0  0  0  0  0
   19.8596   18.4994   25.4291 H   0  0  0  0  0  0  0  0  0  0  0  0
   21.5843   18.8241   24.1697 C   0  0  0  0  0  0  0  0  0  0  0  0
   22.2306   18.4090   24.9541 H   0  0  0  0  0  0  0  0  0  0  0  0
   21.6600   19.9181   24.2218 H   0  0  0  0  0  0  0  0  0  0  0  0
   21.9895   18.4839   23.2097 H   0  0  0  0  0  0  0  0  0  0  0  0
  1  2  1  0  0  0  0
  1  3  1  0  0  0  0
  1  4  1  0  0  0  0
  1  5  1  0  0  0  0
  5  6  1  0  0  0  0
  5  7  1  0  0  0  0
  7  8  1  0  0  0  0
  7  9  1  0  0  0  0
  7 10  1  0  0  0  0
  5 11  1  0  0  0  0
 11 12  1  0  0  0  0
 11 13  1  0  0  0  0
 11 14  1  0  0  0  0
 14 15  1  0  0  0  0
 14 16  1  0  0  0  0
 14 17  1  0  0  0  0
 17 18  1  0  0  0  0
 17 19  1  0  0  0  0
 17 20  1  0  0  0  0
M  END
> <VConfSearch Rank>
364

> <Conf_Id>
54

> <Delta U+W>
2.752

> <U+W>
-33.525

> <U>
24.337

> <W>
-57.862

> <W(PB)>
-59.764

> <W(SA)>
1.901

> <Valence>
3.593

> <Coulomb>
20.067

> <VdW>
0.677

> <VdW6>
-5.466

> <VdW12>
6.144

> <Bond>
0.191

> <Angle>
1.557

> <Pdih>
1.845

> <Idih>
0.000

> <Tether>
0.000

$$$$
VeraChem MOL file


 20 19  0  0  0  0  0  0  0  0999 V2000     
   19.8767   17.1310   21.7345 N   0  3  0  0  0  0  0  0  0  0  0  0
   19.3299   16.3431   21.3768 H   0  0  0  0  0  0  0  0  0  0  0  0
   20.7927   16.7654   22.0084 H   0  0  0  0  0  0  0  0  0  0  0  0
   20.0241   17.7783   20.9569 H   0  0  0  0  0  0  0  0  0  0  0  0
   19.1828   17.8047   22.8872 C   0  0  2  0  0  0  0  0  0  0  0  0
   19.0553   17.0353   23.6552 H   0  0  0  0  0  0  0  0  0  0  0  0
   17.7802   18.2907   22.4806 C   0  0  0  0  0  0  0  0  0  0  0  0
   17.2784   18.7828   23.3230 H   0  0  0  0  0  0  0  0  0  0  0  0
   17.1557   17.4438   22.1712 H   0  0  0  0  0  0  0  0  0  0  0  0
   17.8221   18.9984   21.6442 H   0  0  0  0  0  0  0  0  0  0  0  0
   20.0331   18.9375   23.5108 C   0  0  0  0  0  0  0  0  0  0  0  0
   19.5114   19.3234   24.3966 H   0  0  0  0  0  0  0  0  0  0  0  0
   20.9719   18.5039   23.8795 H   0  0  0  0  0  0  0  0  0  0  0  0
   20.3575   20.1145   22.5549 C   0  0  0  0  0  0  0  0  0  0  0  0
   19.4303   20.5951   22.2153 H   0  0  0  0  0  0  0  0  0  0  0  0
   20.8717   19.7440   21.6580 H   0  0  0  0  0  0  0  0  0  0  0  0
   21.2456   21.1739   23.2421 C   0  0  0  0  0  0  0  0  0  0  0  0
   21.4649   22.0011   22.5546 H   0  0  0  0  0  0  0  0  0  0  0  0
   22.2021   20.7405   23.5625 H   0  0  0  0  0  0  0  0  0  0  0  0
   20.7477   21.5940   24.1257 H   0  0  0  0  0  0  0  0  0  0  0  0
  1  2  1  0  0  0  0
  1  3  1  0  0  0  0
  1  4  1  0  0  0  0
  1  5  1  0  0  0  0
  5  6  1  0  0  0  0
  5  7  1  0  0  0  0
  7  8  1  0  0  0  0
  7  9  1  0  0  0  0
  7 10  1  0  0  0  0
  5 11  1  0  0  0  0
 11 12  1  0  0  0  0
 11 13  1  0  0  0  0
 11 14  1  0  0  0  0
 14 15  1  0  0  0  0
 14 16  1  0  0  0  0
 14 17  1  0  0  0  0
 17 18  1  0  0  0  0
 17 19  1  0  0  0  0
 17 20  1  0  0  0  0
M  END
> <VConfSearch Rank>
365

> <Conf_Id>
63

> <Delta U+W>
0.420

> <U+W>
-35.856

> <U>
22.625

> <W>
-58.481

> <W(PB)>
-60.400

> <W(SA)>
1.919

> <Valence>
2.404

> <Coulomb>
19.464

> <VdW>
0.757

> <VdW6>
-5.074

> <VdW12>
5.830

> <Bond>
0.172

> <Angle>
1.207

> <Pdih>
1.025

> <Idih>
0.000

> <Tether>
0.000

$$$$
VeraChem MOL file


 20 19  0  0  0  0  0  0  0  0999 V2000     
   20.4494   19.6201   24.2252 N   0  3  0  0  0  0  0  0  0  0  0  0
   19.6080   20.1974   24.3008 H   0  0  0  0  0  0  0  0  0  0  0  0
   21.2263   20.2387   23.9799 H   0  0  0  0  0  0  0  0  0  0  0  0
   20.6434   19.2393   25.1552 H   0  0  0  0  0  0  0  0  0  0  0  0
   20.2726   18.5267   23.2067 C   0  0  2  0  0  0  0  0  0  0  0  0
   19.4306   17.9151   23.5445 H   0  0  0  0  0  0  0  0  0  0  0  0
   21.5210   17.6314   23.1488 C   0  0  0  0  0  0  0  0  0  0  0  0
   21.7396   17.2054   24.1357 H   0  0  0  0  0  0  0  0  0  0  0  0
   22.4011   18.1972   22.8184 H   0  0  0  0  0  0  0  0  0  0  0  0
   21.3703   16.7970   22.4527 H   0  0  0  0  0  0  0  0  0  0  0  0
   19.9390   19.0765   21.8012 C   0  0  0  0  0  0  0  0  0  0  0  0
   20.7806   19.6808   21.4372 H   0  0  0  0  0  0  0  0  0  0  0  0
   19.8413   18.2350   21.1024 H   0  0  0  0  0  0  0  0  0  0  0  0
   18.6432   19.9244   21.7419 C   0  0  0  0  0  0  0  0  0  0  0  0
   18.4955   20.2710   20.7094 H   0  0  0  0  0  0  0  0  0  0  0  0
   18.7543   20.8315   22.3513 H   0  0  0  0  0  0  0  0  0  0  0  0
   17.3872   19.1440   22.1924 C   0  0  0  0  0  0  0  0  0  0  0  0
   17.2550   18.2316   21.5965 H   0  0  0  0  0  0  0  0  0  0  0  0
   16.4867   19.7590   22.0666 H   0  0  0  0  0  0  0  0  0  0  0  0
   17.4463   18.8571   23.2498 H   0  0  0  0  0  0  0  0  0  0  0  0
  1  2  1  0  0  0  0
  1  3  1  0  0  0  0
  1  4  1  0  0  0  0
  1  5  1  0  0  0  0
  5  6  1  0  0  0  0
  5  7  1  0  0  0  0
  7  8  1  0  0  0  0
  7  9  1  0  0  0  0
  7 10  1  0  0  0  0
  5 11  1  0  0  0  0
 11 12  1  0  0  0  0
 11 13  1  0  0  0  0
 11 14  1  0  0  0  0
 14 15  1  0  0  0  0
 14 16  1  0  0  0  0
 14 17  1  0  0  0  0
 17 18  1  0  0  0  0
 17 19  1  0  0  0  0
 17 20  1  0  0  0  0
M  END
> <VConfSearch Rank>
366

> <Conf_Id>
50

> <Delta U+W>
0.466

> <U+W>
-35.811

> <U>
22.369

> <W>
-58.180

> <W(PB)>
-60.103

> <W(SA)>
1.923

> <Valence>
2.168

> <Coulomb>
19.636

> <VdW>
0.566

> <VdW6>
-5.263

> <VdW12>
5.829

> <Bond>
0.162

> <Angle>
1.066

> <Pdih>
0.939

> <Idih>
0.000

> <Tether>
0.000

$$$$
VeraChem MOL file


 20 19  0  0  0  0  0  0  0  0999 V2000     
   17.9952   17.5026   22.0471 N   0  3  0  0  0  0  0  0  0  0  0  0
   17.3457   17.4605   22.8373 H   0  0  0  0  0  0  0  0  0  0  0  0
   18.4044   16.5714   21.9357 H   0  0  0  0  0  0  0  0  0  0  0  0
   17.4394   17.6929   21.2089 H   0  0  0  0  0  0  0  0  0  0  0  0
   19.0548   18.5508   22.2548 C   0  0  2  0  0  0  0  0  0  0  0  0
   18.5249   19.5019   22.3659 H   0  0  0  0  0  0  0  0  0  0  0  0
   19.9639   18.6340   21.0144 C   0  0  0  0  0  0  0  0  0  0  0  0
   20.4801   17.6821   20.8382 H   0  0  0  0  0  0  0  0  0  0  0  0
   20.7251   19.4139   21.1243 H   0  0  0  0  0  0  0  0  0  0  0  0
   19.3754   18.8708   20.1195 H   0  0  0  0  0  0  0  0  0  0  0  0
   19.8706   18.3000   23.5470 C   0  0  0  0  0  0  0  0  0  0  0  0
   19.3192   17.6017   24.1904 H   0  0  0  0  0  0  0  0  0  0  0  0
   20.8186   17.7984   23.3110 H   0  0  0  0  0  0  0  0  0  0  0  0
   20.1378   19.5801   24.3788 C   0  0  0  0  0  0  0  0  0  0  0  0
   20.6502   19.2940   25.3081 H   0  0  0  0  0  0  0  0  0  0  0  0
   19.1808   20.0268   24.6832 H   0  0  0  0  0  0  0  0  0  0  0  0
   20.9896   20.6421   23.6487 C   0  0  0  0  0  0  0  0  0  0  0  0
   21.9364   20.2151   23.2935 H   0  0  0  0  0  0  0  0  0  0  0  0
   21.2301   21.4721   24.3256 H   0  0  0  0  0  0  0  0  0  0  0  0
   20.4535   21.0649   22.7899 H   0  0  0  0  0  0  0  0  0  0  0  0
  1  2  1  0  0  0  0
  1  3  1  0  0  0  0
  1  4  1  0  0  0  0
  1  5  1  0  0  0  0
  5  6  1  0  0  0  0
  5  7  1  0  0  0  0
  7  8  1  0  0  0  0
  7  9  1  0  0  0  0
  7 10  1  0  0  0  0
  5 11  1  0  0  0  0
 11 12  1  0  0  0  0
 11 13  1  0  0  0  0
 11 14  1  0  0  0  0
 14 15  1  0  0  0  0
 14 16  1  0  0  0  0
 14 17  1  0  0  0  0
 17 18  1  0  0  0  0
 17 19  1  0  0  0  0
 17 20  1  0  0  0  0
M  END
> <VConfSearch Rank>
367

> <Conf_Id>
3

> <Delta U+W>
3.093

> <U+W>
-33.184

> <U>
25.256

> <W>
-58.439

> <W(PB)>
-60.337

> <W(SA)>
1.898

> <Valence>
4.963

> <Coulomb>
19.511

> <VdW>
0.782

> <VdW6>
-5.429

> <VdW12>
6.211

> <Bond>
0.174

> <Angle>
1.377

> <Pdih>
3.412

> <Idih>
0.000

> <Tether>
0.000

$$$$
VeraChem MOL file


 20 19  0  0  0  0  0  0  0  0999 V2000     
   19.4139   16.7125   23.1861 N   0  3  0  0  0  0  0  0  0  0  0  0
   18.8679   16.3546   23.9744 H   0  0  0  0  0  0  0  0  0  0  0  0
   20.3743   16.3798   23.3075 H   0  0  0  0  0  0  0  0  0  0  0  0
   19.0438   16.2770   22.3375 H   0  0  0  0  0  0  0  0  0  0  0  0
   19.3516   18.2134   23.1092 C   0  0  2  0  0  0  0  0  0  0  0  0
   19.7609   18.5859   24.0530 H   0  0  0  0  0  0  0  0  0  0  0  0
   17.8902   18.6835   22.9937 C   0  0  0  0  0  0  0  0  0  0  0  0
   17.8155   19.7739   23.0769 H   0  0  0  0  0  0  0  0  0  0  0  0
   17.2812   18.2543   23.7987 H   0  0  0  0  0  0  0  0  0  0  0  0
   17.4501   18.3807   22.0356 H   0  0  0  0  0  0  0  0  0  0  0  0
   20.2282   18.7517   21.9532 C   0  0  0  0  0  0  0  0  0  0  0  0
   21.2336   18.3198   22.0442 H   0  0  0  0  0  0  0  0  0  0  0  0
   19.8281   18.3922   20.9959 H   0  0  0  0  0  0  0  0  0  0  0  0
   20.3638   20.2950   21.8976 C   0  0  0  0  0  0  0  0  0  0  0  0
   19.3923   20.7556   21.6734 H   0  0  0  0  0  0  0  0  0  0  0  0
   21.0222   20.5603   21.0585 H   0  0  0  0  0  0  0  0  0  0  0  0
   20.9414   20.8997   23.1976 C   0  0  0  0  0  0  0  0  0  0  0  0
   21.9129   20.4517   23.4440 H   0  0  0  0  0  0  0  0  0  0  0  0
   20.2662   20.7455   24.0487 H   0  0  0  0  0  0  0  0  0  0  0  0
   21.0902   21.9815   23.0855 H   0  0  0  0  0  0  0  0  0  0  0  0
  1  2  1  0  0  0  0
  1  3  1  0  0  0  0
  1  4  1  0  0  0  0
  1  5  1  0  0  0  0
  5  6  1  0  0  0  0
  5  7  1  0  0  0  0
  7  8  1  0  0  0  0
  7  9  1  0  0  0  0
  7 10  1  0  0  0  0
  5 11  1  0  0  0  0
 11 12  1  0  0  0  0
 11 13  1  0  0  0  0
 11 14  1  0  0  0  0
 14 15  1  0  0  0  0
 14 16  1  0  0  0  0
 14 17  1  0  0  0  0
 17 18  1  0  0  0  0
 17 19  1  0  0  0  0
 17 20  1  0  0  0  0
M  END
> <VConfSearch Rank>
368

> <Conf_Id>
64

> <Delta U+W>
0.544

> <U+W>
-35.732

> <U>
22.800

> <W>
-58.532

> <W(PB)>
-60.437

> <W(SA)>
1.905

> <Valence>
2.662

> <Coulomb>
19.485

> <VdW>
0.653

> <VdW6>
-5.460

> <VdW12>
6.113

> <Bond>
0.174

> <Angle>
1.378

> <Pdih>
1.109

> <Idih>
0.000

> <Tether>
0.000

$$$$
VeraChem MOL file


 20 19  0  0  0  0  0  0  0  0999 V2000     
   17.9046   18.5211   21.8227 N   0  3  0  0  0  0  0  0  0  0  0  0
   18.5199   17.9015   21.2909 H   0  0  0  0  0  0  0  0  0  0  0  0
   17.3149   19.0178   21.1495 H   0  0  0  0  0  0  0  0  0  0  0  0
   17.2885   17.9309   22.3882 H   0  0  0  0  0  0  0  0  0  0  0  0
   18.6912   19.4785   22.6768 C   0  0  2  0  0  0  0  0  0  0  0  0
   17.9504   20.0984   23.1914 H   0  0  0  0  0  0  0  0  0  0  0  0
   19.5471   20.4132   21.8064 C   0  0  0  0  0  0  0  0  0  0  0  0
   20.2259   19.8478   21.1574 H   0  0  0  0  0  0  0  0  0  0  0  0
   20.1431   21.0911   22.4298 H   0  0  0  0  0  0  0  0  0  0  0  0
   18.9074   21.0294   21.1629 H   0  0  0  0  0  0  0  0  0  0  0  0
   19.5122   18.7531   23.7725 C   0  0  0  0  0  0  0  0  0  0  0  0
   19.9233   19.4944   24.4703 H   0  0  0  0  0  0  0  0  0  0  0  0
   18.8089   18.1563   24.3680 H   0  0  0  0  0  0  0  0  0  0  0  0
   20.6456   17.8143   23.2731 C   0  0  0  0  0  0  0  0  0  0  0  0
   20.3895   17.3735   22.3008 H   0  0  0  0  0  0  0  0  0  0  0  0
   20.7283   16.9699   23.9717 H   0  0  0  0  0  0  0  0  0  0  0  0
   22.0294   18.5016   23.1981 C   0  0  0  0  0  0  0  0  0  0  0  0
   22.0407   19.3319   22.4836 H   0  0  0  0  0  0  0  0  0  0  0  0
   22.7972   17.7836   22.8821 H   0  0  0  0  0  0  0  0  0  0  0  0
   22.3266   18.8948   24.1790 H   0  0  0  0  0  0  0  0  0  0  0  0
  1  2  1  0  0  0  0
  1  3  1  0  0  0  0
  1  4  1  0  0  0  0
  1  5  1  0  0  0  0
  5  6  1  0  0  0  0
  5  7  1  0  0  0  0
  7  8  1  0  0  0  0
  7  9  1  0  0  0  0
  7 10  1  0  0  0  0
  5 11  1  0  0  0  0
 11 12  1  0  0  0  0
 11 13  1  0  0  0  0
 11 14  1  0  0  0  0
 14 15  1  0  0  0  0
 14 16  1  0  0  0  0
 14 17  1  0  0  0  0
 17 18  1  0  0  0  0
 17 19  1  0  0  0  0
 17 20  1  0  0  0  0
M  END
> <VConfSearch Rank>
369

> <Conf_Id>
35

> <Delta U+W>
3.004

> <U+W>
-33.272

> <U>
25.367

> <W>
-58.639

> <W(PB)>
-60.512

> <W(SA)>
1.873

> <Valence>
4.943

> <Coulomb>
19.661

> <VdW>
0.764

> <VdW6>
-5.871

> <VdW12>
6.636

> <Bond>
0.230

> <Angle>
1.857

> <Pdih>
2.855

> <Idih>
0.000

> <Tether>
0.000

$$$$
VeraChem MOL file


 20 19  0  0  0  0  0  0  0  0999 V2000     
   20.7020   18.2363   21.3436 N   0  3  0  0  0  0  0  0  0  0  0  0
   20.5245   17.5953   20.5657 H   0  0  0  0  0  0  0  0  0  0  0  0
   21.7156   18.2759   21.4805 H   0  0  0  0  0  0  0  0  0  0  0  0
   20.3958   19.1672   21.0544 H   0  0  0  0  0  0  0  0  0  0  0  0
   19.9942   17.7947   22.5952 C   0  0  2  0  0  0  0  0  0  0  0  0
   20.4093   16.8096   22.8300 H   0  0  0  0  0  0  0  0  0  0  0  0
   18.4858   17.6100   22.3518 C   0  0  0  0  0  0  0  0  0  0  0  0
   18.0124   18.5412   22.0188 H   0  0  0  0  0  0  0  0  0  0  0  0
   17.9823   17.2757   23.2673 H   0  0  0  0  0  0  0  0  0  0  0  0
   18.3114   16.8505   21.5800 H   0  0  0  0  0  0  0  0  0  0  0  0
   20.2888   18.7071   23.8135 C   0  0  0  0  0  0  0  0  0  0  0  0
   20.0058   18.1541   24.7189 H   0  0  0  0  0  0  0  0  0  0  0  0
   21.3735   18.8567   23.8915 H   0  0  0  0  0  0  0  0  0  0  0  0
   19.5765   20.0881   23.8588 C   0  0  0  0  0  0  0  0  0  0  0  0
   19.8560   20.5832   24.7994 H   0  0  0  0  0  0  0  0  0  0  0  0
   18.4875   19.9536   23.9094 H   0  0  0  0  0  0  0  0  0  0  0  0
   19.9295   21.0350   22.6893 C   0  0  0  0  0  0  0  0  0  0  0  0
   21.0163   21.1208   22.5604 H   0  0  0  0  0  0  0  0  0  0  0  0
   19.5374   22.0417   22.8842 H   0  0  0  0  0  0  0  0  0  0  0  0
   19.4861   20.6948   21.7465 H   0  0  0  0  0  0  0  0  0  0  0  0
  1  2  1  0  0  0  0
  1  3  1  0  0  0  0
  1  4  1  0  0  0  0
  1  5  1  0  0  0  0
  5  6  1  0  0  0  0
  5  7  1  0  0  0  0
  7  8  1  0  0  0  0
  7  9  1  0  0  0  0
  7 10  1  0  0  0  0
  5 11  1  0  0  0  0
 11 12  1  0  0  0  0
 11 13  1  0  0  0  0
 11 14  1  0  0  0  0
 14 15  1  0  0  0  0
 14 16  1  0  0  0  0
 14 17  1  0  0  0  0
 17 18  1  0  0  0  0
 17 19  1  0  0  0  0
 17 20  1  0  0  0  0
M  END
> <VConfSearch Rank>
370

> <Conf_Id>
55

> <Delta U+W>
2.767

> <U+W>
-33.509

> <U>
24.552

> <W>
-58.061

> <W(PB)>
-59.930

> <W(SA)>
1.869

> <Valence>
3.726

> <Coulomb>
20.219

> <VdW>
0.606

> <VdW6>
-6.395

> <VdW12>
7.001

> <Bond>
0.241

> <Angle>
2.098

> <Pdih>
1.387

> <Idih>
0.000

> <Tether>
0.000

$$$$
VeraChem MOL file


 20 19  0  0  0  0  0  0  0  0999 V2000     
   19.7408   19.2869   20.7746 N   0  3  0  0  0  0  0  0  0  0  0  0
   18.7619   19.0460   20.6005 H   0  0  0  0  0  0  0  0  0  0  0  0
   20.2485   19.1552   19.8957 H   0  0  0  0  0  0  0  0  0  0  0  0
   19.7768   20.2843   20.9996 H   0  0  0  0  0  0  0  0  0  0  0  0
   20.3266   18.4499   21.8798 C   0  0  2  0  0  0  0  0  0  0  0  0
   21.3652   18.7726   22.0024 H   0  0  0  0  0  0  0  0  0  0  0  0
   20.3278   16.9630   21.4884 C   0  0  0  0  0  0  0  0  0  0  0  0
   20.8776   16.8083   20.5519 H   0  0  0  0  0  0  0  0  0  0  0  0
   19.3062   16.5873   21.3510 H   0  0  0  0  0  0  0  0  0  0  0  0
   20.8135   16.3562   22.2627 H   0  0  0  0  0  0  0  0  0  0  0  0
   19.5967   18.6500   23.2264 C   0  0  0  0  0  0  0  0  0  0  0  0
   18.5439   18.3551   23.1238 H   0  0  0  0  0  0  0  0  0  0  0  0
   20.0389   17.9763   23.9724 H   0  0  0  0  0  0  0  0  0  0  0  0
   19.6841   20.1029   23.7527 C   0  0  0  0  0  0  0  0  0  0  0  0
   19.1973   20.7917   23.0491 H   0  0  0  0  0  0  0  0  0  0  0  0
   20.7375   20.4093   23.8209 H   0  0  0  0  0  0  0  0  0  0  0  0
   19.0191   20.2481   25.1383 C   0  0  0  0  0  0  0  0  0  0  0  0
   17.9559   19.9777   25.0964 H   0  0  0  0  0  0  0  0  0  0  0  0
   19.0889   21.2839   25.4953 H   0  0  0  0  0  0  0  0  0  0  0  0
   19.5067   19.6031   25.8808 H   0  0  0  0  0  0  0  0  0  0  0  0
  1  2  1  0  0  0  0
  1  3  1  0  0  0  0
  1  4  1  0  0  0  0
  1  5  1  0  0  0  0
  5  6  1  0  0  0  0
  5  7  1  0  0  0  0
  7  8  1  0  0  0  0
  7  9  1  0  0  0  0
  7 10  1  0  0  0  0
  5 11  1  0  0  0  0
 11 12  1  0  0  0  0
 11 13  1  0  0  0  0
 11 14  1  0  0  0  0
 14 15  1  0  0  0  0
 14 16  1  0  0  0  0
 14 17  1  0  0  0  0
 17 18  1  0  0  0  0
 17 19  1  0  0  0  0
 17 20  1  0  0  0  0
M  END
> <VConfSearch Rank>
371

> <Conf_Id>
74

> <Delta U+W>
0.000

> <U+W>
-36.276

> <U>
22.080

> <W>
-58.356

> <W(PB)>
-60.289

> <W(SA)>
1.932

> <Valence>
1.885

> <Coulomb>
19.559

> <VdW>
0.637

> <VdW6>
-4.482

> <VdW12>
5.119

> <Bond>
0.136

> <Angle>
0.867

> <Pdih>
0.882

> <Idih>
0.000

> <Tether>
0.000

$$$$
VeraChem MOL file


 20 19  0  0  0  0  0  0  0  0999 V2000     
   18.3370   19.8581   21.0186 N   0  3  0  0  0  0  0  0  0  0  0  0
   18.5323   20.8590   21.1082 H   0  0  0  0  0  0  0  0  0  0  0  0
   17.4337   19.6810   21.4651 H   0  0  0  0  0  0  0  0  0  0  0  0
   18.2269   19.6600   20.0204 H   0  0  0  0  0  0  0  0  0  0  0  0
   19.4286   19.0223   21.6289 C   0  0  2  0  0  0  0  0  0  0  0  0
   20.3475   19.2749   21.0907 H   0  0  0  0  0  0  0  0  0  0  0  0
   19.1368   17.5254   21.4164 C   0  0  0  0  0  0  0  0  0  0  0  0
   18.9466   17.3155   20.3567 H   0  0  0  0  0  0  0  0  0  0  0  0
   18.2569   17.2070   21.9891 H   0  0  0  0  0  0  0  0  0  0  0  0
   19.9879   16.9056   21.7207 H   0  0  0  0  0  0  0  0  0  0  0  0
   19.6313   19.3706   23.1219 C   0  0  0  0  0  0  0  0  0  0  0  0
   19.7259   20.4606   23.2145 H   0  0  0  0  0  0  0  0  0  0  0  0
   18.7370   19.0869   23.6925 H   0  0  0  0  0  0  0  0  0  0  0  0
   20.8831   18.7135   23.7530 C   0  0  0  0  0  0  0  0  0  0  0  0
   21.7695   18.9455   23.1459 H   0  0  0  0  0  0  0  0  0  0  0  0
   20.7780   17.6204   23.7587 H   0  0  0  0  0  0  0  0  0  0  0  0
   21.1131   19.1993   25.2003 C   0  0  0  0  0  0  0  0  0  0  0  0
   21.2665   20.2859   25.2335 H   0  0  0  0  0  0  0  0  0  0  0  0
   22.0014   18.7212   25.6333 H   0  0  0  0  0  0  0  0  0  0  0  0
   20.2545   18.9557   25.8397 H   0  0  0  0  0  0  0  0  0  0  0  0
  1  2  1  0  0  0  0
  1  3  1  0  0  0  0
  1  4  1  0  0  0  0
  1  5  1  0  0  0  0
  5  6  1  0  0  0  0
  5  7  1  0  0  0  0
  7  8  1  0  0  0  0
  7  9  1  0  0  0  0
  7 10  1  0  0  0  0
  5 11  1  0  0  0  0
 11 12  1  0  0  0  0
 11 13  1  0  0  0  0
 11 14  1  0  0  0  0
 14 15  1  0  0  0  0
 14 16  1  0  0  0  0
 14 17  1  0  0  0  0
 17 18  1  0  0  0  0
 17 19  1  0  0  0  0
 17 20  1  0  0  0  0
M  END
> <VConfSearch Rank>
372

> <Conf_Id>
80

> <Delta U+W>
0.460

> <U+W>
-35.817

> <U>
22.495

> <W>
-58.311

> <W(PB)>
-60.259

> <W(SA)>
1.948

> <Valence>
2.419

> <Coulomb>
19.304

> <VdW>
0.772

> <VdW6>
-4.635

> <VdW12>
5.407

> <Bond>
0.149

> <Angle>
1.142

> <Pdih>
1.129

> <Idih>
0.000

> <Tether>
0.000

$$$$
VeraChem MOL file


 20 19  0  0  0  0  0  0  0  0999 V2000     
   21.7001   20.1869   22.1929 N   0  3  0  0  0  0  0  0  0  0  0  0
   22.1529   19.8432   21.3416 H   0  0  0  0  0  0  0  0  0  0  0  0
   22.2503   19.8538   22.9886 H   0  0  0  0  0  0  0  0  0  0  0  0
   21.7700   21.2080   22.1812 H   0  0  0  0  0  0  0  0  0  0  0  0
   20.2686   19.7339   22.2831 C   0  0  2  0  0  0  0  0  0  0  0  0
   19.7629   20.1396   21.4013 H   0  0  0  0  0  0  0  0  0  0  0  0
   19.5996   20.3293   23.5338 C   0  0  0  0  0  0  0  0  0  0  0  0
   19.7661   21.4123   23.5839 H   0  0  0  0  0  0  0  0  0  0  0  0
   19.9994   19.8800   24.4513 H   0  0  0  0  0  0  0  0  0  0  0  0
   18.5153   20.1719   23.5115 H   0  0  0  0  0  0  0  0  0  0  0  0
   20.1697   18.1898   22.2253 C   0  0  0  0  0  0  0  0  0  0  0  0
   20.7033   17.8592   21.3244 H   0  0  0  0  0  0  0  0  0  0  0  0
   20.7082   17.7432   23.0717 H   0  0  0  0  0  0  0  0  0  0  0  0
   18.7253   17.6277   22.1513 C   0  0  0  0  0  0  0  0  0  0  0  0
   18.7252   16.7480   21.4923 H   0  0  0  0  0  0  0  0  0  0  0  0
   18.0547   18.3583   21.6775 H   0  0  0  0  0  0  0  0  0  0  0  0
   18.1636   17.1924   23.5253 C   0  0  0  0  0  0  0  0  0  0  0  0
   18.7868   16.4070   23.9725 H   0  0  0  0  0  0  0  0  0  0  0  0
   17.1490   16.7883   23.4148 H   0  0  0  0  0  0  0  0  0  0  0  0
   18.1129   18.0263   24.2342 H   0  0  0  0  0  0  0  0  0  0  0  0
  1  2  1  0  0  0  0
  1  3  1  0  0  0  0
  1  4  1  0  0  0  0
  1  5  1  0  0  0  0
  5  6  1  0  0  0  0
  5  7  1  0  0  0  0
  7  8  1  0  0  0  0
  7  9  1  0  0  0  0
  7 10  1  0  0  0  0
  5 11  1  0  0  0  0
 11 12  1  0  0  0  0
 11 13  1  0  0  0  0
 11 14  1  0  0  0  0
 14 15  1  0  0  0  0
 14 16  1  0  0  0  0
 14 17  1  0  0  0  0
 17 18  1  0  0  0  0
 17 19  1  0  0  0  0
 17 20  1  0  0  0  0
M  END
> <VConfSearch Rank>
373

> <Conf_Id>
52

> <Delta U+W>
2.995

> <U+W>
-33.282

> <U>
25.224

> <W>
-58.506

> <W(PB)>
-60.411

> <W(SA)>
1.905

> <Valence>
4.945

> <Coulomb>
19.467

> <VdW>
0.813

> <VdW6>
-5.458

> <VdW12>
6.270

> <Bond>
0.200

> <Angle>
1.675

> <Pdih>
3.070

> <Idih>
0.000

> <Tether>
0.000

$$$$
VeraChem MOL file


 20 19  0  0  0  0  0  0  0  0999 V2000     
   21.3224   19.2245   22.3906 N   0  3  0  0  0  0  0  0  0  0  0  0
   21.3699   20.1497   21.9568 H   0  0  0  0  0  0  0  0  0  0  0  0
   22.1578   18.7081   22.1025 H   0  0  0  0  0  0  0  0  0  0  0  0
   21.3755   19.3582   23.4027 H   0  0  0  0  0  0  0  0  0  0  0  0
   20.0629   18.5000   22.0008 C   0  0  2  0  0  0  0  0  0  0  0  0
   20.1066   17.5076   22.4603 H   0  0  0  0  0  0  0  0  0  0  0  0
   20.0156   18.3210   20.4738 C   0  0  0  0  0  0  0  0  0  0  0  0
   19.9547   19.2897   19.9622 H   0  0  0  0  0  0  0  0  0  0  0  0
   19.1455   17.7223   20.1769 H   0  0  0  0  0  0  0  0  0  0  0  0
   20.9123   17.8008   20.1154 H   0  0  0  0  0  0  0  0  0  0  0  0
   18.7827   19.2110   22.5005 C   0  0  0  0  0  0  0  0  0  0  0  0
   18.8350   20.2830   22.2687 H   0  0  0  0  0  0  0  0  0  0  0  0
   17.9242   18.8239   21.9355 H   0  0  0  0  0  0  0  0  0  0  0  0
   18.4696   19.0045   24.0058 C   0  0  0  0  0  0  0  0  0  0  0  0
   18.3721   17.9308   24.2197 H   0  0  0  0  0  0  0  0  0  0  0  0
   17.4842   19.4447   24.2138 H   0  0  0  0  0  0  0  0  0  0  0  0
   19.4971   19.6323   24.9749 C   0  0  0  0  0  0  0  0  0  0  0  0
   19.1063   19.6207   26.0008 H   0  0  0  0  0  0  0  0  0  0  0  0
   19.7079   20.6771   24.7119 H   0  0  0  0  0  0  0  0  0  0  0  0
   20.4382   19.0705   24.9860 H   0  0  0  0  0  0  0  0  0  0  0  0
  1  2  1  0  0  0  0
  1  3  1  0  0  0  0
  1  4  1  0  0  0  0
  1  5  1  0  0  0  0
  5  6  1  0  0  0  0
  5  7  1  0  0  0  0
  7  8  1  0  0  0  0
  7  9  1  0  0  0  0
  7 10  1  0  0  0  0
  5 11  1  0  0  0  0
 11 12  1  0  0  0  0
 11 13  1  0  0  0  0
 11 14  1  0  0  0  0
 14 15  1  0  0  0  0
 14 16  1  0  0  0  0
 14 17  1  0  0  0  0
 17 18  1  0  0  0  0
 17 19  1  0  0  0  0
 17 20  1  0  0  0  0
M  END
> <VConfSearch Rank>
374

> <Conf_Id>
54

> <Delta U+W>
2.752

> <U+W>
-33.525

> <U>
24.337

> <W>
-57.862

> <W(PB)>
-59.764

> <W(SA)>
1.901

> <Valence>
3.593

> <Coulomb>
20.067

> <VdW>
0.677

> <VdW6>
-5.466

> <VdW12>
6.144

> <Bond>
0.191

> <Angle>
1.557

> <Pdih>
1.845

> <Idih>
0.000

> <Tether>
0.000

$$$$
VeraChem MOL file


 20 19  0  0  0  0  0  0  0  0999 V2000     
   17.9315   19.8524   22.3348 N   0  3  0  0  0  0  0  0  0  0  0  0
   17.0531   20.1519   22.7665 H   0  0  0  0  0  0  0  0  0  0  0  0
   17.7248   19.6113   21.3617 H   0  0  0  0  0  0  0  0  0  0  0  0
   18.5579   20.6604   22.3249 H   0  0  0  0  0  0  0  0  0  0  0  0
   18.5412   18.6927   23.0745 C   0  0  2  0  0  0  0  0  0  0  0  0
   17.7969   17.8906   23.0461 H   0  0  0  0  0  0  0  0  0  0  0  0
   18.7854   19.0463   24.5524 C   0  0  0  0  0  0  0  0  0  0  0  0
   19.2315   18.1990   25.0877 H   0  0  0  0  0  0  0  0  0  0  0  0
   17.8388   19.2915   25.0494 H   0  0  0  0  0  0  0  0  0  0  0  0
   19.4524   19.9099   24.6586 H   0  0  0  0  0  0  0  0  0  0  0  0
   19.8190   18.1560   22.3858 C   0  0  0  0  0  0  0  0  0  0  0  0
   20.1593   17.2603   22.9222 H   0  0  0  0  0  0  0  0  0  0  0  0
   19.5531   17.8188   21.3754 H   0  0  0  0  0  0  0  0  0  0  0  0
   20.9875   19.1710   22.2920 C   0  0  0  0  0  0  0  0  0  0  0  0
   21.3029   19.4815   23.2971 H   0  0  0  0  0  0  0  0  0  0  0  0
   20.6608   20.0780   21.7659 H   0  0  0  0  0  0  0  0  0  0  0  0
   22.2016   18.5700   21.5517 C   0  0  0  0  0  0  0  0  0  0  0  0
   23.0208   19.2986   21.4951 H   0  0  0  0  0  0  0  0  0  0  0  0
   21.9365   18.2820   20.5261 H   0  0  0  0  0  0  0  0  0  0  0  0
   22.5792   17.6790   22.0702 H   0  0  0  0  0  0  0  0  0  0  0  0
  1  2  1  0  0  0  0
  1  3  1  0  0  0  0
  1  4  1  0  0  0  0
  1  5  1  0  0  0  0
  5  6  1  0  0  0  0
  5  7  1  0  0  0  0
  7  8  1  0  0  0  0
  7  9  1  0  0  0  0
  7 10  1  0  0  0  0
  5 11  1  0  0  0  0
 11 12  1  0  0  0  0
 11 13  1  0  0  0  0
 11 14  1  0  0  0  0
 14 15  1  0  0  0  0
 14 16  1  0  0  0  0
 14 17  1  0  0  0  0
 17 18  1  0  0  0  0
 17 19  1  0  0  0  0
 17 20  1  0  0  0  0
M  END
> <VConfSearch Rank>
375

> <Conf_Id>
63

> <Delta U+W>
0.420

> <U+W>
-35.856

> <U>
22.625

> <W>
-58.481

> <W(PB)>
-60.400

> <W(SA)>
1.919

> <Valence>
2.404

> <Coulomb>
19.464

> <VdW>
0.757

> <VdW6>
-5.074

> <VdW12>
5.830

> <Bond>
0.172

> <Angle>
1.207

> <Pdih>
1.025

> <Idih>
0.000

> <Tether>
0.000

$$$$
VeraChem MOL file


 20 19  0  0  0  0  0  0  0  0999 V2000     
   18.0522   19.6288   22.9923 N   0  3  0  0  0  0  0  0  0  0  0  0
   18.3706   20.3926   22.3906 H   0  0  0  0  0  0  0  0  0  0  0  0
   17.9489   20.0043   23.9382 H   0  0  0  0  0  0  0  0  0  0  0  0
   17.1210   19.3529   22.6692 H   0  0  0  0  0  0  0  0  0  0  0  0
   19.0129   18.4711   22.9608 C   0  0  2  0  0  0  0  0  0  0  0  0
   19.0619   18.1310   21.9220 H   0  0  0  0  0  0  0  0  0  0  0  0
   18.4906   17.3084   23.8204 C   0  0  0  0  0  0  0  0  0  0  0  0
   17.4962   16.9917   23.4825 H   0  0  0  0  0  0  0  0  0  0  0  0
   18.4169   17.5965   24.8765 H   0  0  0  0  0  0  0  0  0  0  0  0
   19.1579   16.4405   23.7489 H   0  0  0  0  0  0  0  0  0  0  0  0
   20.4372   18.8726   23.4069 C   0  0  0  0  0  0  0  0  0  0  0  0
   20.4116   19.2019   24.4542 H   0  0  0  0  0  0  0  0  0  0  0  0
   21.0833   17.9850   23.3805 H   0  0  0  0  0  0  0  0  0  0  0  0
   21.0842   19.9839   22.5418 C   0  0  0  0  0  0  0  0  0  0  0  0
   22.0860   20.2008   22.9382 H   0  0  0  0  0  0  0  0  0  0  0  0
   20.5142   20.9183   22.6350 H   0  0  0  0  0  0  0  0  0  0  0  0
   21.2090   19.5955   21.0508 C   0  0  0  0  0  0  0  0  0  0  0  0
   21.7759   18.6629   20.9323 H   0  0  0  0  0  0  0  0  0  0  0  0
   21.7353   20.3801   20.4919 H   0  0  0  0  0  0  0  0  0  0  0  0
   20.2254   19.4604   20.5837 H   0  0  0  0  0  0  0  0  0  0  0  0
  1  2  1  0  0  0  0
  1  3  1  0  0  0  0
  1  4  1  0  0  0  0
  1  5  1  0  0  0  0
  5  6  1  0  0  0  0
  5  7  1  0  0  0  0
  7  8  1  0  0  0  0
  7  9  1  0  0  0  0
  7 10  1  0  0  0  0
  5 11  1  0  0  0  0
 11 12  1  0  0  0  0
 11 13  1  0  0  0  0
 11 14  1  0  0  0  0
 14 15  1  0  0  0  0
 14 16  1  0  0  0  0
 14 17  1  0  0  0  0
 17 18  1  0  0  0  0
 17 19  1  0  0  0  0
 17 20  1  0  0  0  0
M  END
> <VConfSearch Rank>
376

> <Conf_Id>
50

> <Delta U+W>
0.466

> <U+W>
-35.811

> <U>
22.369

> <W>
-58.180

> <W(PB)>
-60.103

> <W(SA)>
1.923

> <Valence>
2.168

> <Coulomb>
19.636

> <VdW>
0.566

> <VdW6>
-5.263

> <VdW12>
5.829

> <Bond>
0.162

> <Angle>
1.066

> <Pdih>
0.939

> <Idih>
0.000

> <Tether>
0.000

$$$$
VeraChem MOL file


 20 19  0  0  0  0  0  0  0  0999 V2000     
   19.5719   20.4017   21.0162 N   0  3  0  0  0  0  0  0  0  0  0  0
   19.2374   19.8508   20.2208 H   0  0  0  0  0  0  0  0  0  0  0  0
   20.5313   20.6901   20.8083 H   0  0  0  0  0  0  0  0  0  0  0  0
   19.0012   21.2505   21.0572 H   0  0  0  0  0  0  0  0  0  0  0  0
   19.4947   19.6236   22.3019 C   0  0  2  0  0  0  0  0  0  0  0  0
   18.4411   19.3594   22.4354 H   0  0  0  0  0  0  0  0  0  0  0  0
   19.9345   20.5107   23.4817 C   0  0  0  0  0  0  0  0  0  0  0  0
   20.9748   20.8384   23.3634 H   0  0  0  0  0  0  0  0  0  0  0  0
   19.8560   19.9795   24.4364 H   0  0  0  0  0  0  0  0  0  0  0  0
   19.3033   21.4052   23.5486 H   0  0  0  0  0  0  0  0  0  0  0  0
   20.3155   18.3122   22.2343 C   0  0  0  0  0  0  0  0  0  0  0  0
   20.5272   18.0745   21.1834 H   0  0  0  0  0  0  0  0  0  0  0  0
   21.2961   18.4484   22.7096 H   0  0  0  0  0  0  0  0  0  0  0  0
   19.5917   17.0866   22.8473 C   0  0  0  0  0  0  0  0  0  0  0  0
   20.2127   16.1946   22.6839 H   0  0  0  0  0  0  0  0  0  0  0  0
   18.6517   16.9069   22.3068 H   0  0  0  0  0  0  0  0  0  0  0  0
   19.2971   17.2168   24.3581 C   0  0  0  0  0  0  0  0  0  0  0  0
   20.2119   17.4395   24.9225 H   0  0  0  0  0  0  0  0  0  0  0  0
   18.8823   16.2791   24.7500 H   0  0  0  0  0  0  0  0  0  0  0  0
   18.5632   18.0077   24.5568 H   0  0  0  0  0  0  0  0  0  0  0  0
  1  2  1  0  0  0  0
  1  3  1  0  0  0  0
  1  4  1  0  0  0  0
  1  5  1  0  0  0  0
  5  6  1  0  0  0  0
  5  7  1  0  0  0  0
  7  8  1  0  0  0  0
  7  9  1  0  0  0  0
  7 10  1  0  0  0  0
  5 11  1  0  0  0  0
 11 12  1  0  0  0  0
 11 13  1  0  0  0  0
 11 14  1  0  0  0  0
 14 15  1  0  0  0  0
 14 16  1  0  0  0  0
 14 17  1  0  0  0  0
 17 18  1  0  0  0  0
 17 19  1  0  0  0  0
 17 20  1  0  0  0  0
M  END
> <VConfSearch Rank>
377

> <Conf_Id>
3

> <Delta U+W>
3.093

> <U+W>
-33.184

> <U>
25.256

> <W>
-58.439

> <W(PB)>
-60.337

> <W(SA)>
1.898

> <Valence>
4.963

> <Coulomb>
19.511

> <VdW>
0.782

> <VdW6>
-5.429

> <VdW12>
6.211

> <Bond>
0.174

> <Angle>
1.377

> <Pdih>
3.412

> <Idih>
0.000

> <Tether>
0.000

$$$$
VeraChem MOL file


 20 19  0  0  0  0  0  0  0  0999 V2000     
   19.0207   16.7593   22.9165 N   0  3  0  0  0  0  0  0  0  0  0  0
   18.8526   16.1681   22.0980 H   0  0  0  0  0  0  0  0  0  0  0  0
   18.1407   16.8128   23.4366 H   0  0  0  0  0  0  0  0  0  0  0  0
   19.6977   16.2723   23.5092 H   0  0  0  0  0  0  0  0  0  0  0  0
   19.5148   18.1231   22.5190 C   0  0  2  0  0  0  0  0  0  0  0  0
   18.7338   18.5608   21.8901 H   0  0  0  0  0  0  0  0  0  0  0  0
   20.8020   18.0037   21.6830 C   0  0  0  0  0  0  0  0  0  0  0  0
   21.0984   18.9741   21.2682 H   0  0  0  0  0  0  0  0  0  0  0  0
   20.6519   17.3216   20.8371 H   0  0  0  0  0  0  0  0  0  0  0  0
   21.6335   17.6193   22.2867 H   0  0  0  0  0  0  0  0  0  0  0  0
   19.7081   19.0315   23.7567 C   0  0  0  0  0  0  0  0  0  0  0  0
   18.7866   19.0130   24.3534 H   0  0  0  0  0  0  0  0  0  0  0  0
   20.4940   18.6101   24.3975 H   0  0  0  0  0  0  0  0  0  0  0  0
   20.0528   20.5089   23.4379 C   0  0  0  0  0  0  0  0  0  0  0  0
   21.0378   20.5757   22.9567 H   0  0  0  0  0  0  0  0  0  0  0  0
   20.1431   21.0611   24.3838 H   0  0  0  0  0  0  0  0  0  0  0  0
   18.9911   21.2014   22.5533 C   0  0  0  0  0  0  0  0  0  0  0  0
   17.9960   21.1449   23.0133 H   0  0  0  0  0  0  0  0  0  0  0  0
   18.9357   20.7443   21.5573 H   0  0  0  0  0  0  0  0  0  0  0  0
   19.2371   22.2625   22.4168 H   0  0  0  0  0  0  0  0  0  0  0  0
  1  2  1  0  0  0  0
  1  3  1  0  0  0  0
  1  4  1  0  0  0  0
  1  5  1  0  0  0  0
  5  6  1  0  0  0  0
  5  7  1  0  0  0  0
  7  8  1  0  0  0  0
  7  9  1  0  0  0  0
  7 10  1  0  0  0  0
  5 11  1  0  0  0  0
 11 12  1  0  0  0  0
 11 13  1  0  0  0  0
 11 14  1  0  0  0  0
 14 15  1  0  0  0  0
 14 16  1  0  0  0  0
 14 17  1  0  0  0  0
 17 18  1  0  0  0  0
 17 19  1  0  0  0  0
 17 20  1  0  0  0  0
M  END
> <VConfSearch Rank>
378

> <Conf_Id>
64

> <Delta U+W>
0.544

> <U+W>
-35.732

> <U>
22.800

> <W>
-58.532

> <W(PB)>
-60.437

> <W(SA)>
1.905

> <Valence>
2.662

> <Coulomb>
19.485

> <VdW>
0.653

> <VdW6>
-5.460

> <VdW12>
6.113

> <Bond>
0.174

> <Angle>
1.378

> <Pdih>
1.109

> <Idih>
0.000

> <Tether>
0.000

$$$$
VeraChem MOL file


 20 19  0  0  0  0  0  0  0  0999 V2000     
   18.8903   19.1432   24.5993 N   0  3  0  0  0  0  0  0  0  0  0  0
   19.4650   19.9865   24.5373 H   0  0  0  0  0  0  0  0  0  0  0  0
   19.0600   18.7245   25.5177 H   0  0  0  0  0  0  0  0  0  0  0  0
   17.9101   19.4370   24.5762 H   0  0  0  0  0  0  0  0  0  0  0  0
   19.2056   18.1787   23.4879 C   0  0  2  0  0  0  0  0  0  0  0  0
   18.5535   17.3143   23.6480 H   0  0  0  0  0  0  0  0  0  0  0  0
   20.6576   17.6832   23.5876 C   0  0  0  0  0  0  0  0  0  0  0  0
   21.3685   18.5174   23.5707 H   0  0  0  0  0  0  0  0  0  0  0  0
   20.8964   17.0033   22.7605 H   0  0  0  0  0  0  0  0  0  0  0  0
   20.8111   17.1339   24.5245 H   0  0  0  0  0  0  0  0  0  0  0  0
   18.8579   18.7539   22.0918 C   0  0  0  0  0  0  0  0  0  0  0  0
   18.9394   17.9584   21.3395 H   0  0  0  0  0  0  0  0  0  0  0  0
   17.7950   19.0289   22.1059 H   0  0  0  0  0  0  0  0  0  0  0  0
   19.6756   19.9948   21.6370 C   0  0  0  0  0  0  0  0  0  0  0  0
   19.9729   20.6057   22.4994 H   0  0  0  0  0  0  0  0  0  0  0  0
   19.0224   20.6353   21.0279 H   0  0  0  0  0  0  0  0  0  0  0  0
   20.9159   19.6389   20.7839 C   0  0  0  0  0  0  0  0  0  0  0  0
   21.6409   19.0345   21.3398 H   0  0  0  0  0  0  0  0  0  0  0  0
   21.4297   20.5516   20.4554 H   0  0  0  0  0  0  0  0  0  0  0  0
   20.6269   19.0791   19.8848 H   0  0  0  0  0  0  0  0  0  0  0  0
  1  2  1  0  0  0  0
  1  3  1  0  0  0  0
  1  4  1  0  0  0  0
  1  5  1  0  0  0  0
  5  6  1  0  0  0  0
  5  7  1  0  0  0  0
  7  8  1  0  0  0  0
  7  9  1  0  0  0  0
  7 10  1  0  0  0  0
  5 11  1  0  0  0  0
 11 12  1  0  0  0  0
 11 13  1  0  0  0  0
 11 14  1  0  0  0  0
 14 15  1  0  0  0  0
 14 16  1  0  0  0  0
 14 17  1  0  0  0  0
 17 18  1  0  0  0  0
 17 19  1  0  0  0  0
 17 20  1  0  0  0  0
M  END
> <VConfSearch Rank>
379

> <Conf_Id>
35

> <Delta U+W>
3.004

> <U+W>
-33.272

> <U>
25.367

> <W>
-58.639

> <W(PB)>
-60.512

> <W(SA)>
1.873

> <Valence>
4.943

> <Coulomb>
19.661

> <VdW>
0.764

> <VdW6>
-5.871

> <VdW12>
6.636

> <Bond>
0.230

> <Angle>
1.857

> <Pdih>
2.855

> <Idih>
0.000

> <Tether>
0.000

$$$$
VeraChem MOL file


 20 19  0  0  0  0  0  0  0  0999 V2000     
   21.5708   18.8164   22.8830 N   0  3  0  0  0  0  0  0  0  0  0  0
   22.4160   19.3245   22.6090 H   0  0  0  0  0  0  0  0  0  0  0  0
   21.8554   17.8669   23.1380 H   0  0  0  0  0  0  0  0  0  0  0  0
   21.2008   19.2614   23.7251 H   0  0  0  0  0  0  0  0  0  0  0  0
   20.5497   18.8074   21.7786 C   0  0  2  0  0  0  0  0  0  0  0  0
   21.0325   18.2918   20.9426 H   0  0  0  0  0  0  0  0  0  0  0  0
   20.2198   20.2349   21.3073 C   0  0  0  0  0  0  0  0  0  0  0  0
   19.8156   20.8471   22.1222 H   0  0  0  0  0  0  0  0  0  0  0  0
   19.4843   20.2155   20.4936 H   0  0  0  0  0  0  0  0  0  0  0  0
   21.1210   20.7326   20.9292 H   0  0  0  0  0  0  0  0  0  0  0  0
   19.2787   17.9937   22.1332 C   0  0  0  0  0  0  0  0  0  0  0  0
   18.7499   17.7780   21.1955 H   0  0  0  0  0  0  0  0  0  0  0  0
   19.5818   17.0150   22.5276 H   0  0  0  0  0  0  0  0  0  0  0  0
   18.2630   18.6480   23.1113 C   0  0  0  0  0  0  0  0  0  0  0  0
   17.4079   17.9660   23.2186 H   0  0  0  0  0  0  0  0  0  0  0  0
   17.8522   19.5684   22.6745 H   0  0  0  0  0  0  0  0  0  0  0  0
   18.8243   18.9467   24.5201 C   0  0  0  0  0  0  0  0  0  0  0  0
   19.3185   18.0645   24.9473 H   0  0  0  0  0  0  0  0  0  0  0  0
   18.0114   19.2340   25.1997 H   0  0  0  0  0  0  0  0  0  0  0  0
   19.5372   19.7790   24.5025 H   0  0  0  0  0  0  0  0  0  0  0  0
  1  2  1  0  0  0  0
  1  3  1  0  0  0  0
  1  4  1  0  0  0  0
  1  5  1  0  0  0  0
  5  6  1  0  0  0  0
  5  7  1  0  0  0  0
  7  8  1  0  0  0  0
  7  9  1  0  0  0  0
  7 10  1  0  0  0  0
  5 11  1  0  0  0  0
 11 12  1  0  0  0  0
 11 13  1  0  0  0  0
 11 14  1  0  0  0  0
 14 15  1  0  0  0  0
 14 16  1  0  0  0  0
 14 17  1  0  0  0  0
 17 18  1  0  0  0  0
 17 19  1  0  0  0  0
 17 20  1  0  0  0  0
M  END
> <VConfSearch Rank>
380

> <Conf_Id>
55

> <Delta U+W>
2.767

> <U+W>
-33.509

> <U>
24.552

> <W>
-58.061

> <W(PB)>
-59.930

> <W(SA)>
1.869

> <Valence>
3.726

> <Coulomb>
20.219

> <VdW>
0.606

> <VdW6>
-6.395

> <VdW12>
7.001

> <Bond>
0.241

> <Angle>
2.098

> <Pdih>
1.387

> <Idih>
0.000

> <Tether>
0.000

$$$$
VeraChem MOL file


 20 19  0  0  0  0  0  0  0  0999 V2000     
   18.1384   20.0870   22.5661 N   0  3  0  0  0  0  0  0  0  0  0  0
   17.5322   19.3980   22.1139 H   0  0  0  0  0  0  0  0  0  0  0  0
   17.7803   21.0146   22.3230 H   0  0  0  0  0  0  0  0  0  0  0  0
   18.0304   19.9752   23.5772 H   0  0  0  0  0  0  0  0  0  0  0  0
   19.5730   19.9219   22.1421 C   0  0  2  0  0  0  0  0  0  0  0  0
   20.1478   20.6887   22.6708 H   0  0  0  0  0  0  0  0  0  0  0  0
   19.7211   20.1659   20.6313 C   0  0  0  0  0  0  0  0  0  0  0  0
   19.3490   21.1615   20.3602 H   0  0  0  0  0  0  0  0  0  0  0  0
   19.1605   19.4219   20.0517 H   0  0  0  0  0  0  0  0  0  0  0  0
   20.7743   20.1114   20.3288 H   0  0  0  0  0  0  0  0  0  0  0  0
   20.1487   18.5397   22.5218 C   0  0  0  0  0  0  0  0  0  0  0  0
   19.5732   17.7493   22.0218 H   0  0  0  0  0  0  0  0  0  0  0  0
   21.1761   18.4672   22.1406 H   0  0  0  0  0  0  0  0  0  0  0  0
   20.1646   18.2888   24.0490 C   0  0  0  0  0  0  0  0  0  0  0  0
   19.1407   18.3003   24.4464 H   0  0  0  0  0  0  0  0  0  0  0  0
   20.7103   19.0997   24.5518 H   0  0  0  0  0  0  0  0  0  0  0  0
   20.8232   16.9368   24.3976 C   0  0  0  0  0  0  0  0  0  0  0  0
   20.2814   16.1023   23.9336 H   0  0  0  0  0  0  0  0  0  0  0  0
   20.8246   16.7748   25.4834 H   0  0  0  0  0  0  0  0  0  0  0  0
   21.8644   16.9029   24.0514 H   0  0  0  0  0  0  0  0  0  0  0  0
  1  2  1  0  0  0  0
  1  3  1  0  0  0  0
  1  4  1  0  0  0  0
  1  5  1  0  0  0  0
  5  6  1  0  0  0  0
  5  7  1  0  0  0  0
  7  8  1  0  0  0  0
  7  9  1  0  0  0  0
  7 10  1  0  0  0  0
  5 11  1  0  0  0  0
 11 12  1  0  0  0  0
 11 13  1  0  0  0  0
 11 14  1  0  0  0  0
 14 15  1  0  0  0  0
 14 16  1  0  0  0  0
 14 17  1  0  0  0  0
 17 18  1  0  0  0  0
 17 19  1  0  0  0  0
 17 20  1  0  0  0  0
M  END
> <VConfSearch Rank>
381

> <Conf_Id>
74

> <Delta U+W>
0.000

> <U+W>
-36.276

> <U>
22.080

> <W>
-58.356

> <W(PB)>
-60.289

> <W(SA)>
1.932

> <Valence>
1.885

> <Coulomb>
19.559

> <VdW>
0.637

> <VdW6>
-4.482

> <VdW12>
5.119

> <Bond>
0.136

> <Angle>
0.867

> <Pdih>
0.882

> <Idih>
0.000

> <Tether>
0.000

$$$$
VeraChem MOL file


 20 19  0  0  0  0  0  0  0  0999 V2000     
   18.4204   20.6939   23.6578 N   0  3  0  0  0  0  0  0  0  0  0  0
   19.1375   21.2902   24.0797 H   0  0  0  0  0  0  0  0  0  0  0  0
   17.9834   20.1594   24.4129 H   0  0  0  0  0  0  0  0  0  0  0  0
   17.7037   21.3125   23.2688 H   0  0  0  0  0  0  0  0  0  0  0  0
   18.9989   19.7900   22.6039 C   0  0  2  0  0  0  0  0  0  0  0  0
   19.4375   20.4442   21.8439 H   0  0  0  0  0  0  0  0  0  0  0  0
   17.8842   18.9576   21.9440 C   0  0  0  0  0  0  0  0  0  0  0  0
   17.0763   19.6080   21.5869 H   0  0  0  0  0  0  0  0  0  0  0  0
   17.4536   18.2383   22.6518 H   0  0  0  0  0  0  0  0  0  0  0  0
   18.2600   18.4034   21.0764 H   0  0  0  0  0  0  0  0  0  0  0  0
   20.1236   18.9018   23.1848 C   0  0  0  0  0  0  0  0  0  0  0  0
   20.8260   19.5443   23.7321 H   0  0  0  0  0  0  0  0  0  0  0  0
   19.7016   18.2052   23.9213 H   0  0  0  0  0  0  0  0  0  0  0  0
   20.9136   18.1120   22.1127 C   0  0  0  0  0  0  0  0  0  0  0  0
   21.2829   18.8022   21.3410 H   0  0  0  0  0  0  0  0  0  0  0  0
   20.2558   17.3920   21.6078 H   0  0  0  0  0  0  0  0  0  0  0  0
   22.1059   17.3497   22.7300 C   0  0  0  0  0  0  0  0  0  0  0  0
   22.8122   18.0404   23.2089 H   0  0  0  0  0  0  0  0  0  0  0  0
   22.6520   16.7930   21.9574 H   0  0  0  0  0  0  0  0  0  0  0  0
   21.7656   16.6302   23.4861 H   0  0  0  0  0  0  0  0  0  0  0  0
  1  2  1  0  0  0  0
  1  3  1  0  0  0  0
  1  4  1  0  0  0  0
  1  5  1  0  0  0  0
  5  6  1  0  0  0  0
  5  7  1  0  0  0  0
  7  8  1  0  0  0  0
  7  9  1  0  0  0  0
  7 10  1  0  0  0  0
  5 11  1  0  0  0  0
 11 12  1  0  0  0  0
 11 13  1  0  0  0  0
 11 14  1  0  0  0  0
 14 15  1  0  0  0  0
 14 16  1  0  0  0  0
 14 17  1  0  0  0  0
 17 18  1  0  0  0  0
 17 19  1  0  0  0  0
 17 20  1  0  0  0  0
M  END
> <VConfSearch Rank>
382

> <Conf_Id>
80

> <Delta U+W>
0.460

> <U+W>
-35.817

> <U>
22.495

> <W>
-58.311

> <W(PB)>
-60.259

> <W(SA)>
1.948

> <Valence>
2.419

> <Coulomb>
19.304

> <VdW>
0.772

> <VdW6>
-4.635

> <VdW12>
5.407

> <Bond>
0.149

> <Angle>
1.142

> <Pdih>
1.129

> <Idih>
0.000

> <Tether>
0.000

$$$$
VeraChem MOL file


 20 19  0  0  0  0  0  0  0  0999 V2000     
   21.8646   18.4779   23.7996 N   0  3  0  0  0  0  0  0  0  0  0  0
   22.2220   17.5463   23.5714 H   0  0  0  0  0  0  0  0  0  0  0  0
   21.4761   18.4341   24.7450 H   0  0  0  0  0  0  0  0  0  0  0  0
   22.6685   19.1108   23.8302 H   0  0  0  0  0  0  0  0  0  0  0  0
   20.8381   18.9395   22.8016 C   0  0  2  0  0  0  0  0  0  0  0  0
   21.3427   18.9605   21.8307 H   0  0  0  0  0  0  0  0  0  0  0  0
   20.3791   20.3698   23.1329 C   0  0  0  0  0  0  0  0  0  0  0  0
   21.2429   21.0306   23.2759 H   0  0  0  0  0  0  0  0  0  0  0  0
   19.7770   20.3926   24.0496 H   0  0  0  0  0  0  0  0  0  0  0  0
   19.7849   20.7910   22.3140 H   0  0  0  0  0  0  0  0  0  0  0  0
   19.6621   17.9364   22.7099 C   0  0  0  0  0  0  0  0  0  0  0  0
   20.0897   16.9453   22.5085 H   0  0  0  0  0  0  0  0  0  0  0  0
   19.1586   17.8521   23.6820 H   0  0  0  0  0  0  0  0  0  0  0  0
   18.6274   18.2396   21.5940 C   0  0  0  0  0  0  0  0  0  0  0  0
   18.2858   17.2871   21.1649 H   0  0  0  0  0  0  0  0  0  0  0  0
   19.1044   18.7872   20.7690 H   0  0  0  0  0  0  0  0  0  0  0  0
   17.3829   19.0059   22.1011 C   0  0  0  0  0  0  0  0  0  0  0  0
   16.8564   18.4307   22.8738 H   0  0  0  0  0  0  0  0  0  0  0  0
   16.6775   19.1799   21.2783 H   0  0  0  0  0  0  0  0  0  0  0  0
   17.6431   19.9816   22.5265 H   0  0  0  0  0  0  0  0  0  0  0  0
  1  2  1  0  0  0  0
  1  3  1  0  0  0  0
  1  4  1  0  0  0  0
  1  5  1  0  0  0  0
  5  6  1  0  0  0  0
  5  7  1  0  0  0  0
  7  8  1  0  0  0  0
  7  9  1  0  0  0  0
  7 10  1  0  0  0  0
  5 11  1  0  0  0  0
 11 12  1  0  0  0  0
 11 13  1  0  0  0  0
 11 14  1  0  0  0  0
 14 15  1  0  0  0  0
 14 16  1  0  0  0  0
 14 17  1  0  0  0  0
 17 18  1  0  0  0  0
 17 19  1  0  0  0  0
 17 20  1  0  0  0  0
M  END
> <VConfSearch Rank>
383

> <Conf_Id>
52

> <Delta U+W>
2.995

> <U+W>
-33.282

> <U>
25.224

> <W>
-58.506

> <W(PB)>
-60.411

> <W(SA)>
1.905

> <Valence>
4.945

> <Coulomb>
19.467

> <VdW>
0.813

> <VdW6>
-5.458

> <VdW12>
6.270

> <Bond>
0.200

> <Angle>
1.675

> <Pdih>
3.070

> <Idih>
0.000

> <Tether>
0.000

$$$$
VeraChem MOL file


 20 19  0  0  0  0  0  0  0  0999 V2000     
   18.4852   18.0027   22.8252 N   0  3  0  0  0  0  0  0  0  0  0  0
   18.7573   17.3006   23.5176 H   0  0  0  0  0  0  0  0  0  0  0  0
   17.7446   17.5935   22.2492 H   0  0  0  0  0  0  0  0  0  0  0  0
   18.0810   18.7925   23.3329 H   0  0  0  0  0  0  0  0  0  0  0  0
   19.6601   18.4337   21.9903 C   0  0  2  0  0  0  0  0  0  0  0  0
   19.2840   19.1431   21.2466 H   0  0  0  0  0  0  0  0  0  0  0  0
   20.2437   17.2209   21.2457 C   0  0  0  0  0  0  0  0  0  0  0  0
   20.6509   16.4824   21.9475 H   0  0  0  0  0  0  0  0  0  0  0  0
   21.0493   17.5288   20.5676 H   0  0  0  0  0  0  0  0  0  0  0  0
   19.4727   16.7285   20.6404 H   0  0  0  0  0  0  0  0  0  0  0  0
   20.7600   19.1374   22.8205 C   0  0  0  0  0  0  0  0  0  0  0  0
   20.9766   18.5544   23.7254 H   0  0  0  0  0  0  0  0  0  0  0  0
   21.6903   19.1414   22.2369 H   0  0  0  0  0  0  0  0  0  0  0  0
   20.4495   20.6103   23.1954 C   0  0  0  0  0  0  0  0  0  0  0  0
   20.2805   21.1972   22.2816 H   0  0  0  0  0  0  0  0  0  0  0  0
   21.3443   21.0388   23.6685 H   0  0  0  0  0  0  0  0  0  0  0  0
   19.2540   20.7975   24.1572 C   0  0  0  0  0  0  0  0  0  0  0  0
   19.2257   21.8298   24.5298 H   0  0  0  0  0  0  0  0  0  0  0  0
   19.3331   20.1326   25.0272 H   0  0  0  0  0  0  0  0  0  0  0  0
   18.2977   20.6140   23.6540 H   0  0  0  0  0  0  0  0  0  0  0  0
  1  2  1  0  0  0  0
  1  3  1  0  0  0  0
  1  4  1  0  0  0  0
  1  5  1  0  0  0  0
  5  6  1  0  0  0  0
  5  7  1  0  0  0  0
  7  8  1  0  0  0  0
  7  9  1  0  0  0  0
  7 10  1  0  0  0  0
  5 11  1  0  0  0  0
 11 12  1  0  0  0  0
 11 13  1  0  0  0  0
 11 14  1  0  0  0  0
 14 15  1  0  0  0  0
 14 16  1  0  0  0  0
 14 17  1  0  0  0  0
 17 18  1  0  0  0  0
 17 19  1  0  0  0  0
 17 20  1  0  0  0  0
M  END
> <VConfSearch Rank>
384

> <Conf_Id>
54

> <Delta U+W>
2.752

> <U+W>
-33.525

> <U>
24.337

> <W>
-57.862

> <W(PB)>
-59.764

> <W(SA)>
1.901

> <Valence>
3.593

> <Coulomb>
20.067

> <VdW>
0.677

> <VdW6>
-5.466

> <VdW12>
6.144

> <Bond>
0.191

> <Angle>
1.557

> <Pdih>
1.845

> <Idih>
0.000

> <Tether>
0.000

$$$$
VeraChem MOL file


 20 19  0  0  0  0  0  0  0  0999 V2000     
   20.0972   20.0136   20.9558 N   0  3  0  0  0  0  0  0  0  0  0  0
   19.6459   20.4488   20.1467 H   0  0  0  0  0  0  0  0  0  0  0  0
   21.0269   19.7073   20.6566 H   0  0  0  0  0  0  0  0  0  0  0  0
   20.2259   20.7418   21.6619 H   0  0  0  0  0  0  0  0  0  0  0  0
   19.2824   18.8671   21.4902 C   0  0  2  0  0  0  0  0  0  0  0  0
   19.1852   18.1544   20.6651 H   0  0  0  0  0  0  0  0  0  0  0  0
   17.8649   19.3277   21.8742 C   0  0  0  0  0  0  0  0  0  0  0  0
   17.2748   18.4896   22.2649 H   0  0  0  0  0  0  0  0  0  0  0  0
   17.3392   19.7230   20.9964 H   0  0  0  0  0  0  0  0  0  0  0  0
   17.8864   20.1173   22.6346 H   0  0  0  0  0  0  0  0  0  0  0  0
   19.9889   18.1285   22.6522 C   0  0  0  0  0  0  0  0  0  0  0  0
   19.3865   17.2544   22.9329 H   0  0  0  0  0  0  0  0  0  0  0  0
   20.9425   17.7303   22.2814 H   0  0  0  0  0  0  0  0  0  0  0  0
   20.2543   18.9928   23.9119 C   0  0  0  0  0  0  0  0  0  0  0  0
   19.3064   19.3585   24.3286 H   0  0  0  0  0  0  0  0  0  0  0  0
   20.8486   19.8775   23.6467 H   0  0  0  0  0  0  0  0  0  0  0  0
   21.0019   18.1929   25.0003 C   0  0  0  0  0  0  0  0  0  0  0  0
   21.1806   18.8165   25.8859 H   0  0  0  0  0  0  0  0  0  0  0  0
   21.9756   17.8417   24.6344 H   0  0  0  0  0  0  0  0  0  0  0  0
   20.4200   17.3176   25.3172 H   0  0  0  0  0  0  0  0  0  0  0  0
  1  2  1  0  0  0  0
  1  3  1  0  0  0  0
  1  4  1  0  0  0  0
  1  5  1  0  0  0  0
  5  6  1  0  0  0  0
  5  7  1  0  0  0  0
  7  8  1  0  0  0  0
  7  9  1  0  0  0  0
  7 10  1  0  0  0  0
  5 11  1  0  0  0  0
 11 12  1  0  0  0  0
 11 13  1  0  0  0  0
 11 14  1  0  0  0  0
 14 15  1  0  0  0  0
 14 16  1  0  0  0  0
 14 17  1  0  0  0  0
 17 18  1  0  0  0  0
 17 19  1  0  0  0  0
 17 20  1  0  0  0  0
M  END
> <VConfSearch Rank>
385

> <Conf_Id>
63

> <Delta U+W>
0.420

> <U+W>
-35.856

> <U>
22.625

> <W>
-58.481

> <W(PB)>
-60.400

> <W(SA)>
1.919

> <Valence>
2.404

> <Coulomb>
19.464

> <VdW>
0.757

> <VdW6>
-5.074

> <VdW12>
5.830

> <Bond>
0.172

> <Angle>
1.207

> <Pdih>
1.025

> <Idih>
0.000

> <Tether>
0.000

$$$$
VeraChem MOL file


 20 19  0  0  0  0  0  0  0  0999 V2000     
   18.6382   17.6545   22.2211 N   0  3  0  0  0  0  0  0  0  0  0  0
   19.4579   17.3450   21.6928 H   0  0  0  0  0  0  0  0  0  0  0  0
   17.9488   17.9969   21.5473 H   0  0  0  0  0  0  0  0  0  0  0  0
   18.2380   16.8295   22.6758 H   0  0  0  0  0  0  0  0  0  0  0  0
   19.0026   18.7154   23.2241 C   0  0  2  0  0  0  0  0  0  0  0  0
   19.7357   18.2685   23.9024 H   0  0  0  0  0  0  0  0  0  0  0  0
   17.7736   19.1257   24.0514 C   0  0  0  0  0  0  0  0  0  0  0  0
   17.3360   18.2550   24.5550 H   0  0  0  0  0  0  0  0  0  0  0  0
   17.0006   19.5780   23.4176 H   0  0  0  0  0  0  0  0  0  0  0  0
   18.0497   19.8531   24.8249 H   0  0  0  0  0  0  0  0  0  0  0  0
   19.6461   19.9563   22.5645 C   0  0  0  0  0  0  0  0  0  0  0  0
   18.9189   20.4292   21.8911 H   0  0  0  0  0  0  0  0  0  0  0  0
   19.8708   20.6981   23.3424 H   0  0  0  0  0  0  0  0  0  0  0  0
   20.9456   19.6544   21.7757 C   0  0  0  0  0  0  0  0  0  0  0  0
   21.3217   20.5923   21.3437 H   0  0  0  0  0  0  0  0  0  0  0  0
   20.7287   18.9957   20.9238 H   0  0  0  0  0  0  0  0  0  0  0  0
   22.0539   19.0267   22.6515 C   0  0  0  0  0  0  0  0  0  0  0  0
   22.2883   19.6683   23.5109 H   0  0  0  0  0  0  0  0  0  0  0  0
   22.9759   18.8967   22.0700 H   0  0  0  0  0  0  0  0  0  0  0  0
   21.7604   18.0398   23.0305 H   0  0  0  0  0  0  0  0  0  0  0  0
  1  2  1  0  0  0  0
  1  3  1  0  0  0  0
  1  4  1  0  0  0  0
  1  5  1  0  0  0  0
  5  6  1  0  0  0  0
  5  7  1  0  0  0  0
  7  8  1  0  0  0  0
  7  9  1  0  0  0  0
  7 10  1  0  0  0  0
  5 11  1  0  0  0  0
 11 12  1  0  0  0  0
 11 13  1  0  0  0  0
 11 14  1  0  0  0  0
 14 15  1  0  0  0  0
 14 16  1  0  0  0  0
 14 17  1  0  0  0  0
 17 18  1  0  0  0  0
 17 19  1  0  0  0  0
 17 20  1  0  0  0  0
M  END
> <VConfSearch Rank>
386

> <Conf_Id>
50

> <Delta U+W>
0.466

> <U+W>
-35.811

> <U>
22.369

> <W>
-58.180

> <W(PB)>
-60.103

> <W(SA)>
1.923

> <Valence>
2.168

> <Coulomb>
19.636

> <VdW>
0.566

> <VdW6>
-5.263

> <VdW12>
5.829

> <Bond>
0.162

> <Angle>
1.066

> <Pdih>
0.939

> <Idih>
0.000

> <Tether>
0.000

$$$$
VeraChem MOL file


 20 19  0  0  0  0  0  0  0  0999 V2000     
   21.5766   18.0281   21.7398 N   0  3  0  0  0  0  0  0  0  0  0  0
   21.2719   17.7942   20.7909 H   0  0  0  0  0  0  0  0  0  0  0  0
   21.7933   17.1499   22.2180 H   0  0  0  0  0  0  0  0  0  0  0  0
   22.4515   18.5526   21.6555 H   0  0  0  0  0  0  0  0  0  0  0  0
   20.5306   18.8172   22.4799 C   0  0  2  0  0  0  0  0  0  0  0  0
   20.3656   19.7277   21.8955 H   0  0  0  0  0  0  0  0  0  0  0  0
   21.0565   19.2128   23.8724 C   0  0  0  0  0  0  0  0  0  0  0  0
   21.2807   18.3252   24.4770 H   0  0  0  0  0  0  0  0  0  0  0  0
   20.3272   19.8181   24.4215 H   0  0  0  0  0  0  0  0  0  0  0  0
   21.9764   19.8037   23.7842 H   0  0  0  0  0  0  0  0  0  0  0  0
   19.1868   18.0530   22.5711 C   0  0  0  0  0  0  0  0  0  0  0  0
   19.1817   17.2449   21.8277 H   0  0  0  0  0  0  0  0  0  0  0  0
   19.0926   17.5575   23.5466 H   0  0  0  0  0  0  0  0  0  0  0  0
   17.9428   18.9366   22.2999 C   0  0  0  0  0  0  0  0  0  0  0  0
   17.0493   18.2966   22.3086 H   0  0  0  0  0  0  0  0  0  0  0  0
   18.0057   19.3585   21.2869 H   0  0  0  0  0  0  0  0  0  0  0  0
   17.7449   20.0799   23.3197 C   0  0  0  0  0  0  0  0  0  0  0  0
   17.7208   19.6946   24.3473 H   0  0  0  0  0  0  0  0  0  0  0  0
   16.7953   20.5986   23.1345 H   0  0  0  0  0  0  0  0  0  0  0  0
   18.5455   20.8263   23.2455 H   0  0  0  0  0  0  0  0  0  0  0  0
  1  2  1  0  0  0  0
  1  3  1  0  0  0  0
  1  4  1  0  0  0  0
  1  5  1  0  0  0  0
  5  6  1  0  0  0  0
  5  7  1  0  0  0  0
  7  8  1  0  0  0  0
  7  9  1  0  0  0  0
  7 10  1  0  0  0  0
  5 11  1  0  0  0  0
 11 12  1  0  0  0  0
 11 13  1  0  0  0  0
 11 14  1  0  0  0  0
 14 15  1  0  0  0  0
 14 16  1  0  0  0  0
 14 17  1  0  0  0  0
 17 18  1  0  0  0  0
 17 19  1  0  0  0  0
 17 20  1  0  0  0  0
M  END
> <VConfSearch Rank>
387

> <Conf_Id>
3

> <Delta U+W>
3.093

> <U+W>
-33.184

> <U>
25.256

> <W>
-58.439

> <W(PB)>
-60.337

> <W(SA)>
1.898

> <Valence>
4.963

> <Coulomb>
19.511

> <VdW>
0.782

> <VdW6>
-5.429

> <VdW12>
6.211

> <Bond>
0.174

> <Angle>
1.377

> <Pdih>
3.412

> <Idih>
0.000

> <Tether>
0.000

$$$$
VeraChem MOL file


 20 19  0  0  0  0  0  0  0  0999 V2000     
   21.3283   17.3803   22.9773 N   0  3  0  0  0  0  0  0  0  0  0  0
   21.4946   16.8581   23.8418 H   0  0  0  0  0  0  0  0  0  0  0  0
   22.1807   17.9099   22.7752 H   0  0  0  0  0  0  0  0  0  0  0  0
   21.2080   16.6954   22.2269 H   0  0  0  0  0  0  0  0  0  0  0  0
   20.1305   18.2817   23.1000 C   0  0  2  0  0  0  0  0  0  0  0  0
   20.3478   18.9702   23.9221 H   0  0  0  0  0  0  0  0  0  0  0  0
   18.8799   17.4632   23.4691 C   0  0  0  0  0  0  0  0  0  0  0  0
   18.0304   18.1167   23.6989 H   0  0  0  0  0  0  0  0  0  0  0  0
   19.0677   16.8504   24.3592 H   0  0  0  0  0  0  0  0  0  0  0  0
   18.5875   16.7939   22.6506 H   0  0  0  0  0  0  0  0  0  0  0  0
   19.9212   19.1134   21.8120 C   0  0  0  0  0  0  0  0  0  0  0  0
   20.8671   19.6089   21.5562 H   0  0  0  0  0  0  0  0  0  0  0  0
   19.6957   18.4381   20.9760 H   0  0  0  0  0  0  0  0  0  0  0  0
   18.8137   20.1943   21.9026 C   0  0  0  0  0  0  0  0  0  0  0  0
   17.8294   19.7228   22.0255 H   0  0  0  0  0  0  0  0  0  0  0  0
   18.7702   20.7344   20.9465 H   0  0  0  0  0  0  0  0  0  0  0  0
   19.0517   21.2116   23.0418 C   0  0  0  0  0  0  0  0  0  0  0  0
   20.0324   21.6946   22.9415 H   0  0  0  0  0  0  0  0  0  0  0  0
   19.0043   20.7317   24.0275 H   0  0  0  0  0  0  0  0  0  0  0  0
   18.2870   21.9988   23.0203 H   0  0  0  0  0  0  0  0  0  0  0  0
  1  2  1  0  0  0  0
  1  3  1  0  0  0  0
  1  4  1  0  0  0  0
  1  5  1  0  0  0  0
  5  6  1  0  0  0  0
  5  7  1  0  0  0  0
  7  8  1  0  0  0  0
  7  9  1  0  0  0  0
  7 10  1  0  0  0  0
  5 11  1  0  0  0  0
 11 12  1  0  0  0  0
 11 13  1  0  0  0  0
 11 14  1  0  0  0  0
 14 15  1  0  0  0  0
 14 16  1  0  0  0  0
 14 17  1  0  0  0  0
 17 18  1  0  0  0  0
 17 19  1  0  0  0  0
 17 20  1  0  0  0  0
M  END
> <VConfSearch Rank>
388

> <Conf_Id>
64

> <Delta U+W>
0.544

> <U+W>
-35.732

> <U>
22.800

> <W>
-58.532

> <W(PB)>
-60.437

> <W(SA)>
1.905

> <Valence>
2.662

> <Coulomb>
19.485

> <VdW>
0.653

> <VdW6>
-5.460

> <VdW12>
6.113

> <Bond>
0.174

> <Angle>
1.378

> <Pdih>
1.109

> <Idih>
0.000

> <Tether>
0.000

$$$$
VeraChem MOL file


 20 19  0  0  0  0  0  0  0  0999 V2000     
   18.9135   17.4674   23.9605 N   0  3  0  0  0  0  0  0  0  0  0  0
   18.9278   18.2906   24.5666 H   0  0  0  0  0  0  0  0  0  0  0  0
   19.2850   16.6825   24.5023 H   0  0  0  0  0  0  0  0  0  0  0  0
   17.9338   17.2559   23.7527 H   0  0  0  0  0  0  0  0  0  0  0  0
   19.7097   17.6944   22.7038 C   0  0  2  0  0  0  0  0  0  0  0  0
   19.6423   16.7621   22.1345 H   0  0  0  0  0  0  0  0  0  0  0  0
   21.1940   17.9271   23.0299 C   0  0  0  0  0  0  0  0  0  0  0  0
   21.3270   18.7733   23.7140 H   0  0  0  0  0  0  0  0  0  0  0  0
   21.7691   18.1221   22.1164 H   0  0  0  0  0  0  0  0  0  0  0  0
   21.6240   17.0398   23.5103 H   0  0  0  0  0  0  0  0  0  0  0  0
   19.1040   18.8104   21.8158 C   0  0  0  0  0  0  0  0  0  0  0  0
   19.6115   18.8169   20.8422 H   0  0  0  0  0  0  0  0  0  0  0  0
   18.0657   18.5282   21.5972 H   0  0  0  0  0  0  0  0  0  0  0  0
   19.1022   20.2429   22.4186 C   0  0  0  0  0  0  0  0  0  0  0  0
   19.0123   20.2077   23.5122 H   0  0  0  0  0  0  0  0  0  0  0  0
   18.2048   20.7674   22.0615 H   0  0  0  0  0  0  0  0  0  0  0  0
   20.3340   21.0858   22.0125 C   0  0  0  0  0  0  0  0  0  0  0  0
   21.2715   20.6489   22.3734 H   0  0  0  0  0  0  0  0  0  0  0  0
   20.2596   22.0986   22.4294 H   0  0  0  0  0  0  0  0  0  0  0  0
   20.4027   21.1808   20.9210 H   0  0  0  0  0  0  0  0  0  0  0  0
  1  2  1  0  0  0  0
  1  3  1  0  0  0  0
  1  4  1  0  0  0  0
  1  5  1  0  0  0  0
  5  6  1  0  0  0  0
  5  7  1  0  0  0  0
  7  8  1  0  0  0  0
  7  9  1  0  0  0  0
  7 10  1  0  0  0  0
  5 11  1  0  0  0  0
 11 12  1  0  0  0  0
 11 13  1  0  0  0  0
 11 14  1  0  0  0  0
 14 15  1  0  0  0  0
 14 16  1  0  0  0  0
 14 17  1  0  0  0  0
 17 18  1  0  0  0  0
 17 19  1  0  0  0  0
 17 20  1  0  0  0  0
M  END
> <VConfSearch Rank>
389

> <Conf_Id>
35

> <Delta U+W>
3.004

> <U+W>
-33.272

> <U>
25.367

> <W>
-58.639

> <W(PB)>
-60.512

> <W(SA)>
1.873

> <Valence>
4.943

> <Coulomb>
19.661

> <VdW>
0.764

> <VdW6>
-5.871

> <VdW12>
6.636

> <Bond>
0.230

> <Angle>
1.857

> <Pdih>
2.855

> <Idih>
0.000

> <Tether>
0.000

$$$$
VeraChem MOL file


 20 19  0  0  0  0  0  0  0  0999 V2000     
   19.4913   18.9827   20.9432 N   0  3  0  0  0  0  0  0  0  0  0  0
   19.7177   19.5610   20.1297 H   0  0  0  0  0  0  0  0  0  0  0  0
   18.6987   18.3892   20.6840 H   0  0  0  0  0  0  0  0  0  0  0  0
   20.2888   18.3686   21.1186 H   0  0  0  0  0  0  0  0  0  0  0  0
   19.1773   19.8252   22.1491 C   0  0  2  0  0  0  0  0  0  0  0  0
   18.3025   20.4194   21.8669 H   0  0  0  0  0  0  0  0  0  0  0  0
   20.3189   20.8096   22.4590 C   0  0  0  0  0  0  0  0  0  0  0  0
   21.2611   20.2863   22.6613 H   0  0  0  0  0  0  0  0  0  0  0  0
   20.0737   21.4271   23.3319 H   0  0  0  0  0  0  0  0  0  0  0  0
   20.4855   21.4843   21.6105 H   0  0  0  0  0  0  0  0  0  0  0  0
   18.7686   18.9857   23.3867 C   0  0  0  0  0  0  0  0  0  0  0  0
   18.2663   19.6590   24.0938 H   0  0  0  0  0  0  0  0  0  0  0  0
   18.0040   18.2577   23.0856 H   0  0  0  0  0  0  0  0  0  0  0  0
   19.9021   18.2500   24.1552 C   0  0  0  0  0  0  0  0  0  0  0  0
   19.4522   17.7453   25.0216 H   0  0  0  0  0  0  0  0  0  0  0  0
   20.6120   18.9762   24.5737 H   0  0  0  0  0  0  0  0  0  0  0  0
   20.6669   17.1956   23.3232 C   0  0  0  0  0  0  0  0  0  0  0  0
   19.9755   16.5057   22.8220 H   0  0  0  0  0  0  0  0  0  0  0  0
   21.3187   16.5983   23.9740 H   0  0  0  0  0  0  0  0  0  0  0  0
   21.3091   17.6647   22.5690 H   0  0  0  0  0  0  0  0  0  0  0  0
  1  2  1  0  0  0  0
  1  3  1  0  0  0  0
  1  4  1  0  0  0  0
  1  5  1  0  0  0  0
  5  6  1  0  0  0  0
  5  7  1  0  0  0  0
  7  8  1  0  0  0  0
  7  9  1  0  0  0  0
  7 10  1  0  0  0  0
  5 11  1  0  0  0  0
 11 12  1  0  0  0  0
 11 13  1  0  0  0  0
 11 14  1  0  0  0  0
 14 15  1  0  0  0  0
 14 16  1  0  0  0  0
 14 17  1  0  0  0  0
 17 18  1  0  0  0  0
 17 19  1  0  0  0  0
 17 20  1  0  0  0  0
M  END
> <VConfSearch Rank>
390

> <Conf_Id>
55

> <Delta U+W>
2.767

> <U+W>
-33.509

> <U>
24.552

> <W>
-58.061

> <W(PB)>
-59.930

> <W(SA)>
1.869

> <Valence>
3.726

> <Coulomb>
20.219

> <VdW>
0.606

> <VdW6>
-6.395

> <VdW12>
7.001

> <Bond>
0.241

> <Angle>
2.098

> <Pdih>
1.387

> <Idih>
0.000

> <Tether>
0.000

$$$$
VeraChem MOL file


 20 19  0  0  0  0  0  0  0  0999 V2000     
   18.4467   19.4413   24.1195 N   0  3  0  0  0  0  0  0  0  0  0  0
   17.5984   19.1765   23.6128 H   0  0  0  0  0  0  0  0  0  0  0  0
   18.1802   20.1432   24.8151 H   0  0  0  0  0  0  0  0  0  0  0  0
   18.7706   18.6158   24.6297 H   0  0  0  0  0  0  0  0  0  0  0  0
   19.5055   19.9646   23.1866 C   0  0  2  0  0  0  0  0  0  0  0  0
   20.3723   20.2182   23.8048 H   0  0  0  0  0  0  0  0  0  0  0  0
   19.0229   21.2454   22.4862 C   0  0  0  0  0  0  0  0  0  0  0  0
   18.7431   22.0090   23.2224 H   0  0  0  0  0  0  0  0  0  0  0  0
   18.1503   21.0467   21.8515 H   0  0  0  0  0  0  0  0  0  0  0  0
   19.8151   21.6672   21.8552 H   0  0  0  0  0  0  0  0  0  0  0  0
   19.9476   18.9157   22.1424 C   0  0  0  0  0  0  0  0  0  0  0  0
   19.0886   18.6258   21.5228 H   0  0  0  0  0  0  0  0  0  0  0  0
   20.6799   19.3763   21.4659 H   0  0  0  0  0  0  0  0  0  0  0  0
   20.5814   17.6559   22.7802 C   0  0  0  0  0  0  0  0  0  0  0  0
   19.8490   17.1443   23.4192 H   0  0  0  0  0  0  0  0  0  0  0  0
   21.4187   17.9504   23.4285 H   0  0  0  0  0  0  0  0  0  0  0  0
   21.0885   16.6679   21.7078 C   0  0  0  0  0  0  0  0  0  0  0  0
   20.2676   16.3309   21.0615 H   0  0  0  0  0  0  0  0  0  0  0  0
   21.5331   15.7808   22.1772 H   0  0  0  0  0  0  0  0  0  0  0  0
   21.8547   17.1319   21.0731 H   0  0  0  0  0  0  0  0  0  0  0  0
  1  2  1  0  0  0  0
  1  3  1  0  0  0  0
  1  4  1  0  0  0  0
  1  5  1  0  0  0  0
  5  6  1  0  0  0  0
  5  7  1  0  0  0  0
  7  8  1  0  0  0  0
  7  9  1  0  0  0  0
  7 10  1  0  0  0  0
  5 11  1  0  0  0  0
 11 12  1  0  0  0  0
 11 13  1  0  0  0  0
 11 14  1  0  0  0  0
 14 15  1  0  0  0  0
 14 16  1  0  0  0  0
 14 17  1  0  0  0  0
 17 18  1  0  0  0  0
 17 19  1  0  0  0  0
 17 20  1  0  0  0  0
M  END
> <VConfSearch Rank>
391

> <Conf_Id>
74

> <Delta U+W>
0.000

> <U+W>
-36.276

> <U>
22.080

> <W>
-58.356

> <W(PB)>
-60.289

> <W(SA)>
1.932

> <Valence>
1.885

> <Coulomb>
19.559

> <VdW>
0.637

> <VdW6>
-4.482

> <VdW12>
5.119

> <Bond>
0.136

> <Angle>
0.867

> <Pdih>
0.882

> <Idih>
0.000

> <Tether>
0.000

$$$$
VeraChem MOL file


 20 19  0  0  0  0  0  0  0  0999 V2000     
   18.7099   21.0909   22.7785 N   0  3  0  0  0  0  0  0  0  0  0  0
   19.1859   21.5702   22.0095 H   0  0  0  0  0  0  0  0  0  0  0  0
   19.1255   21.4250   23.6517 H   0  0  0  0  0  0  0  0  0  0  0  0
   17.7339   21.3993   22.7687 H   0  0  0  0  0  0  0  0  0  0  0  0
   18.8163   19.5959   22.6522 C   0  0  2  0  0  0  0  0  0  0  0  0
   18.3474   19.3331   21.6989 H   0  0  0  0  0  0  0  0  0  0  0  0
   18.0333   18.9073   23.7852 C   0  0  0  0  0  0  0  0  0  0  0  0
   17.0041   19.2844   23.8282 H   0  0  0  0  0  0  0  0  0  0  0  0
   18.5028   19.0890   24.7599 H   0  0  0  0  0  0  0  0  0  0  0  0
   17.9740   17.8241   23.6286 H   0  0  0  0  0  0  0  0  0  0  0  0
   20.2940   19.1422   22.6055 C   0  0  0  0  0  0  0  0  0  0  0  0
   20.8189   19.7457   21.8532 H   0  0  0  0  0  0  0  0  0  0  0  0
   20.7773   19.3567   23.5679 H   0  0  0  0  0  0  0  0  0  0  0  0
   20.4781   17.6464   22.2510 C   0  0  0  0  0  0  0  0  0  0  0  0
   19.9412   17.4173   21.3197 H   0  0  0  0  0  0  0  0  0  0  0  0
   20.0420   17.0125   23.0345 H   0  0  0  0  0  0  0  0  0  0  0  0
   21.9687   17.2794   22.0856 C   0  0  0  0  0  0  0  0  0  0  0  0
   22.4328   17.8624   21.2795 H   0  0  0  0  0  0  0  0  0  0  0  0
   22.0810   16.2158   21.8385 H   0  0  0  0  0  0  0  0  0  0  0  0
   22.5274   17.4706   23.0111 H   0  0  0  0  0  0  0  0  0  0  0  0
  1  2  1  0  0  0  0
  1  3  1  0  0  0  0
  1  4  1  0  0  0  0
  1  5  1  0  0  0  0
  5  6  1  0  0  0  0
  5  7  1  0  0  0  0
  7  8  1  0  0  0  0
  7  9  1  0  0  0  0
  7 10  1  0  0  0  0
  5 11  1  0  0  0  0
 11 12  1  0  0  0  0
 11 13  1  0  0  0  0
 11 14  1  0  0  0  0
 14 15  1  0  0  0  0
 14 16  1  0  0  0  0
 14 17  1  0  0  0  0
 17 18  1  0  0  0  0
 17 19  1  0  0  0  0
 17 20  1  0  0  0  0
M  END
> <VConfSearch Rank>
392

> <Conf_Id>
80

> <Delta U+W>
0.460

> <U+W>
-35.817

> <U>
22.495

> <W>
-58.311

> <W(PB)>
-60.259

> <W(SA)>
1.948

> <Valence>
2.419

> <Coulomb>
19.304

> <VdW>
0.772

> <VdW6>
-4.635

> <VdW12>
5.407

> <Bond>
0.149

> <Angle>
1.142

> <Pdih>
1.129

> <Idih>
0.000

> <Tether>
0.000

$$$$
VeraChem MOL file


 20 19  0  0  0  0  0  0  0  0999 V2000     
   18.7827   21.0223   23.2341 N   0  3  0  0  0  0  0  0  0  0  0  0
   18.3247   21.0132   24.1496 H   0  0  0  0  0  0  0  0  0  0  0  0
   18.0494   20.9559   22.5239 H   0  0  0  0  0  0  0  0  0  0  0  0
   19.2272   21.9381   23.1277 H   0  0  0  0  0  0  0  0  0  0  0  0
   19.7824   19.9061   23.1015 C   0  0  2  0  0  0  0  0  0  0  0  0
   20.5235   20.0633   23.8914 H   0  0  0  0  0  0  0  0  0  0  0  0
   20.5032   19.9954   21.7455 C   0  0  0  0  0  0  0  0  0  0  0  0
   20.8875   21.0088   21.5769 H   0  0  0  0  0  0  0  0  0  0  0  0
   19.8276   19.7450   20.9182 H   0  0  0  0  0  0  0  0  0  0  0  0
   21.3628   19.3165   21.7123 H   0  0  0  0  0  0  0  0  0  0  0  0
   19.1134   18.5299   23.3378 C   0  0  0  0  0  0  0  0  0  0  0  0
   18.5981   18.5763   24.3062 H   0  0  0  0  0  0  0  0  0  0  0  0
   18.3282   18.3564   22.5901 H   0  0  0  0  0  0  0  0  0  0  0  0
   20.0900   17.3249   23.3800 C   0  0  0  0  0  0  0  0  0  0  0  0
   19.7352   16.6129   24.1384 H   0  0  0  0  0  0  0  0  0  0  0  0
   21.0847   17.6506   23.7155 H   0  0  0  0  0  0  0  0  0  0  0  0
   20.1955   16.5713   22.0331 C   0  0  0  0  0  0  0  0  0  0  0  0
   19.2179   16.1764   21.7274 H   0  0  0  0  0  0  0  0  0  0  0  0
   20.8840   15.7209   22.1218 H   0  0  0  0  0  0  0  0  0  0  0  0
   20.5657   17.2148   21.2272 H   0  0  0  0  0  0  0  0  0  0  0  0
  1  2  1  0  0  0  0
  1  3  1  0  0  0  0
  1  4  1  0  0  0  0
  1  5  1  0  0  0  0
  5  6  1  0  0  0  0
  5  7  1  0  0  0  0
  7  8  1  0  0  0  0
  7  9  1  0  0  0  0
  7 10  1  0  0  0  0
  5 11  1  0  0  0  0
 11 12  1  0  0  0  0
 11 13  1  0  0  0  0
 11 14  1  0  0  0  0
 14 15  1  0  0  0  0
 14 16  1  0  0  0  0
 14 17  1  0  0  0  0
 17 18  1  0  0  0  0
 17 19  1  0  0  0  0
 17 20  1  0  0  0  0
M  END
> <VConfSearch Rank>
393

> <Conf_Id>
52

> <Delta U+W>
2.995

> <U+W>
-33.282

> <U>
25.224

> <W>
-58.506

> <W(PB)>
-60.411

> <W(SA)>
1.905

> <Valence>
4.945

> <Coulomb>
19.467

> <VdW>
0.813

> <VdW6>
-5.458

> <VdW12>
6.270

> <Bond>
0.200

> <Angle>
1.675

> <Pdih>
3.070

> <Idih>
0.000

> <Tether>
0.000

$$$$
VeraChem MOL file


 20 19  0  0  0  0  0  0  0  0999 V2000     
   18.3598   19.6342   22.1848 N   0  3  0  0  0  0  0  0  0  0  0  0
   18.6353   20.2216   21.3940 H   0  0  0  0  0  0  0  0  0  0  0  0
   17.4398   19.9548   22.4984 H   0  0  0  0  0  0  0  0  0  0  0  0
   18.2515   18.6801   21.8340 H   0  0  0  0  0  0  0  0  0  0  0  0
   19.3743   19.6964   23.2939 C   0  0  2  0  0  0  0  0  0  0  0  0
   18.9896   19.0865   24.1171 H   0  0  0  0  0  0  0  0  0  0  0  0
   19.5134   21.1447   23.7928 C   0  0  0  0  0  0  0  0  0  0  0  0
   19.9124   21.7987   23.0073 H   0  0  0  0  0  0  0  0  0  0  0  0
   20.1875   21.1978   24.6568 H   0  0  0  0  0  0  0  0  0  0  0  0
   18.5409   21.5425   24.1077 H   0  0  0  0  0  0  0  0  0  0  0  0
   20.7544   19.1347   22.8766 C   0  0  0  0  0  0  0  0  0  0  0  0
   21.0499   19.5513   21.9046 H   0  0  0  0  0  0  0  0  0  0  0  0
   21.5071   19.4866   23.5947 H   0  0  0  0  0  0  0  0  0  0  0  0
   20.8433   17.5863   22.8435 C   0  0  0  0  0  0  0  0  0  0  0  0
   20.5919   17.1798   23.8332 H   0  0  0  0  0  0  0  0  0  0  0  0
   21.8905   17.3076   22.6595 H   0  0  0  0  0  0  0  0  0  0  0  0
   19.9635   16.9081   21.7687 C   0  0  0  0  0  0  0  0  0  0  0  0
   20.2313   15.8476   21.6739 H   0  0  0  0  0  0  0  0  0  0  0  0
   20.1035   17.3749   20.7849 H   0  0  0  0  0  0  0  0  0  0  0  0
   18.9005   16.9460   22.0333 H   0  0  0  0  0  0  0  0  0  0  0  0
  1  2  1  0  0  0  0
  1  3  1  0  0  0  0
  1  4  1  0  0  0  0
  1  5  1  0  0  0  0
  5  6  1  0  0  0  0
  5  7  1  0  0  0  0
  7  8  1  0  0  0  0
  7  9  1  0  0  0  0
  7 10  1  0  0  0  0
  5 11  1  0  0  0  0
 11 12  1  0  0  0  0
 11 13  1  0  0  0  0
 11 14  1  0  0  0  0
 14 15  1  0  0  0  0
 14 16  1  0  0  0  0
 14 17  1  0  0  0  0
 17 18  1  0  0  0  0
 17 19  1  0  0  0  0
 17 20  1  0  0  0  0
M  END
> <VConfSearch Rank>
394

> <Conf_Id>
54

> <Delta U+W>
2.752

> <U+W>
-33.525

> <U>
24.337

> <W>
-57.862

> <W(PB)>
-59.764

> <W(SA)>
1.901

> <Valence>
3.593

> <Coulomb>
20.067

> <VdW>
0.677

> <VdW6>
-5.466

> <VdW12>
6.144

> <Bond>
0.191

> <Angle>
1.557

> <Pdih>
1.845

> <Idih>
0.000

> <Tether>
0.000

$$$$
VeraChem MOL file


 20 19  0  0  0  0  0  0  0  0999 V2000     
   19.2924   18.9776   20.6840 N   0  3  0  0  0  0  0  0  0  0  0  0
   18.8419   18.4525   19.9297 H   0  0  0  0  0  0  0  0  0  0  0  0
   20.0425   19.5319   20.2622 H   0  0  0  0  0  0  0  0  0  0  0  0
   18.6000   19.6308   21.0571 H   0  0  0  0  0  0  0  0  0  0  0  0
   19.8174   18.0611   21.7556 C   0  0  2  0  0  0  0  0  0  0  0  0
   20.5314   17.3950   21.2610 H   0  0  0  0  0  0  0  0  0  0  0  0
   18.6917   17.1860   22.3351 C   0  0  0  0  0  0  0  0  0  0  0  0
   19.0781   16.5206   23.1171 H   0  0  0  0  0  0  0  0  0  0  0  0
   18.2530   16.5568   21.5511 H   0  0  0  0  0  0  0  0  0  0  0  0
   17.8868   17.7926   22.7665 H   0  0  0  0  0  0  0  0  0  0  0  0
   20.5902   18.8216   22.8599 C   0  0  0  0  0  0  0  0  0  0  0  0
   21.0208   18.0904   23.5567 H   0  0  0  0  0  0  0  0  0  0  0  0
   21.4434   19.3340   22.3962 H   0  0  0  0  0  0  0  0  0  0  0  0
   19.7490   19.8529   23.6557 C   0  0  0  0  0  0  0  0  0  0  0  0
   18.9189   19.3505   24.1699 H   0  0  0  0  0  0  0  0  0  0  0  0
   19.3028   20.5871   22.9716 H   0  0  0  0  0  0  0  0  0  0  0  0
   20.6067   20.5967   24.7018 C   0  0  0  0  0  0  0  0  0  0  0  0
   19.9978   21.3211   25.2582 H   0  0  0  0  0  0  0  0  0  0  0  0
   21.4275   21.1457   24.2221 H   0  0  0  0  0  0  0  0  0  0  0  0
   21.0417   19.8961   25.4265 H   0  0  0  0  0  0  0  0  0  0  0  0
  1  2  1  0  0  0  0
  1  3  1  0  0  0  0
  1  4  1  0  0  0  0
  1  5  1  0  0  0  0
  5  6  1  0  0  0  0
  5  7  1  0  0  0  0
  7  8  1  0  0  0  0
  7  9  1  0  0  0  0
  7 10  1  0  0  0  0
  5 11  1  0  0  0  0
 11 12  1  0  0  0  0
 11 13  1  0  0  0  0
 11 14  1  0  0  0  0
 14 15  1  0  0  0  0
 14 16  1  0  0  0  0
 14 17  1  0  0  0  0
 17 18  1  0  0  0  0
 17 19  1  0  0  0  0
 17 20  1  0  0  0  0
M  END
> <VConfSearch Rank>
395

> <Conf_Id>
63

> <Delta U+W>
0.420

> <U+W>
-35.856

> <U>
22.625

> <W>
-58.481

> <W(PB)>
-60.400

> <W(SA)>
1.919

> <Valence>
2.404

> <Coulomb>
19.464

> <VdW>
0.757

> <VdW6>
-5.074

> <VdW12>
5.830

> <Bond>
0.172

> <Angle>
1.207

> <Pdih>
1.025

> <Idih>
0.000

> <Tether>
0.000

$$$$
VeraChem MOL file


 20 19  0  0  0  0  0  0  0  0999 V2000     
   18.7270   18.1267   23.9844 N   0  3  0  0  0  0  0  0  0  0  0  0
   18.5528   19.0602   24.3653 H   0  0  0  0  0  0  0  0  0  0  0  0
   19.3408   17.6362   24.6394 H   0  0  0  0  0  0  0  0  0  0  0  0
   17.8324   17.6295   23.9726 H   0  0  0  0  0  0  0  0  0  0  0  0
   19.3349   18.2017   22.6100 C   0  0  2  0  0  0  0  0  0  0  0  0
   18.6183   18.7342   21.9775 H   0  0  0  0  0  0  0  0  0  0  0  0
   19.5336   16.7934   22.0264 C   0  0  0  0  0  0  0  0  0  0  0  0
   18.5825   16.2477   21.9964 H   0  0  0  0  0  0  0  0  0  0  0  0
   20.2431   16.2105   22.6269 H   0  0  0  0  0  0  0  0  0  0  0  0
   19.9181   16.8474   21.0003 H   0  0  0  0  0  0  0  0  0  0  0  0
   20.6684   18.9832   22.5954 C   0  0  0  0  0  0  0  0  0  0  0  0
   21.4070   18.4548   23.2126 H   0  0  0  0  0  0  0  0  0  0  0  0
   21.0693   18.9864   21.5731 H   0  0  0  0  0  0  0  0  0  0  0  0
   20.5514   20.4481   23.0877 C   0  0  0  0  0  0  0  0  0  0  0  0
   21.5455   20.9149   23.0444 H   0  0  0  0  0  0  0  0  0  0  0  0
   20.2532   20.4712   24.1446 H   0  0  0  0  0  0  0  0  0  0  0  0
   19.5650   21.2923   22.2488 C   0  0  0  0  0  0  0  0  0  0  0  0
   19.8431   21.2843   21.1869 H   0  0  0  0  0  0  0  0  0  0  0  0
   19.5682   22.3365   22.5874 H   0  0  0  0  0  0  0  0  0  0  0  0
   18.5367   20.9197   22.3366 H   0  0  0  0  0  0  0  0  0  0  0  0
  1  2  1  0  0  0  0
  1  3  1  0  0  0  0
  1  4  1  0  0  0  0
  1  5  1  0  0  0  0
  5  6  1  0  0  0  0
  5  7  1  0  0  0  0
  7  8  1  0  0  0  0
  7  9  1  0  0  0  0
  7 10  1  0  0  0  0
  5 11  1  0  0  0  0
 11 12  1  0  0  0  0
 11 13  1  0  0  0  0
 11 14  1  0  0  0  0
 14 15  1  0  0  0  0
 14 16  1  0  0  0  0
 14 17  1  0  0  0  0
 17 18  1  0  0  0  0
 17 19  1  0  0  0  0
 17 20  1  0  0  0  0
M  END
> <VConfSearch Rank>
396

> <Conf_Id>
50

> <Delta U+W>
0.466

> <U+W>
-35.811

> <U>
22.369

> <W>
-58.180

> <W(PB)>
-60.103

> <W(SA)>
1.923

> <Valence>
2.168

> <Coulomb>
19.636

> <VdW>
0.566

> <VdW6>
-5.263

> <VdW12>
5.829

> <Bond>
0.162

> <Angle>
1.066

> <Pdih>
0.939

> <Idih>
0.000

> <Tether>
0.000

$$$$
VeraChem MOL file


 20 19  0  0  0  0  0  0  0  0999 V2000     
   18.3273   18.7357   20.9067 N   0  3  0  0  0  0  0  0  0  0  0  0
   17.9031   19.6631   20.8179 H   0  0  0  0  0  0  0  0  0  0  0  0
   17.5811   18.0782   21.1466 H   0  0  0  0  0  0  0  0  0  0  0  0
   18.6777   18.4738   19.9813 H   0  0  0  0  0  0  0  0  0  0  0  0
   19.4260   18.7241   21.9350 C   0  0  2  0  0  0  0  0  0  0  0  0
   20.1681   19.4538   21.5962 H   0  0  0  0  0  0  0  0  0  0  0  0
   20.0871   17.3340   21.9840 C   0  0  0  0  0  0  0  0  0  0  0  0
   19.3634   16.5623   22.2745 H   0  0  0  0  0  0  0  0  0  0  0  0
   20.9143   17.3062   22.7014 H   0  0  0  0  0  0  0  0  0  0  0  0
   20.4931   17.0645   21.0013 H   0  0  0  0  0  0  0  0  0  0  0  0
   18.9175   19.1661   23.3294 C   0  0  0  0  0  0  0  0  0  0  0  0
   17.9543   19.6804   23.2142 H   0  0  0  0  0  0  0  0  0  0  0  0
   18.7110   18.2895   23.9579 H   0  0  0  0  0  0  0  0  0  0  0  0
   19.8736   20.1375   24.0670 C   0  0  0  0  0  0  0  0  0  0  0  0
   19.3962   20.4548   25.0048 H   0  0  0  0  0  0  0  0  0  0  0  0
   20.0048   21.0495   23.4678 H   0  0  0  0  0  0  0  0  0  0  0  0
   21.2582   19.5354   24.3935 C   0  0  0  0  0  0  0  0  0  0  0  0
   21.1601   18.5981   24.9564 H   0  0  0  0  0  0  0  0  0  0  0  0
   21.8449   20.2330   25.0052 H   0  0  0  0  0  0  0  0  0  0  0  0
   21.8340   19.3360   23.4812 H   0  0  0  0  0  0  0  0  0  0  0  0
  1  2  1  0  0  0  0
  1  3  1  0  0  0  0
  1  4  1  0  0  0  0
  1  5  1  0  0  0  0
  5  6  1  0  0  0  0
  5  7  1  0  0  0  0
  7  8  1  0  0  0  0
  7  9  1  0  0  0  0
  7 10  1  0  0  0  0
  5 11  1  0  0  0  0
 11 12  1  0  0  0  0
 11 13  1  0  0  0  0
 11 14  1  0  0  0  0
 14 15  1  0  0  0  0
 14 16  1  0  0  0  0
 14 17  1  0  0  0  0
 17 18  1  0  0  0  0
 17 19  1  0  0  0  0
 17 20  1  0  0  0  0
M  END
> <VConfSearch Rank>
397

> <Conf_Id>
3

> <Delta U+W>
3.093

> <U+W>
-33.184

> <U>
25.256

> <W>
-58.439

> <W(PB)>
-60.337

> <W(SA)>
1.898

> <Valence>
4.963

> <Coulomb>
19.511

> <VdW>
0.782

> <VdW6>
-5.429

> <VdW12>
6.211

> <Bond>
0.174

> <Angle>
1.377

> <Pdih>
3.412

> <Idih>
0.000

> <Tether>
0.000

$$$$
VeraChem MOL file


 20 19  0  0  0  0  0  0  0  0999 V2000     
   17.7420   18.5775   21.6104 N   0  3  0  0  0  0  0  0  0  0  0  0
   17.6017   18.8869   20.6449 H   0  0  0  0  0  0  0  0  0  0  0  0
   17.0341   19.0447   22.1835 H   0  0  0  0  0  0  0  0  0  0  0  0
   17.5459   17.5738   21.6394 H   0  0  0  0  0  0  0  0  0  0  0  0
   19.1346   18.8826   22.0898 C   0  0  2  0  0  0  0  0  0  0  0  0
   19.2521   19.9681   22.0195 H   0  0  0  0  0  0  0  0  0  0  0  0
   20.1752   18.2203   21.1686 C   0  0  0  0  0  0  0  0  0  0  0  0
   21.1918   18.5449   21.4189 H   0  0  0  0  0  0  0  0  0  0  0  0
   19.9956   18.4950   20.1219 H   0  0  0  0  0  0  0  0  0  0  0  0
   20.1346   17.1267   21.2452 H   0  0  0  0  0  0  0  0  0  0  0  0
   19.3210   18.4684   23.5690 C   0  0  0  0  0  0  0  0  0  0  0  0
   18.5060   18.9050   24.1614 H   0  0  0  0  0  0  0  0  0  0  0  0
   19.2122   17.3794   23.6579 H   0  0  0  0  0  0  0  0  0  0  0  0
   20.6687   18.8962   24.2045 C   0  0  0  0  0  0  0  0  0  0  0  0
   21.5028   18.3714   23.7196 H   0  0  0  0  0  0  0  0  0  0  0  0
   20.6809   18.5726   25.2547 H   0  0  0  0  0  0  0  0  0  0  0  0
   20.9079   20.4222   24.1480 C   0  0  0  0  0  0  0  0  0  0  0  0
   20.0841   20.9690   24.6251 H   0  0  0  0  0  0  0  0  0  0  0  0
   21.0029   20.7776   23.1142 H   0  0  0  0  0  0  0  0  0  0  0  0
   21.8342   20.6860   24.6747 H   0  0  0  0  0  0  0  0  0  0  0  0
  1  2  1  0  0  0  0
  1  3  1  0  0  0  0
  1  4  1  0  0  0  0
  1  5  1  0  0  0  0
  5  6  1  0  0  0  0
  5  7  1  0  0  0  0
  7  8  1  0  0  0  0
  7  9  1  0  0  0  0
  7 10  1  0  0  0  0
  5 11  1  0  0  0  0
 11 12  1  0  0  0  0
 11 13  1  0  0  0  0
 11 14  1  0  0  0  0
 14 15  1  0  0  0  0
 14 16  1  0  0  0  0
 14 17  1  0  0  0  0
 17 18  1  0  0  0  0
 17 19  1  0  0  0  0
 17 20  1  0  0  0  0
M  END
> <VConfSearch Rank>
398

> <Conf_Id>
64

> <Delta U+W>
0.544

> <U+W>
-35.732

> <U>
22.800

> <W>
-58.532

> <W(PB)>
-60.437

> <W(SA)>
1.905

> <Valence>
2.662

> <Coulomb>
19.485

> <VdW>
0.653

> <VdW6>
-5.460

> <VdW12>
6.113

> <Bond>
0.174

> <Angle>
1.378

> <Pdih>
1.109

> <Idih>
0.000

> <Tether>
0.000

$$$$
VeraChem MOL file


 20 19  0  0  0  0  0  0  0  0999 V2000     
   21.6192   19.2932   21.7203 N   0  3  0  0  0  0  0  0  0  0  0  0
   21.1168   20.1703   21.5664 H   0  0  0  0  0  0  0  0  0  0  0  0
   22.0159   19.0064   20.8215 H   0  0  0  0  0  0  0  0  0  0  0  0
   22.4027   19.4940   22.3476 H   0  0  0  0  0  0  0  0  0  0  0  0
   20.7145   18.2321   22.2863 C   0  0  2  0  0  0  0  0  0  0  0  0
   21.3369   17.3393   22.4028 H   0  0  0  0  0  0  0  0  0  0  0  0
   19.5920   17.8831   21.2954 C   0  0  0  0  0  0  0  0  0  0  0  0
   19.0051   18.7688   21.0254 H   0  0  0  0  0  0  0  0  0  0  0  0
   18.9154   17.1313   21.7200 H   0  0  0  0  0  0  0  0  0  0  0  0
   20.0126   17.4680   20.3714 H   0  0  0  0  0  0  0  0  0  0  0  0
   20.1842   18.5996   23.6951 C   0  0  0  0  0  0  0  0  0  0  0  0
   19.6790   17.7286   24.1327 H   0  0  0  0  0  0  0  0  0  0  0  0
   21.0566   18.7790   24.3373 H   0  0  0  0  0  0  0  0  0  0  0  0
   19.2559   19.8433   23.7767 C   0  0  0  0  0  0  0  0  0  0  0  0
   19.5173   20.5788   23.0047 H   0  0  0  0  0  0  0  0  0  0  0  0
   19.4325   20.3443   24.7389 H   0  0  0  0  0  0  0  0  0  0  0  0
   17.7504   19.4973   23.6945 C   0  0  0  0  0  0  0  0  0  0  0  0
   17.4845   19.0319   22.7391 H   0  0  0  0  0  0  0  0  0  0  0  0
   17.1423   20.4050   23.8002 H   0  0  0  0  0  0  0  0  0  0  0  0
   17.4610   18.8087   24.4989 H   0  0  0  0  0  0  0  0  0  0  0  0
  1  2  1  0  0  0  0
  1  3  1  0  0  0  0
  1  4  1  0  0  0  0
  1  5  1  0  0  0  0
  5  6  1  0  0  0  0
  5  7  1  0  0  0  0
  7  8  1  0  0  0  0
  7  9  1  0  0  0  0
  7 10  1  0  0  0  0
  5 11  1  0  0  0  0
 11 12  1  0  0  0  0
 11 13  1  0  0  0  0
 11 14  1  0  0  0  0
 14 15  1  0  0  0  0
 14 16  1  0  0  0  0
 14 17  1  0  0  0  0
 17 18  1  0  0  0  0
 17 19  1  0  0  0  0
 17 20  1  0  0  0  0
M  END
> <VConfSearch Rank>
399

> <Conf_Id>
35

> <Delta U+W>
3.004

> <U+W>
-33.272

> <U>
25.367

> <W>
-58.639

> <W(PB)>
-60.512

> <W(SA)>
1.873

> <Valence>
4.943

> <Coulomb>
19.661

> <VdW>
0.764

> <VdW6>
-5.871

> <VdW12>
6.636

> <Bond>
0.230

> <Angle>
1.857

> <Pdih>
2.855

> <Idih>
0.000

> <Tether>
0.000

$$$$
VeraChem MOL file


 20 19  0  0  0  0  0  0  0  0999 V2000     
   18.3539   19.9996   22.8072 N   0  3  0  0  0  0  0  0  0  0  0  0
   17.9017   20.6150   23.4887 H   0  0  0  0  0  0  0  0  0  0  0  0
   17.6546   19.7651   22.0975 H   0  0  0  0  0  0  0  0  0  0  0  0
   19.0903   20.5366   22.3453 H   0  0  0  0  0  0  0  0  0  0  0  0
   18.9095   18.7647   23.4620 C   0  0  2  0  0  0  0  0  0  0  0  0
   18.0451   18.2552   23.8990 H   0  0  0  0  0  0  0  0  0  0  0  0
   19.8626   19.1218   24.6165 C   0  0  0  0  0  0  0  0  0  0  0  0
   20.7136   19.7195   24.2689 H   0  0  0  0  0  0  0  0  0  0  0  0
   20.2514   18.2143   25.0946 H   0  0  0  0  0  0  0  0  0  0  0  0
   19.3361   19.7024   25.3837 H   0  0  0  0  0  0  0  0  0  0  0  0
   19.5485   17.7771   22.4522 C   0  0  0  0  0  0  0  0  0  0  0  0
   19.6346   16.8023   22.9500 H   0  0  0  0  0  0  0  0  0  0  0  0
   18.8501   17.6180   21.6203 H   0  0  0  0  0  0  0  0  0  0  0  0
   20.9478   18.1448   21.8834 C   0  0  0  0  0  0  0  0  0  0  0  0
   21.2724   17.3261   21.2260 H   0  0  0  0  0  0  0  0  0  0  0  0
   21.6896   18.1841   22.6926 H   0  0  0  0  0  0  0  0  0  0  0  0
   20.9902   19.4615   21.0750 C   0  0  0  0  0  0  0  0  0  0  0  0
   20.2010   19.4862   20.3124 H   0  0  0  0  0  0  0  0  0  0  0  0
   21.9542   19.5593   20.5590 H   0  0  0  0  0  0  0  0  0  0  0  0
   20.8834   20.3377   21.7247 H   0  0  0  0  0  0  0  0  0  0  0  0
  1  2  1  0  0  0  0
  1  3  1  0  0  0  0
  1  4  1  0  0  0  0
  1  5  1  0  0  0  0
  5  6  1  0  0  0  0
  5  7  1  0  0  0  0
  7  8  1  0  0  0  0
  7  9  1  0  0  0  0
  7 10  1  0  0  0  0
  5 11  1  0  0  0  0
 11 12  1  0  0  0  0
 11 13  1  0  0  0  0
 11 14  1  0  0  0  0
 14 15  1  0  0  0  0
 14 16  1  0  0  0  0
 14 17  1  0  0  0  0
 17 18  1  0  0  0  0
 17 19  1  0  0  0  0
 17 20  1  0  0  0  0
M  END
> <VConfSearch Rank>
400

> <Conf_Id>
55

> <Delta U+W>
2.767

> <U+W>
-33.509

> <U>
24.552

> <W>
-58.061

> <W(PB)>
-59.930

> <W(SA)>
1.869

> <Valence>
3.726

> <Coulomb>
20.219

> <VdW>
0.606

> <VdW6>
-6.395

> <VdW12>
7.001

> <Bond>
0.241

> <Angle>
2.098

> <Pdih>
1.387

> <Idih>
0.000

> <Tether>
0.000

$$$$
VeraChem MOL file


 20 19  0  0  0  0  0  0  0  0999 V2000     
   18.2250   20.1521   22.3408 N   0  3  0  0  0  0  0  0  0  0  0  0
   18.5784   20.5452   21.4649 H   0  0  0  0  0  0  0  0  0  0  0  0
   17.5671   20.8296   22.7357 H   0  0  0  0  0  0  0  0  0  0  0  0
   17.6913   19.3112   22.1073 H   0  0  0  0  0  0  0  0  0  0  0  0
   19.3441   19.8476   23.2999 C   0  0  2  0  0  0  0  0  0  0  0  0
   18.8824   19.4308   24.2004 H   0  0  0  0  0  0  0  0  0  0  0  0
   20.0852   21.1365   23.6918 C   0  0  0  0  0  0  0  0  0  0  0  0
   19.3912   21.8671   24.1253 H   0  0  0  0  0  0  0  0  0  0  0  0
   20.5675   21.5981   22.8211 H   0  0  0  0  0  0  0  0  0  0  0  0
   20.8594   20.9290   24.4409 H   0  0  0  0  0  0  0  0  0  0  0  0
   20.3381   18.8058   22.7406 C   0  0  0  0  0  0  0  0  0  0  0  0
   20.7990   19.1907   21.8212 H   0  0  0  0  0  0  0  0  0  0  0  0
   21.1522   18.6687   23.4648 H   0  0  0  0  0  0  0  0  0  0  0  0
   19.6823   17.4319   22.4615 C   0  0  0  0  0  0  0  0  0  0  0  0
   18.9004   17.5326   21.6967 H   0  0  0  0  0  0  0  0  0  0  0  0
   19.1905   17.0643   23.3731 H   0  0  0  0  0  0  0  0  0  0  0  0
   20.7190   16.3918   21.9853 C   0  0  0  0  0  0  0  0  0  0  0  0
   21.2071   16.7170   21.0573 H   0  0  0  0  0  0  0  0  0  0  0  0
   20.2369   15.4249   21.7909 H   0  0  0  0  0  0  0  0  0  0  0  0
   21.4971   16.2330   22.7433 H   0  0  0  0  0  0  0  0  0  0  0  0
  1  2  1  0  0  0  0
  1  3  1  0  0  0  0
  1  4  1  0  0  0  0
  1  5  1  0  0  0  0
  5  6  1  0  0  0  0
  5  7  1  0  0  0  0
  7  8  1  0  0  0  0
  7  9  1  0  0  0  0
  7 10  1  0  0  0  0
  5 11  1  0  0  0  0
 11 12  1  0  0  0  0
 11 13  1  0  0  0  0
 11 14  1  0  0  0  0
 14 15  1  0  0  0  0
 14 16  1  0  0  0  0
 14 17  1  0  0  0  0
 17 18  1  0  0  0  0
 17 19  1  0  0  0  0
 17 20  1  0  0  0  0
M  END
> <VConfSearch Rank>
401

> <Conf_Id>
74

> <Delta U+W>
0.000

> <U+W>
-36.276

> <U>
22.080

> <W>
-58.356

> <W(PB)>
-60.289

> <W(SA)>
1.932

> <Valence>
1.885

> <Coulomb>
19.559

> <VdW>
0.637

> <VdW6>
-4.482

> <VdW12>
5.119

> <Bond>
0.136

> <Angle>
0.867

> <Pdih>
0.882

> <Idih>
0.000

> <Tether>
0.000

$$$$
VeraChem MOL file


 20 19  0  0  0  0  0  0  0  0999 V2000     
   19.0677   21.1307   22.0578 N   0  3  0  0  0  0  0  0  0  0  0  0
   18.7758   21.5378   22.9505 H   0  0  0  0  0  0  0  0  0  0  0  0
   18.2196   20.8735   21.5466 H   0  0  0  0  0  0  0  0  0  0  0  0
   19.5309   21.8717   21.5249 H   0  0  0  0  0  0  0  0  0  0  0  0
   19.9736   19.9466   22.2568 C   0  0  2  0  0  0  0  0  0  0  0  0
   20.8467   20.3153   22.8043 H   0  0  0  0  0  0  0  0  0  0  0  0
   20.4472   19.4021   20.8966 C   0  0  0  0  0  0  0  0  0  0  0  0
   20.8813   20.2055   20.2889 H   0  0  0  0  0  0  0  0  0  0  0  0
   19.6150   18.9619   20.3334 H   0  0  0  0  0  0  0  0  0  0  0  0
   21.2216   18.6365   21.0207 H   0  0  0  0  0  0  0  0  0  0  0  0
   19.2896   18.8569   23.1148 C   0  0  0  0  0  0  0  0  0  0  0  0
   18.8814   19.3308   24.0173 H   0  0  0  0  0  0  0  0  0  0  0  0
   18.4331   18.4398   22.5687 H   0  0  0  0  0  0  0  0  0  0  0  0
   20.2397   17.7134   23.5473 C   0  0  0  0  0  0  0  0  0  0  0  0
   21.1279   18.1352   24.0383 H   0  0  0  0  0  0  0  0  0  0  0  0
   20.5944   17.1595   22.6680 H   0  0  0  0  0  0  0  0  0  0  0  0
   19.5431   16.7273   24.5096 C   0  0  0  0  0  0  0  0  0  0  0  0
   19.2105   17.2350   25.4244 H   0  0  0  0  0  0  0  0  0  0  0  0
   20.2290   15.9219   24.8028 H   0  0  0  0  0  0  0  0  0  0  0  0
   18.6661   16.2667   24.0363 H   0  0  0  0  0  0  0  0  0  0  0  0
  1  2  1  0  0  0  0
  1  3  1  0  0  0  0
  1  4  1  0  0  0  0
  1  5  1  0  0  0  0
  5  6  1  0  0  0  0
  5  7  1  0  0  0  0
  7  8  1  0  0  0  0
  7  9  1  0  0  0  0
  7 10  1  0  0  0  0
  5 11  1  0  0  0  0
 11 12  1  0  0  0  0
 11 13  1  0  0  0  0
 11 14  1  0  0  0  0
 14 15  1  0  0  0  0
 14 16  1  0  0  0  0
 14 17  1  0  0  0  0
 17 18  1  0  0  0  0
 17 19  1  0  0  0  0
 17 20  1  0  0  0  0
M  END
> <VConfSearch Rank>
402

> <Conf_Id>
80

> <Delta U+W>
0.460

> <U+W>
-35.817

> <U>
22.495

> <W>
-58.311

> <W(PB)>
-60.259

> <W(SA)>
1.948

> <Valence>
2.419

> <Coulomb>
19.304

> <VdW>
0.772

> <VdW6>
-4.635

> <VdW12>
5.407

> <Bond>
0.149

> <Angle>
1.142

> <Pdih>
1.129

> <Idih>
0.000

> <Tether>
0.000

$$$$
VeraChem MOL file


 20 19  0  0  0  0  0  0  0  0999 V2000     
   21.3362   18.4596   20.9717 N   0  3  0  0  0  0  0  0  0  0  0  0
   21.6415   19.3309   20.5295 H   0  0  0  0  0  0  0  0  0  0  0  0
   20.6567   18.0200   20.3459 H   0  0  0  0  0  0  0  0  0  0  0  0
   22.1513   17.8422   21.0175 H   0  0  0  0  0  0  0  0  0  0  0  0
   20.7527   18.7035   22.3366 C   0  0  2  0  0  0  0  0  0  0  0  0
   21.5470   19.1657   22.9310 H   0  0  0  0  0  0  0  0  0  0  0  0
   20.3745   17.3682   23.0002 C   0  0  0  0  0  0  0  0  0  0  0  0
   21.2121   16.6615   22.9537 H   0  0  0  0  0  0  0  0  0  0  0  0
   19.5115   16.9073   22.5040 H   0  0  0  0  0  0  0  0  0  0  0  0
   20.1333   17.5109   24.0596 H   0  0  0  0  0  0  0  0  0  0  0  0
   19.5670   19.6966   22.2646 C   0  0  0  0  0  0  0  0  0  0  0  0
   19.9226   20.5969   21.7463 H   0  0  0  0  0  0  0  0  0  0  0  0
   18.7663   19.2866   21.6349 H   0  0  0  0  0  0  0  0  0  0  0  0
   18.9968   20.1374   23.6387 C   0  0  0  0  0  0  0  0  0  0  0  0
   18.7100   21.1966   23.5755 H   0  0  0  0  0  0  0  0  0  0  0  0
   19.7764   20.0826   24.4114 H   0  0  0  0  0  0  0  0  0  0  0  0
   17.7494   19.3325   24.0737 C   0  0  0  0  0  0  0  0  0  0  0  0
   16.9374   19.4431   23.3433 H   0  0  0  0  0  0  0  0  0  0  0  0
   17.3773   19.6940   25.0411 H   0  0  0  0  0  0  0  0  0  0  0  0
   17.9636   18.2632   24.1795 H   0  0  0  0  0  0  0  0  0  0  0  0
  1  2  1  0  0  0  0
  1  3  1  0  0  0  0
  1  4  1  0  0  0  0
  1  5  1  0  0  0  0
  5  6  1  0  0  0  0
  5  7  1  0  0  0  0
  7  8  1  0  0  0  0
  7  9  1  0  0  0  0
  7 10  1  0  0  0  0
  5 11  1  0  0  0  0
 11 12  1  0  0  0  0
 11 13  1  0  0  0  0
 11 14  1  0  0  0  0
 14 15  1  0  0  0  0
 14 16  1  0  0  0  0
 14 17  1  0  0  0  0
 17 18  1  0  0  0  0
 17 19  1  0  0  0  0
 17 20  1  0  0  0  0
M  END
> <VConfSearch Rank>
403

> <Conf_Id>
52

> <Delta U+W>
2.995

> <U+W>
-33.282

> <U>
25.224

> <W>
-58.506

> <W(PB)>
-60.411

> <W(SA)>
1.905

> <Valence>
4.945

> <Coulomb>
19.467

> <VdW>
0.813

> <VdW6>
-5.458

> <VdW12>
6.270

> <Bond>
0.200

> <Angle>
1.675

> <Pdih>
3.070

> <Idih>
0.000

> <Tether>
0.000

$$$$
VeraChem MOL file


 20 19  0  0  0  0  0  0  0  0999 V2000     
   20.8884   18.0546   23.3931 N   0  3  0  0  0  0  0  0  0  0  0  0
   21.7502   18.3015   22.9003 H   0  0  0  0  0  0  0  0  0  0  0  0
   21.0204   17.1212   23.7918 H   0  0  0  0  0  0  0  0  0  0  0  0
   20.7818   18.7103   24.1701 H   0  0  0  0  0  0  0  0  0  0  0  0
   19.6987   18.0995   22.4734 C   0  0  2  0  0  0  0  0  0  0  0  0
   18.8292   17.7789   23.0555 H   0  0  0  0  0  0  0  0  0  0  0  0
   19.8960   17.1053   21.3166 C   0  0  0  0  0  0  0  0  0  0  0  0
   20.7497   17.3904   20.6891 H   0  0  0  0  0  0  0  0  0  0  0  0
   19.0031   17.0631   20.6804 H   0  0  0  0  0  0  0  0  0  0  0  0
   20.0764   16.0935   21.7000 H   0  0  0  0  0  0  0  0  0  0  0  0
   19.4190   19.5185   21.9234 C   0  0  0  0  0  0  0  0  0  0  0  0
   20.3512   19.9687   21.5574 H   0  0  0  0  0  0  0  0  0  0  0  0
   18.7640   19.4310   21.0462 H   0  0  0  0  0  0  0  0  0  0  0  0
   18.7189   20.4769   22.9224 C   0  0  0  0  0  0  0  0  0  0  0  0
   17.7642   20.0400   23.2474 H   0  0  0  0  0  0  0  0  0  0  0  0
   18.4613   21.4012   22.3864 H   0  0  0  0  0  0  0  0  0  0  0  0
   19.5628   20.8525   24.1617 C   0  0  0  0  0  0  0  0  0  0  0  0
   19.0877   21.6784   24.7072 H   0  0  0  0  0  0  0  0  0  0  0  0
   20.5704   21.1806   23.8747 H   0  0  0  0  0  0  0  0  0  0  0  0
   19.6469   20.0142   24.8628 H   0  0  0  0  0  0  0  0  0  0  0  0
  1  2  1  0  0  0  0
  1  3  1  0  0  0  0
  1  4  1  0  0  0  0
  1  5  1  0  0  0  0
  5  6  1  0  0  0  0
  5  7  1  0  0  0  0
  7  8  1  0  0  0  0
  7  9  1  0  0  0  0
  7 10  1  0  0  0  0
  5 11  1  0  0  0  0
 11 12  1  0  0  0  0
 11 13  1  0  0  0  0
 11 14  1  0  0  0  0
 14 15  1  0  0  0  0
 14 16  1  0  0  0  0
 14 17  1  0  0  0  0
 17 18  1  0  0  0  0
 17 19  1  0  0  0  0
 17 20  1  0  0  0  0
M  END
> <VConfSearch Rank>
404

> <Conf_Id>
54

> <Delta U+W>
2.752

> <U+W>
-33.525

> <U>
24.337

> <W>
-57.862

> <W(PB)>
-59.764

> <W(SA)>
1.901

> <Valence>
3.593

> <Coulomb>
20.067

> <VdW>
0.677

> <VdW6>
-5.466

> <VdW12>
6.144

> <Bond>
0.191

> <Angle>
1.557

> <Pdih>
1.845

> <Idih>
0.000

> <Tether>
0.000

$$$$
VeraChem MOL file


 20 19  0  0  0  0  0  0  0  0999 V2000     
   18.4477   19.7245   21.2960 N   0  3  0  0  0  0  0  0  0  0  0  0
   17.8256   20.5090   21.0835 H   0  0  0  0  0  0  0  0  0  0  0  0
   18.0590   18.8958   20.8378 H   0  0  0  0  0  0  0  0  0  0  0  0
   19.3501   19.9231   20.8581 H   0  0  0  0  0  0  0  0  0  0  0  0
   18.5896   19.5206   22.7800 C   0  0  2  0  0  0  0  0  0  0  0  0
   17.5795   19.3332   23.1576 H   0  0  0  0  0  0  0  0  0  0  0  0
   19.1118   20.7956   23.4659 C   0  0  0  0  0  0  0  0  0  0  0  0
   19.2155   20.6423   24.5472 H   0  0  0  0  0  0  0  0  0  0  0  0
   18.4123   21.6266   23.3142 H   0  0  0  0  0  0  0  0  0  0  0  0
   20.0861   21.1015   23.0669 H   0  0  0  0  0  0  0  0  0  0  0  0
   19.4461   18.2797   23.1288 C   0  0  0  0  0  0  0  0  0  0  0  0
   19.4341   18.1373   24.2175 H   0  0  0  0  0  0  0  0  0  0  0  0
   18.9598   17.3918   22.7038 H   0  0  0  0  0  0  0  0  0  0  0  0
   20.9153   18.3392   22.6367 C   0  0  0  0  0  0  0  0  0  0  0  0
   21.4346   19.1929   23.0923 H   0  0  0  0  0  0  0  0  0  0  0  0
   20.9454   18.4909   21.5494 H   0  0  0  0  0  0  0  0  0  0  0  0
   21.6821   17.0453   22.9851 C   0  0  0  0  0  0  0  0  0  0  0  0
   22.7202   17.1030   22.6328 H   0  0  0  0  0  0  0  0  0  0  0  0
   21.2155   16.1702   22.5144 H   0  0  0  0  0  0  0  0  0  0  0  0
   21.7039   16.8789   24.0700 H   0  0  0  0  0  0  0  0  0  0  0  0
  1  2  1  0  0  0  0
  1  3  1  0  0  0  0
  1  4  1  0  0  0  0
  1  5  1  0  0  0  0
  5  6  1  0  0  0  0
  5  7  1  0  0  0  0
  7  8  1  0  0  0  0
  7  9  1  0  0  0  0
  7 10  1  0  0  0  0
  5 11  1  0  0  0  0
 11 12  1  0  0  0  0
 11 13  1  0  0  0  0
 11 14  1  0  0  0  0
 14 15  1  0  0  0  0
 14 16  1  0  0  0  0
 14 17  1  0  0  0  0
 17 18  1  0  0  0  0
 17 19  1  0  0  0  0
 17 20  1  0  0  0  0
M  END
> <VConfSearch Rank>
405

> <Conf_Id>
63

> <Delta U+W>
0.420

> <U+W>
-35.856

> <U>
22.625

> <W>
-58.481

> <W(PB)>
-60.400

> <W(SA)>
1.919

> <Valence>
2.404

> <Coulomb>
19.464

> <VdW>
0.757

> <VdW6>
-5.074

> <VdW12>
5.830

> <Bond>
0.172

> <Angle>
1.207

> <Pdih>
1.025

> <Idih>
0.000

> <Tether>
0.000

$$$$
VeraChem MOL file


 20 19  0  0  0  0  0  0  0  0999 V2000     
   21.3576   19.4211   23.1426 N   0  3  0  0  0  0  0  0  0  0  0  0
   21.3639   19.8367   22.2077 H   0  0  0  0  0  0  0  0  0  0  0  0
   21.9596   18.5945   23.1163 H   0  0  0  0  0  0  0  0  0  0  0  0
   21.7909   20.0950   23.7796 H   0  0  0  0  0  0  0  0  0  0  0  0
   19.9598   19.0715   23.5762 C   0  0  2  0  0  0  0  0  0  0  0  0
   19.3887   20.0047   23.5798 H   0  0  0  0  0  0  0  0  0  0  0  0
   19.9601   18.5055   25.0056 C   0  0  0  0  0  0  0  0  0  0  0  0
   20.4123   19.2188   25.7056 H   0  0  0  0  0  0  0  0  0  0  0  0
   20.5254   17.5668   25.0615 H   0  0  0  0  0  0  0  0  0  0  0  0
   18.9363   18.3085   25.3470 H   0  0  0  0  0  0  0  0  0  0  0  0
   19.2697   18.0848   22.6070 C   0  0  0  0  0  0  0  0  0  0  0  0
   19.8198   17.1345   22.6018 H   0  0  0  0  0  0  0  0  0  0  0  0
   18.2651   17.8553   22.9863 H   0  0  0  0  0  0  0  0  0  0  0  0
   19.1446   18.6059   21.1528 C   0  0  0  0  0  0  0  0  0  0  0  0
   18.6483   17.8369   20.5442 H   0  0  0  0  0  0  0  0  0  0  0  0
   20.1409   18.7432   20.7111 H   0  0  0  0  0  0  0  0  0  0  0  0
   18.3416   19.9226   21.0479 C   0  0  0  0  0  0  0  0  0  0  0  0
   17.3403   19.8097   21.4835 H   0  0  0  0  0  0  0  0  0  0  0  0
   18.2180   20.2149   19.9970 H   0  0  0  0  0  0  0  0  0  0  0  0
   18.8485   20.7482   21.5631 H   0  0  0  0  0  0  0  0  0  0  0  0
  1  2  1  0  0  0  0
  1  3  1  0  0  0  0
  1  4  1  0  0  0  0
  1  5  1  0  0  0  0
  5  6  1  0  0  0  0
  5  7  1  0  0  0  0
  7  8  1  0  0  0  0
  7  9  1  0  0  0  0
  7 10  1  0  0  0  0
  5 11  1  0  0  0  0
 11 12  1  0  0  0  0
 11 13  1  0  0  0  0
 11 14  1  0  0  0  0
 14 15  1  0  0  0  0
 14 16  1  0  0  0  0
 14 17  1  0  0  0  0
 17 18  1  0  0  0  0
 17 19  1  0  0  0  0
 17 20  1  0  0  0  0
M  END
> <VConfSearch Rank>
406

> <Conf_Id>
50

> <Delta U+W>
0.466

> <U+W>
-35.811

> <U>
22.369

> <W>
-58.180

> <W(PB)>
-60.103

> <W(SA)>
1.923

> <Valence>
2.168

> <Coulomb>
19.636

> <VdW>
0.566

> <VdW6>
-5.263

> <VdW12>
5.829

> <Bond>
0.162

> <Angle>
1.066

> <Pdih>
0.939

> <Idih>
0.000

> <Tether>
0.000

$$$$
VeraChem MOL file


 20 19  0  0  0  0  0  0  0  0999 V2000     
   20.0871   16.7535   21.9873 N   0  3  0  0  0  0  0  0  0  0  0  0
   21.0760   16.7510   21.7224 H   0  0  0  0  0  0  0  0  0  0  0  0
   19.5392   16.6454   21.1300 H   0  0  0  0  0  0  0  0  0  0  0  0
   19.9253   15.9198   22.5588 H   0  0  0  0  0  0  0  0  0  0  0  0
   19.7139   18.0095   22.7274 C   0  0  2  0  0  0  0  0  0  0  0  0
   20.3490   18.0383   23.6183 H   0  0  0  0  0  0  0  0  0  0  0  0
   18.2412   17.9406   23.1728 C   0  0  0  0  0  0  0  0  0  0  0  0
   17.5701   17.8625   22.3084 H   0  0  0  0  0  0  0  0  0  0  0  0
   17.9512   18.8289   23.7444 H   0  0  0  0  0  0  0  0  0  0  0  0
   18.0719   17.0662   23.8130 H   0  0  0  0  0  0  0  0  0  0  0  0
   20.0003   19.2805   21.8903 C   0  0  0  0  0  0  0  0  0  0  0  0
   20.6865   19.0249   21.0721 H   0  0  0  0  0  0  0  0  0  0  0  0
   19.0813   19.6354   21.4050 H   0  0  0  0  0  0  0  0  0  0  0  0
   20.6542   20.4299   22.6984 C   0  0  0  0  0  0  0  0  0  0  0  0
   20.8900   21.2531   22.0095 H   0  0  0  0  0  0  0  0  0  0  0  0
   21.6160   20.0901   23.1080 H   0  0  0  0  0  0  0  0  0  0  0  0
   19.7744   20.9775   23.8440 C   0  0  0  0  0  0  0  0  0  0  0  0
   18.7884   21.2865   23.4735 H   0  0  0  0  0  0  0  0  0  0  0  0
   20.2478   21.8537   24.3057 H   0  0  0  0  0  0  0  0  0  0  0  0
   19.6318   20.2287   24.6331 H   0  0  0  0  0  0  0  0  0  0  0  0
  1  2  1  0  0  0  0
  1  3  1  0  0  0  0
  1  4  1  0  0  0  0
  1  5  1  0  0  0  0
  5  6  1  0  0  0  0
  5  7  1  0  0  0  0
  7  8  1  0  0  0  0
  7  9  1  0  0  0  0
  7 10  1  0  0  0  0
  5 11  1  0  0  0  0
 11 12  1  0  0  0  0
 11 13  1  0  0  0  0
 11 14  1  0  0  0  0
 14 15  1  0  0  0  0
 14 16  1  0  0  0  0
 14 17  1  0  0  0  0
 17 18  1  0  0  0  0
 17 19  1  0  0  0  0
 17 20  1  0  0  0  0
M  END
> <VConfSearch Rank>
407

> <Conf_Id>
3

> <Delta U+W>
3.093

> <U+W>
-33.184

> <U>
25.256

> <W>
-58.439

> <W(PB)>
-60.337

> <W(SA)>
1.898

> <Valence>
4.963

> <Coulomb>
19.511

> <VdW>
0.782

> <VdW6>
-5.429

> <VdW12>
6.211

> <Bond>
0.174

> <Angle>
1.377

> <Pdih>
3.412

> <Idih>
0.000

> <Tether>
0.000

$$$$
VeraChem MOL file


 20 19  0  0  0  0  0  0  0  0999 V2000     
   20.8901   17.0492   23.1633 N   0  3  0  0  0  0  0  0  0  0  0  0
   20.8340   16.2145   22.5736 H   0  0  0  0  0  0  0  0  0  0  0  0
   20.5971   16.7744   24.1048 H   0  0  0  0  0  0  0  0  0  0  0  0
   21.8757   17.3186   23.2157 H   0  0  0  0  0  0  0  0  0  0  0  0
   20.0402   18.1652   22.6207 C   0  0  2  0  0  0  0  0  0  0  0  0
   19.0141   17.7860   22.5982 H   0  0  0  0  0  0  0  0  0  0  0  0
   20.4631   18.5088   21.1808 C   0  0  0  0  0  0  0  0  0  0  0  0
   19.7675   19.2205   20.7211 H   0  0  0  0  0  0  0  0  0  0  0  0
   20.4677   17.6088   20.5539 H   0  0  0  0  0  0  0  0  0  0  0  0
   21.4689   18.9461   21.1560 H   0  0  0  0  0  0  0  0  0  0  0  0
   20.0809   19.4024   23.5492 C   0  0  0  0  0  0  0  0  0  0  0  0
   19.8494   19.0809   24.5732 H   0  0  0  0  0  0  0  0  0  0  0  0
   21.1037   19.8007   23.5792 H   0  0  0  0  0  0  0  0  0  0  0  0
   19.1045   20.5432   23.1639 C   0  0  0  0  0  0  0  0  0  0  0  0
   19.3905   20.9804   22.1978 H   0  0  0  0  0  0  0  0  0  0  0  0
   19.2019   21.3533   23.9002 H   0  0  0  0  0  0  0  0  0  0  0  0
   17.6286   20.0866   23.1144 C   0  0  0  0  0  0  0  0  0  0  0  0
   17.3202   19.6428   24.0700 H   0  0  0  0  0  0  0  0  0  0  0  0
   17.4619   19.3460   22.3221 H   0  0  0  0  0  0  0  0  0  0  0  0
   16.9685   20.9402   22.9131 H   0  0  0  0  0  0  0  0  0  0  0  0
  1  2  1  0  0  0  0
  1  3  1  0  0  0  0
  1  4  1  0  0  0  0
  1  5  1  0  0  0  0
  5  6  1  0  0  0  0
  5  7  1  0  0  0  0
  7  8  1  0  0  0  0
  7  9  1  0  0  0  0
  7 10  1  0  0  0  0
  5 11  1  0  0  0  0
 11 12  1  0  0  0  0
 11 13  1  0  0  0  0
 11 14  1  0  0  0  0
 14 15  1  0  0  0  0
 14 16  1  0  0  0  0
 14 17  1  0  0  0  0
 17 18  1  0  0  0  0
 17 19  1  0  0  0  0
 17 20  1  0  0  0  0
M  END
> <VConfSearch Rank>
408

> <Conf_Id>
64

> <Delta U+W>
0.544

> <U+W>
-35.732

> <U>
22.800

> <W>
-58.532

> <W(PB)>
-60.437

> <W(SA)>
1.905

> <Valence>
2.662

> <Coulomb>
19.485

> <VdW>
0.653

> <VdW6>
-5.460

> <VdW12>
6.113

> <Bond>
0.174

> <Angle>
1.378

> <Pdih>
1.109

> <Idih>
0.000

> <Tether>
0.000

$$$$
VeraChem MOL file


 20 19  0  0  0  0  0  0  0  0999 V2000     
   20.0376   21.0172   22.7142 N   0  3  0  0  0  0  0  0  0  0  0  0
   20.7487   20.7248   22.0404 H   0  0  0  0  0  0  0  0  0  0  0  0
   20.4815   21.6743   23.3614 H   0  0  0  0  0  0  0  0  0  0  0  0
   19.3211   21.5358   22.1992 H   0  0  0  0  0  0  0  0  0  0  0  0
   19.4513   19.8382   23.4431 C   0  0  2  0  0  0  0  0  0  0  0  0
   18.7173   20.2529   24.1411 H   0  0  0  0  0  0  0  0  0  0  0  0
   20.5247   19.1210   24.2780 C   0  0  0  0  0  0  0  0  0  0  0  0
   21.3658   18.7943   23.6555 H   0  0  0  0  0  0  0  0  0  0  0  0
   20.1040   18.2442   24.7856 H   0  0  0  0  0  0  0  0  0  0  0  0
   20.9221   19.7925   25.0488 H   0  0  0  0  0  0  0  0  0  0  0  0
   18.6836   18.8820   22.4959 C   0  0  0  0  0  0  0  0  0  0  0  0
   18.1331   18.1428   23.0926 H   0  0  0  0  0  0  0  0  0  0  0  0
   17.9114   19.4742   21.9875 H   0  0  0  0  0  0  0  0  0  0  0  0
   19.5330   18.1586   21.4140 C   0  0  0  0  0  0  0  0  0  0  0  0
   20.3860   18.7778   21.1068 H   0  0  0  0  0  0  0  0  0  0  0  0
   18.9142   18.0345   20.5142 H   0  0  0  0  0  0  0  0  0  0  0  0
   20.0217   16.7564   21.8473 C   0  0  0  0  0  0  0  0  0  0  0  0
   20.6853   16.8003   22.7178 H   0  0  0  0  0  0  0  0  0  0  0  0
   20.5778   16.2756   21.0321 H   0  0  0  0  0  0  0  0  0  0  0  0
   19.1745   16.1056   22.0998 H   0  0  0  0  0  0  0  0  0  0  0  0
  1  2  1  0  0  0  0
  1  3  1  0  0  0  0
  1  4  1  0  0  0  0
  1  5  1  0  0  0  0
  5  6  1  0  0  0  0
  5  7  1  0  0  0  0
  7  8  1  0  0  0  0
  7  9  1  0  0  0  0
  7 10  1  0  0  0  0
  5 11  1  0  0  0  0
 11 12  1  0  0  0  0
 11 13  1  0  0  0  0
 11 14  1  0  0  0  0
 14 15  1  0  0  0  0
 14 16  1  0  0  0  0
 14 17  1  0  0  0  0
 17 18  1  0  0  0  0
 17 19  1  0  0  0  0
 17 20  1  0  0  0  0
M  END
> <VConfSearch Rank>
409

> <Conf_Id>
35

> <Delta U+W>
3.004

> <U+W>
-33.272

> <U>
25.367

> <W>
-58.639

> <W(PB)>
-60.512

> <W(SA)>
1.873

> <Valence>
4.943

> <Coulomb>
19.661

> <VdW>
0.764

> <VdW6>
-5.871

> <VdW12>
6.636

> <Bond>
0.230

> <Angle>
1.857

> <Pdih>
2.855

> <Idih>
0.000

> <Tether>
0.000

$$$$
VeraChem MOL file


 20 19  0  0  0  0  0  0  0  0999 V2000     
   20.3150   20.4856   21.9116 N   0  3  0  0  0  0  0  0  0  0  0  0
   20.8373   21.3331   22.1496 H   0  0  0  0  0  0  0  0  0  0  0  0
   19.7735   20.6886   21.0672 H   0  0  0  0  0  0  0  0  0  0  0  0
   20.9936   19.7601   21.6727 H   0  0  0  0  0  0  0  0  0  0  0  0
   19.4266   20.0486   23.0439 C   0  0  2  0  0  0  0  0  0  0  0  0
   18.7289   20.8772   23.2005 H   0  0  0  0  0  0  0  0  0  0  0  0
   20.2251   19.8696   24.3473 C   0  0  0  0  0  0  0  0  0  0  0  0
   21.0131   19.1148   24.2390 H   0  0  0  0  0  0  0  0  0  0  0  0
   19.5654   19.5635   25.1686 H   0  0  0  0  0  0  0  0  0  0  0  0
   20.7023   20.8133   24.6382 H   0  0  0  0  0  0  0  0  0  0  0  0
   18.5717   18.8022   22.6987 C   0  0  0  0  0  0  0  0  0  0  0  0
   17.7537   18.7477   23.4291 H   0  0  0  0  0  0  0  0  0  0  0  0
   18.0845   18.9631   21.7282 H   0  0  0  0  0  0  0  0  0  0  0  0
   19.2916   17.4244   22.6886 C   0  0  0  0  0  0  0  0  0  0  0  0
   18.5410   16.6512   22.4730 H   0  0  0  0  0  0  0  0  0  0  0  0
   19.6775   17.1888   23.6897 H   0  0  0  0  0  0  0  0  0  0  0  0
   20.4293   17.2983   21.6500 C   0  0  0  0  0  0  0  0  0  0  0  0
   20.0943   17.6107   20.6523 H   0  0  0  0  0  0  0  0  0  0  0  0
   20.7629   16.2550   21.5770 H   0  0  0  0  0  0  0  0  0  0  0  0
   21.3032   17.8957   21.9340 H   0  0  0  0  0  0  0  0  0  0  0  0
  1  2  1  0  0  0  0
  1  3  1  0  0  0  0
  1  4  1  0  0  0  0
  1  5  1  0  0  0  0
  5  6  1  0  0  0  0
  5  7  1  0  0  0  0
  7  8  1  0  0  0  0
  7  9  1  0  0  0  0
  7 10  1  0  0  0  0
  5 11  1  0  0  0  0
 11 12  1  0  0  0  0
 11 13  1  0  0  0  0
 11 14  1  0  0  0  0
 14 15  1  0  0  0  0
 14 16  1  0  0  0  0
 14 17  1  0  0  0  0
 17 18  1  0  0  0  0
 17 19  1  0  0  0  0
 17 20  1  0  0  0  0
M  END
> <VConfSearch Rank>
410

> <Conf_Id>
55

> <Delta U+W>
2.767

> <U+W>
-33.509

> <U>
24.552

> <W>
-58.061

> <W(PB)>
-59.930

> <W(SA)>
1.869

> <Valence>
3.726

> <Coulomb>
20.219

> <VdW>
0.606

> <VdW6>
-6.395

> <VdW12>
7.001

> <Bond>
0.241

> <Angle>
2.098

> <Pdih>
1.387

> <Idih>
0.000

> <Tether>
0.000

$$$$
VeraChem MOL file


 20 19  0  0  0  0  0  0  0  0999 V2000     
   20.5518   17.3144   23.4561 N   0  3  0  0  0  0  0  0  0  0  0  0
   21.5283   17.5424   23.2533 H   0  0  0  0  0  0  0  0  0  0  0  0
   20.4828   16.2950   23.5170 H   0  0  0  0  0  0  0  0  0  0  0  0
   20.3344   17.6894   24.3828 H   0  0  0  0  0  0  0  0  0  0  0  0
   19.6268   17.8673   22.4055 C   0  0  2  0  0  0  0  0  0  0  0  0
   18.6113   17.5839   22.6994 H   0  0  0  0  0  0  0  0  0  0  0  0
   19.9254   17.2351   21.0362 C   0  0  0  0  0  0  0  0  0  0  0  0
   19.8452   16.1423   21.0870 H   0  0  0  0  0  0  0  0  0  0  0  0
   20.9367   17.4880   20.6937 H   0  0  0  0  0  0  0  0  0  0  0  0
   19.2114   17.5857   20.2806 H   0  0  0  0  0  0  0  0  0  0  0  0
   19.6895   19.4079   22.3108 C   0  0  0  0  0  0  0  0  0  0  0  0
   20.7067   19.7206   22.0397 H   0  0  0  0  0  0  0  0  0  0  0  0
   19.0327   19.7396   21.4956 H   0  0  0  0  0  0  0  0  0  0  0  0
   19.2565   20.1133   23.6186 C   0  0  0  0  0  0  0  0  0  0  0  0
   19.9339   19.8412   24.4392 H   0  0  0  0  0  0  0  0  0  0  0  0
   18.2524   19.7723   23.9083 H   0  0  0  0  0  0  0  0  0  0  0  0
   19.2491   21.6491   23.4623 C   0  0  0  0  0  0  0  0  0  0  0  0
   20.2475   22.0244   23.2021 H   0  0  0  0  0  0  0  0  0  0  0  0
   18.9413   22.1327   24.3985 H   0  0  0  0  0  0  0  0  0  0  0  0
   18.5503   21.9635   22.6761 H   0  0  0  0  0  0  0  0  0  0  0  0
  1  2  1  0  0  0  0
  1  3  1  0  0  0  0
  1  4  1  0  0  0  0
  1  5  1  0  0  0  0
  5  6  1  0  0  0  0
  5  7  1  0  0  0  0
  7  8  1  0  0  0  0
  7  9  1  0  0  0  0
  7 10  1  0  0  0  0
  5 11  1  0  0  0  0
 11 12  1  0  0  0  0
 11 13  1  0  0  0  0
 11 14  1  0  0  0  0
 14 15  1  0  0  0  0
 14 16  1  0  0  0  0
 14 17  1  0  0  0  0
 17 18  1  0  0  0  0
 17 19  1  0  0  0  0
 17 20  1  0  0  0  0
M  END
> <VConfSearch Rank>
411

> <Conf_Id>
74

> <Delta U+W>
0.000

> <U+W>
-36.276

> <U>
22.080

> <W>
-58.356

> <W(PB)>
-60.289

> <W(SA)>
1.932

> <Valence>
1.885

> <Coulomb>
19.559

> <VdW>
0.637

> <VdW6>
-4.482

> <VdW12>
5.119

> <Bond>
0.136

> <Angle>
0.867

> <Pdih>
0.882

> <Idih>
0.000

> <Tether>
0.000

$$$$
VeraChem MOL file


 20 19  0  0  0  0  0  0  0  0999 V2000     
   20.7845   16.8777   23.3539 N   0  3  0  0  0  0  0  0  0  0  0  0
   21.6853   17.2039   23.7147 H   0  0  0  0  0  0  0  0  0  0  0  0
   20.9476   16.5043   22.4155 H   0  0  0  0  0  0  0  0  0  0  0  0
   20.4875   16.0965   23.9447 H   0  0  0  0  0  0  0  0  0  0  0  0
   19.7598   17.9787   23.3404 C   0  0  2  0  0  0  0  0  0  0  0  0
   19.6505   18.3107   24.3775 H   0  0  0  0  0  0  0  0  0  0  0  0
   18.4015   17.4379   22.8574 C   0  0  0  0  0  0  0  0  0  0  0  0
   18.1081   16.5554   23.4391 H   0  0  0  0  0  0  0  0  0  0  0  0
   18.4421   17.1495   21.7997 H   0  0  0  0  0  0  0  0  0  0  0  0
   17.6081   18.1840   22.9802 H   0  0  0  0  0  0  0  0  0  0  0  0
   20.2420   19.1813   22.4961 C   0  0  0  0  0  0  0  0  0  0  0  0
   21.2571   19.4477   22.8191 H   0  0  0  0  0  0  0  0  0  0  0  0
   20.3193   18.8854   21.4415 H   0  0  0  0  0  0  0  0  0  0  0  0
   19.3418   20.4347   22.6217 C   0  0  0  0  0  0  0  0  0  0  0  0
   19.2127   20.6937   23.6820 H   0  0  0  0  0  0  0  0  0  0  0  0
   18.3409   20.2270   22.2203 H   0  0  0  0  0  0  0  0  0  0  0  0
   19.9394   21.6431   21.8691 C   0  0  0  0  0  0  0  0  0  0  0  0
   20.9253   21.9113   22.2705 H   0  0  0  0  0  0  0  0  0  0  0  0
   19.2873   22.5209   21.9653 H   0  0  0  0  0  0  0  0  0  0  0  0
   20.0539   21.4246   20.7993 H   0  0  0  0  0  0  0  0  0  0  0  0
  1  2  1  0  0  0  0
  1  3  1  0  0  0  0
  1  4  1  0  0  0  0
  1  5  1  0  0  0  0
  5  6  1  0  0  0  0
  5  7  1  0  0  0  0
  7  8  1  0  0  0  0
  7  9  1  0  0  0  0
  7 10  1  0  0  0  0
  5 11  1  0  0  0  0
 11 12  1  0  0  0  0
 11 13  1  0  0  0  0
 11 14  1  0  0  0  0
 14 15  1  0  0  0  0
 14 16  1  0  0  0  0
 14 17  1  0  0  0  0
 17 18  1  0  0  0  0
 17 19  1  0  0  0  0
 17 20  1  0  0  0  0
M  END
> <VConfSearch Rank>
412

> <Conf_Id>
80

> <Delta U+W>
0.460

> <U+W>
-35.817

> <U>
22.495

> <W>
-58.311

> <W(PB)>
-60.259

> <W(SA)>
1.948

> <Valence>
2.419

> <Coulomb>
19.304

> <VdW>
0.772

> <VdW6>
-4.635

> <VdW12>
5.407

> <Bond>
0.149

> <Angle>
1.142

> <Pdih>
1.129

> <Idih>
0.000

> <Tether>
0.000

$$$$
VeraChem MOL file


 20 19  0  0  0  0  0  0  0  0999 V2000     
   20.0083   21.0721   21.7688 N   0  3  0  0  0  0  0  0  0  0  0  0
   20.7539   21.5962   22.2348 H   0  0  0  0  0  0  0  0  0  0  0  0
   19.1166   21.4274   22.1227 H   0  0  0  0  0  0  0  0  0  0  0  0
   20.0539   21.3028   20.7727 H   0  0  0  0  0  0  0  0  0  0  0  0
   20.1427   19.5915   21.9978 C   0  0  2  0  0  0  0  0  0  0  0  0
   21.1150   19.3048   21.5851 H   0  0  0  0  0  0  0  0  0  0  0  0
   19.0520   18.8319   21.2234 C   0  0  0  0  0  0  0  0  0  0  0  0
   19.0230   19.1566   20.1761 H   0  0  0  0  0  0  0  0  0  0  0  0
   18.0607   19.0028   21.6610 H   0  0  0  0  0  0  0  0  0  0  0  0
   19.2513   17.7543   21.2200 H   0  0  0  0  0  0  0  0  0  0  0  0
   20.1471   19.2613   23.5105 C   0  0  0  0  0  0  0  0  0  0  0  0
   20.9283   19.8743   23.9791 H   0  0  0  0  0  0  0  0  0  0  0  0
   19.2023   19.5792   23.9710 H   0  0  0  0  0  0  0  0  0  0  0  0
   20.4404   17.7775   23.8568 C   0  0  0  0  0  0  0  0  0  0  0  0
   21.0496   17.7450   24.7711 H   0  0  0  0  0  0  0  0  0  0  0  0
   21.0537   17.3155   23.0704 H   0  0  0  0  0  0  0  0  0  0  0  0
   19.1638   16.9403   24.1064 C   0  0  0  0  0  0  0  0  0  0  0  0
   18.5823   17.3517   24.9417 H   0  0  0  0  0  0  0  0  0  0  0  0
   19.4270   15.9059   24.3629 H   0  0  0  0  0  0  0  0  0  0  0  0
   18.5120   16.9080   23.2262 H   0  0  0  0  0  0  0  0  0  0  0  0
  1  2  1  0  0  0  0
  1  3  1  0  0  0  0
  1  4  1  0  0  0  0
  1  5  1  0  0  0  0
  5  6  1  0  0  0  0
  5  7  1  0  0  0  0
  7  8  1  0  0  0  0
  7  9  1  0  0  0  0
  7 10  1  0  0  0  0
  5 11  1  0  0  0  0
 11 12  1  0  0  0  0
 11 13  1  0  0  0  0
 11 14  1  0  0  0  0
 14 15  1  0  0  0  0
 14 16  1  0  0  0  0
 14 17  1  0  0  0  0
 17 18  1  0  0  0  0
 17 19  1  0  0  0  0
 17 20  1  0  0  0  0
M  END
> <VConfSearch Rank>
413

> <Conf_Id>
52

> <Delta U+W>
2.995

> <U+W>
-33.282

> <U>
25.224

> <W>
-58.506

> <W(PB)>
-60.411

> <W(SA)>
1.905

> <Valence>
4.945

> <Coulomb>
19.467

> <VdW>
0.813

> <VdW6>
-5.458

> <VdW12>
6.270

> <Bond>
0.200

> <Angle>
1.675

> <Pdih>
3.070

> <Idih>
0.000

> <Tether>
0.000

$$$$
VeraChem MOL file


 20 19  0  0  0  0  0  0  0  0999 V2000     
   20.2612   20.0529   21.6047 N   0  3  0  0  0  0  0  0  0  0  0  0
   21.2820   20.0267   21.6664 H   0  0  0  0  0  0  0  0  0  0  0  0
   20.0049   20.9308   21.1450 H   0  0  0  0  0  0  0  0  0  0  0  0
   19.9721   19.2874   20.9920 H   0  0  0  0  0  0  0  0  0  0  0  0
   19.6263   19.9346   22.9634 C   0  0  2  0  0  0  0  0  0  0  0  0
   18.5444   20.0191   22.8219 H   0  0  0  0  0  0  0  0  0  0  0  0
   20.0867   21.0985   23.8573 C   0  0  0  0  0  0  0  0  0  0  0  0
   21.1668   21.0522   24.0446 H   0  0  0  0  0  0  0  0  0  0  0  0
   19.5706   21.0762   24.8252 H   0  0  0  0  0  0  0  0  0  0  0  0
   19.8625   22.0632   23.3856 H   0  0  0  0  0  0  0  0  0  0  0  0
   19.9226   18.5789   23.6478 C   0  0  0  0  0  0  0  0  0  0  0  0
   20.9936   18.3486   23.5746 H   0  0  0  0  0  0  0  0  0  0  0  0
   19.7094   18.6746   24.7209 H   0  0  0  0  0  0  0  0  0  0  0  0
   19.0823   17.3864   23.1198 C   0  0  0  0  0  0  0  0  0  0  0  0
   18.0121   17.6056   23.2403 H   0  0  0  0  0  0  0  0  0  0  0  0
   19.2861   16.5152   23.7581 H   0  0  0  0  0  0  0  0  0  0  0  0
   19.3660   16.9914   21.6526 C   0  0  0  0  0  0  0  0  0  0  0  0
   18.8906   16.0294   21.4207 H   0  0  0  0  0  0  0  0  0  0  0  0
   20.4429   16.8822   21.4691 H   0  0  0  0  0  0  0  0  0  0  0  0
   18.9573   17.7265   20.9497 H   0  0  0  0  0  0  0  0  0  0  0  0
  1  2  1  0  0  0  0
  1  3  1  0  0  0  0
  1  4  1  0  0  0  0
  1  5  1  0  0  0  0
  5  6  1  0  0  0  0
  5  7  1  0  0  0  0
  7  8  1  0  0  0  0
  7  9  1  0  0  0  0
  7 10  1  0  0  0  0
  5 11  1  0  0  0  0
 11 12  1  0  0  0  0
 11 13  1  0  0  0  0
 11 14  1  0  0  0  0
 14 15  1  0  0  0  0
 14 16  1  0  0  0  0
 14 17  1  0  0  0  0
 17 18  1  0  0  0  0
 17 19  1  0  0  0  0
 17 20  1  0  0  0  0
M  END
> <VConfSearch Rank>
414

> <Conf_Id>
54

> <Delta U+W>
2.752

> <U+W>
-33.525

> <U>
24.337

> <W>
-57.862

> <W(PB)>
-59.764

> <W(SA)>
1.901

> <Valence>
3.593

> <Coulomb>
20.067

> <VdW>
0.677

> <VdW6>
-5.466

> <VdW12>
6.144

> <Bond>
0.191

> <Angle>
1.557

> <Pdih>
1.845

> <Idih>
0.000

> <Tether>
0.000

$$$$
VeraChem MOL file


 20 19  0  0  0  0  0  0  0  0999 V2000     
   18.5169   17.3162   22.9084 N   0  3  0  0  0  0  0  0  0  0  0  0
   18.2526   16.4164   22.4985 H   0  0  0  0  0  0  0  0  0  0  0  0
   17.6886   17.6904   23.3793 H   0  0  0  0  0  0  0  0  0  0  0  0
   19.2206   17.1296   23.6264 H   0  0  0  0  0  0  0  0  0  0  0  0
   19.0357   18.2663   21.8634 C   0  0  2  0  0  0  0  0  0  0  0  0
   18.2259   18.3892   21.1374 H   0  0  0  0  0  0  0  0  0  0  0  0
   20.2397   17.6640   21.1175 C   0  0  0  0  0  0  0  0  0  0  0  0
   20.6161   18.3603   20.3578 H   0  0  0  0  0  0  0  0  0  0  0  0
   19.9495   16.7388   20.6048 H   0  0  0  0  0  0  0  0  0  0  0  0
   21.0623   17.4235   21.8012 H   0  0  0  0  0  0  0  0  0  0  0  0
   19.3501   19.6676   22.4400 C   0  0  0  0  0  0  0  0  0  0  0  0
   19.6356   20.3329   21.6144 H   0  0  0  0  0  0  0  0  0  0  0  0
   18.4252   20.0864   22.8578 H   0  0  0  0  0  0  0  0  0  0  0  0
   20.4567   19.6956   23.5258 C   0  0  0  0  0  0  0  0  0  0  0  0
   21.4051   19.3280   23.1115 H   0  0  0  0  0  0  0  0  0  0  0  0
   20.1908   19.0272   24.3557 H   0  0  0  0  0  0  0  0  0  0  0  0
   20.6727   21.1210   24.0777 C   0  0  0  0  0  0  0  0  0  0  0  0
   21.4597   21.1254   24.8431 H   0  0  0  0  0  0  0  0  0  0  0  0
   19.7549   21.5105   24.5372 H   0  0  0  0  0  0  0  0  0  0  0  0
   20.9754   21.8120   23.2801 H   0  0  0  0  0  0  0  0  0  0  0  0
  1  2  1  0  0  0  0
  1  3  1  0  0  0  0
  1  4  1  0  0  0  0
  1  5  1  0  0  0  0
  5  6  1  0  0  0  0
  5  7  1  0  0  0  0
  7  8  1  0  0  0  0
  7  9  1  0  0  0  0
  7 10  1  0  0  0  0
  5 11  1  0  0  0  0
 11 12  1  0  0  0  0
 11 13  1  0  0  0  0
 11 14  1  0  0  0  0
 14 15  1  0  0  0  0
 14 16  1  0  0  0  0
 14 17  1  0  0  0  0
 17 18  1  0  0  0  0
 17 19  1  0  0  0  0
 17 20  1  0  0  0  0
M  END
> <VConfSearch Rank>
415

> <Conf_Id>
63

> <Delta U+W>
0.420

> <U+W>
-35.856

> <U>
22.625

> <W>
-58.481

> <W(PB)>
-60.400

> <W(SA)>
1.919

> <Valence>
2.404

> <Coulomb>
19.464

> <VdW>
0.757

> <VdW6>
-5.074

> <VdW12>
5.830

> <Bond>
0.172

> <Angle>
1.207

> <Pdih>
1.025

> <Idih>
0.000

> <Tether>
0.000

$$$$
VeraChem MOL file


 20 19  0  0  0  0  0  0  0  0999 V2000     
   21.4375   18.7192   22.7565 N   0  3  0  0  0  0  0  0  0  0  0  0
   21.2108   17.8086   23.1643 H   0  0  0  0  0  0  0  0  0  0  0  0
   21.8829   19.2811   23.4861 H   0  0  0  0  0  0  0  0  0  0  0  0
   22.1345   18.5610   22.0239 H   0  0  0  0  0  0  0  0  0  0  0  0
   20.2086   19.3960   22.2126 C   0  0  2  0  0  0  0  0  0  0  0  0
   19.7999   18.7347   21.4427 H   0  0  0  0  0  0  0  0  0  0  0  0
   20.5741   20.7337   21.5491 C   0  0  0  0  0  0  0  0  0  0  0  0
   21.3138   20.5832   20.7532 H   0  0  0  0  0  0  0  0  0  0  0  0
   20.9951   21.4373   22.2781 H   0  0  0  0  0  0  0  0  0  0  0  0
   19.6894   21.1990   21.0968 H   0  0  0  0  0  0  0  0  0  0  0  0
   19.1244   19.6098   23.2932 C   0  0  0  0  0  0  0  0  0  0  0  0
   19.5106   20.2853   24.0681 H   0  0  0  0  0  0  0  0  0  0  0  0
   18.2651   20.1223   22.8405 H   0  0  0  0  0  0  0  0  0  0  0  0
   18.6276   18.3029   23.9619 C   0  0  0  0  0  0  0  0  0  0  0  0
   17.8672   18.5583   24.7131 H   0  0  0  0  0  0  0  0  0  0  0  0
   19.4472   17.8230   24.5137 H   0  0  0  0  0  0  0  0  0  0  0  0
   18.0195   17.3003   22.9548 C   0  0  0  0  0  0  0  0  0  0  0  0
   17.1967   17.7581   22.3904 H   0  0  0  0  0  0  0  0  0  0  0  0
   17.6178   16.4238   23.4797 H   0  0  0  0  0  0  0  0  0  0  0  0
   18.7687   16.9414   22.2380 H   0  0  0  0  0  0  0  0  0  0  0  0
  1  2  1  0  0  0  0
  1  3  1  0  0  0  0
  1  4  1  0  0  0  0
  1  5  1  0  0  0  0
  5  6  1  0  0  0  0
  5  7  1  0  0  0  0
  7  8  1  0  0  0  0
  7  9  1  0  0  0  0
  7 10  1  0  0  0  0
  5 11  1  0  0  0  0
 11 12  1  0  0  0  0
 11 13  1  0  0  0  0
 11 14  1  0  0  0  0
 14 15  1  0  0  0  0
 14 16  1  0  0  0  0
 14 17  1  0  0  0  0
 17 18  1  0  0  0  0
 17 19  1  0  0  0  0
 17 20  1  0  0  0  0
M  END
> <VConfSearch Rank>
416

> <Conf_Id>
50

> <Delta U+W>
0.466

> <U+W>
-35.811

> <U>
22.369

> <W>
-58.180

> <W(PB)>
-60.103

> <W(SA)>
1.923

> <Valence>
2.168

> <Coulomb>
19.636

> <VdW>
0.566

> <VdW6>
-5.263

> <VdW12>
5.829

> <Bond>
0.162

> <Angle>
1.066

> <Pdih>
0.939

> <Idih>
0.000

> <Tether>
0.000

$$$$
VeraChem MOL file


 20 19  0  0  0  0  0  0  0  0999 V2000     
   21.3150   17.7378   21.5897 N   0  3  0  0  0  0  0  0  0  0  0  0
   21.2807   18.1299   20.6446 H   0  0  0  0  0  0  0  0  0  0  0  0
   20.9990   16.7665   21.5310 H   0  0  0  0  0  0  0  0  0  0  0  0
   22.2981   17.7212   21.8744 H   0  0  0  0  0  0  0  0  0  0  0  0
   20.4764   18.5348   22.5520 C   0  0  2  0  0  0  0  0  0  0  0  0
   20.8850   19.5501   22.5436 H   0  0  0  0  0  0  0  0  0  0  0  0
   20.6147   17.9586   23.9736 C   0  0  0  0  0  0  0  0  0  0  0  0
   20.2591   16.9216   24.0160 H   0  0  0  0  0  0  0  0  0  0  0  0
   20.0404   18.5410   24.7020 H   0  0  0  0  0  0  0  0  0  0  0  0
   21.6635   17.9703   24.2947 H   0  0  0  0  0  0  0  0  0  0  0  0
   18.9955   18.6078   22.1051 C   0  0  0  0  0  0  0  0  0  0  0  0
   18.9260   18.3311   21.0448 H   0  0  0  0  0  0  0  0  0  0  0  0
   18.3948   17.8633   22.6446 H   0  0  0  0  0  0  0  0  0  0  0  0
   18.3628   20.0144   22.2569 C   0  0  0  0  0  0  0  0  0  0  0  0
   17.3442   19.9872   21.8450 H   0  0  0  0  0  0  0  0  0  0  0  0
   18.9205   20.7361   21.6437 H   0  0  0  0  0  0  0  0  0  0  0  0
   18.2959   20.5237   23.7137 C   0  0  0  0  0  0  0  0  0  0  0  0
   17.7808   19.8032   24.3623 H   0  0  0  0  0  0  0  0  0  0  0  0
   17.7450   21.4719   23.7634 H   0  0  0  0  0  0  0  0  0  0  0  0
   19.2982   20.7056   24.1213 H   0  0  0  0  0  0  0  0  0  0  0  0
  1  2  1  0  0  0  0
  1  3  1  0  0  0  0
  1  4  1  0  0  0  0
  1  5  1  0  0  0  0
  5  6  1  0  0  0  0
  5  7  1  0  0  0  0
  7  8  1  0  0  0  0
  7  9  1  0  0  0  0
  7 10  1  0  0  0  0
  5 11  1  0  0  0  0
 11 12  1  0  0  0  0
 11 13  1  0  0  0  0
 11 14  1  0  0  0  0
 14 15  1  0  0  0  0
 14 16  1  0  0  0  0
 14 17  1  0  0  0  0
 17 18  1  0  0  0  0
 17 19  1  0  0  0  0
 17 20  1  0  0  0  0
M  END
> <VConfSearch Rank>
417

> <Conf_Id>
3

> <Delta U+W>
3.093

> <U+W>
-33.184

> <U>
25.256

> <W>
-58.439

> <W(PB)>
-60.337

> <W(SA)>
1.898

> <Valence>
4.963

> <Coulomb>
19.511

> <VdW>
0.782

> <VdW6>
-5.429

> <VdW12>
6.211

> <Bond>
0.174

> <Angle>
1.377

> <Pdih>
3.412

> <Idih>
0.000

> <Tether>
0.000

$$$$
VeraChem MOL file


 20 19  0  0  0  0  0  0  0  0999 V2000     
   17.5686   18.0825   22.9262 N   0  3  0  0  0  0  0  0  0  0  0  0
   17.3230   17.3210   23.5646 H   0  0  0  0  0  0  0  0  0  0  0  0
   17.3718   17.7559   21.9763 H   0  0  0  0  0  0  0  0  0  0  0  0
   16.9322   18.8595   23.1210 H   0  0  0  0  0  0  0  0  0  0  0  0
   19.0068   18.4929   23.0856 C   0  0  2  0  0  0  0  0  0  0  0  0
   19.6055   17.6046   22.8631 H   0  0  0  0  0  0  0  0  0  0  0  0
   19.2852   18.9150   24.5398 C   0  0  0  0  0  0  0  0  0  0  0  0
   20.3554   19.0831   24.7071 H   0  0  0  0  0  0  0  0  0  0  0  0
   18.9670   18.1309   25.2377 H   0  0  0  0  0  0  0  0  0  0  0  0
   18.7481   19.8367   24.7955 H   0  0  0  0  0  0  0  0  0  0  0  0
   19.3881   19.6015   22.0757 C   0  0  0  0  0  0  0  0  0  0  0  0
   19.0934   19.2763   21.0692 H   0  0  0  0  0  0  0  0  0  0  0  0
   18.8002   20.5043   22.2881 H   0  0  0  0  0  0  0  0  0  0  0  0
   20.8929   19.9724   22.0470 C   0  0  0  0  0  0  0  0  0  0  0  0
   21.1921   20.4277   23.0007 H   0  0  0  0  0  0  0  0  0  0  0  0
   21.0499   20.7467   21.2829 H   0  0  0  0  0  0  0  0  0  0  0  0
   21.8082   18.7669   21.7335 C   0  0  0  0  0  0  0  0  0  0  0  0
   21.5260   18.2931   20.7843 H   0  0  0  0  0  0  0  0  0  0  0  0
   21.7600   18.0077   22.5243 H   0  0  0  0  0  0  0  0  0  0  0  0
   22.8539   19.0899   21.6487 H   0  0  0  0  0  0  0  0  0  0  0  0
  1  2  1  0  0  0  0
  1  3  1  0  0  0  0
  1  4  1  0  0  0  0
  1  5  1  0  0  0  0
  5  6  1  0  0  0  0
  5  7  1  0  0  0  0
  7  8  1  0  0  0  0
  7  9  1  0  0  0  0
  7 10  1  0  0  0  0
  5 11  1  0  0  0  0
 11 12  1  0  0  0  0
 11 13  1  0  0  0  0
 11 14  1  0  0  0  0
 14 15  1  0  0  0  0
 14 16  1  0  0  0  0
 14 17  1  0  0  0  0
 17 18  1  0  0  0  0
 17 19  1  0  0  0  0
 17 20  1  0  0  0  0
M  END
> <VConfSearch Rank>
418

> <Conf_Id>
64

> <Delta U+W>
0.544

> <U+W>
-35.732

> <U>
22.800

> <W>
-58.532

> <W(PB)>
-60.437

> <W(SA)>
1.905

> <Valence>
2.662

> <Coulomb>
19.485

> <VdW>
0.653

> <VdW6>
-5.460

> <VdW12>
6.113

> <Bond>
0.174

> <Angle>
1.378

> <Pdih>
1.109

> <Idih>
0.000

> <Tether>
0.000

$$$$
VeraChem MOL file


 20 19  0  0  0  0  0  0  0  0999 V2000     
   20.1943   19.1420   24.7590 N   0  3  0  0  0  0  0  0  0  0  0  0
   20.1755   20.1141   24.4427 H   0  0  0  0  0  0  0  0  0  0  0  0
   21.0334   19.0237   25.3331 H   0  0  0  0  0  0  0  0  0  0  0  0
   19.3858   19.0022   25.3709 H   0  0  0  0  0  0  0  0  0  0  0  0
   20.1823   18.1845   23.5981 C   0  0  2  0  0  0  0  0  0  0  0  0
   20.2156   17.1822   24.0366 H   0  0  0  0  0  0  0  0  0  0  0  0
   21.4451   18.3511   22.7370 C   0  0  0  0  0  0  0  0  0  0  0  0
   21.5491   19.3794   22.3717 H   0  0  0  0  0  0  0  0  0  0  0  0
   21.4222   17.6740   21.8743 H   0  0  0  0  0  0  0  0  0  0  0  0
   22.3416   18.1134   23.3224 H   0  0  0  0  0  0  0  0  0  0  0  0
   18.8730   18.2735   22.7742 C   0  0  0  0  0  0  0  0  0  0  0  0
   18.8383   17.4447   22.0548 H   0  0  0  0  0  0  0  0  0  0  0  0
   18.0385   18.0910   23.4640 H   0  0  0  0  0  0  0  0  0  0  0  0
   18.6130   19.6188   22.0408 C   0  0  0  0  0  0  0  0  0  0  0  0
   19.0509   20.4587   22.5959 H   0  0  0  0  0  0  0  0  0  0  0  0
   17.5293   19.8017   22.0276 H   0  0  0  0  0  0  0  0  0  0  0  0
   19.1113   19.6309   20.5765 C   0  0  0  0  0  0  0  0  0  0  0  0
   20.1965   19.4984   20.5076 H   0  0  0  0  0  0  0  0  0  0  0  0
   18.8640   20.5861   20.0955 H   0  0  0  0  0  0  0  0  0  0  0  0
   18.6349   18.8326   19.9927 H   0  0  0  0  0  0  0  0  0  0  0  0
  1  2  1  0  0  0  0
  1  3  1  0  0  0  0
  1  4  1  0  0  0  0
  1  5  1  0  0  0  0
  5  6  1  0  0  0  0
  5  7  1  0  0  0  0
  7  8  1  0  0  0  0
  7  9  1  0  0  0  0
  7 10  1  0  0  0  0
  5 11  1  0  0  0  0
 11 12  1  0  0  0  0
 11 13  1  0  0  0  0
 11 14  1  0  0  0  0
 14 15  1  0  0  0  0
 14 16  1  0  0  0  0
 14 17  1  0  0  0  0
 17 18  1  0  0  0  0
 17 19  1  0  0  0  0
 17 20  1  0  0  0  0
M  END
> <VConfSearch Rank>
419

> <Conf_Id>
35

> <Delta U+W>
3.004

> <U+W>
-33.272

> <U>
25.367

> <W>
-58.639

> <W(PB)>
-60.512

> <W(SA)>
1.873

> <Valence>
4.943

> <Coulomb>
19.661

> <VdW>
0.764

> <VdW6>
-5.871

> <VdW12>
6.636

> <Bond>
0.230

> <Angle>
1.857

> <Pdih>
2.855

> <Idih>
0.000

> <Tether>
0.000

$$$$
VeraChem MOL file


 20 19  0  0  0  0  0  0  0  0999 V2000     
   19.5065   20.5265   23.5131 N   0  3  0  0  0  0  0  0  0  0  0  0
   20.0192   21.1990   24.0898 H   0  0  0  0  0  0  0  0  0  0  0  0
   18.5086   20.7168   23.6377 H   0  0  0  0  0  0  0  0  0  0  0  0
   19.7349   20.7185   22.5359 H   0  0  0  0  0  0  0  0  0  0  0  0
   19.8473   19.1090   23.8835 C   0  0  2  0  0  0  0  0  0  0  0  0
   19.5428   19.0022   24.9293 H   0  0  0  0  0  0  0  0  0  0  0  0
   21.3649   18.8617   23.8208 C   0  0  0  0  0  0  0  0  0  0  0  0
   21.7635   19.0424   22.8154 H   0  0  0  0  0  0  0  0  0  0  0  0
   21.6027   17.8292   24.1050 H   0  0  0  0  0  0  0  0  0  0  0  0
   21.8918   19.5275   24.5151 H   0  0  0  0  0  0  0  0  0  0  0  0
   19.0435   18.0598   23.0733 C   0  0  0  0  0  0  0  0  0  0  0  0
   19.1130   17.1031   23.6077 H   0  0  0  0  0  0  0  0  0  0  0  0
   17.9798   18.3300   23.0984 H   0  0  0  0  0  0  0  0  0  0  0  0
   19.4749   17.8131   21.6004 C   0  0  0  0  0  0  0  0  0  0  0  0
   18.8392   17.0163   21.1897 H   0  0  0  0  0  0  0  0  0  0  0  0
   20.4999   17.4197   21.5644 H   0  0  0  0  0  0  0  0  0  0  0  0
   19.3597   19.0485   20.6787 C   0  0  0  0  0  0  0  0  0  0  0  0
   18.3692   19.5148   20.7595 H   0  0  0  0  0  0  0  0  0  0  0  0
   19.5045   18.7552   19.6307 H   0  0  0  0  0  0  0  0  0  0  0  0
   20.1248   19.7982   20.9108 H   0  0  0  0  0  0  0  0  0  0  0  0
  1  2  1  0  0  0  0
  1  3  1  0  0  0  0
  1  4  1  0  0  0  0
  1  5  1  0  0  0  0
  5  6  1  0  0  0  0
  5  7  1  0  0  0  0
  7  8  1  0  0  0  0
  7  9  1  0  0  0  0
  7 10  1  0  0  0  0
  5 11  1  0  0  0  0
 11 12  1  0  0  0  0
 11 13  1  0  0  0  0
 11 14  1  0  0  0  0
 14 15  1  0  0  0  0
 14 16  1  0  0  0  0
 14 17  1  0  0  0  0
 17 18  1  0  0  0  0
 17 19  1  0  0  0  0
 17 20  1  0  0  0  0
M  END
> <VConfSearch Rank>
420

> <Conf_Id>
55

> <Delta U+W>
2.767

> <U+W>
-33.509

> <U>
24.552

> <W>
-58.061

> <W(PB)>
-59.930

> <W(SA)>
1.869

> <Valence>
3.726

> <Coulomb>
20.219

> <VdW>
0.606

> <VdW6>
-6.395

> <VdW12>
7.001

> <Bond>
0.241

> <Angle>
2.098

> <Pdih>
1.387

> <Idih>
0.000

> <Tether>
0.000

$$$$
VeraChem MOL file


 20 19  0  0  0  0  0  0  0  0999 V2000     
   18.6593   18.2255   24.1926 N   0  3  0  0  0  0  0  0  0  0  0  0
   19.3458   17.5538   24.5446 H   0  0  0  0  0  0  0  0  0  0  0  0
   17.7334   17.8900   24.4716 H   0  0  0  0  0  0  0  0  0  0  0  0
   18.8198   19.1120   24.6773 H   0  0  0  0  0  0  0  0  0  0  0  0
   18.7601   18.3861   22.6996 C   0  0  2  0  0  0  0  0  0  0  0  0
   18.0003   19.1185   22.4097 H   0  0  0  0  0  0  0  0  0  0  0  0
   18.4439   17.0587   21.9911 C   0  0  0  0  0  0  0  0  0  0  0  0
   17.4493   16.6939   22.2754 H   0  0  0  0  0  0  0  0  0  0  0  0
   19.1783   16.2855   22.2494 H   0  0  0  0  0  0  0  0  0  0  0  0
   18.4517   17.1866   20.9015 H   0  0  0  0  0  0  0  0  0  0  0  0
   20.1393   18.9185   22.2518 C   0  0  0  0  0  0  0  0  0  0  0  0
   20.9240   18.2115   22.5524 H   0  0  0  0  0  0  0  0  0  0  0  0
   20.1624   18.9634   21.1547 H   0  0  0  0  0  0  0  0  0  0  0  0
   20.4580   20.3244   22.8152 C   0  0  0  0  0  0  0  0  0  0  0  0
   20.4966   20.2940   23.9125 H   0  0  0  0  0  0  0  0  0  0  0  0
   19.6539   21.0230   22.5441 H   0  0  0  0  0  0  0  0  0  0  0  0
   21.8031   20.8612   22.2805 C   0  0  0  0  0  0  0  0  0  0  0  0
   22.6325   20.1992   22.5619 H   0  0  0  0  0  0  0  0  0  0  0  0
   22.0137   21.8574   22.6909 H   0  0  0  0  0  0  0  0  0  0  0  0
   21.7888   20.9448   21.1860 H   0  0  0  0  0  0  0  0  0  0  0  0
  1  2  1  0  0  0  0
  1  3  1  0  0  0  0
  1  4  1  0  0  0  0
  1  5  1  0  0  0  0
  5  6  1  0  0  0  0
  5  7  1  0  0  0  0
  7  8  1  0  0  0  0
  7  9  1  0  0  0  0
  7 10  1  0  0  0  0
  5 11  1  0  0  0  0
 11 12  1  0  0  0  0
 11 13  1  0  0  0  0
 11 14  1  0  0  0  0
 14 15  1  0  0  0  0
 14 16  1  0  0  0  0
 14 17  1  0  0  0  0
 17 18  1  0  0  0  0
 17 19  1  0  0  0  0
 17 20  1  0  0  0  0
M  END
> <VConfSearch Rank>
421

> <Conf_Id>
74

> <Delta U+W>
0.000

> <U+W>
-36.276

> <U>
22.080

> <W>
-58.356

> <W(PB)>
-60.289

> <W(SA)>
1.932

> <Valence>
1.885

> <Coulomb>
19.559

> <VdW>
0.637

> <VdW6>
-4.482

> <VdW12>
5.119

> <Bond>
0.136

> <Angle>
0.867

> <Pdih>
0.882

> <Idih>
0.000

> <Tether>
0.000

$$$$
VeraChem MOL file


 20 19  0  0  0  0  0  0  0  0999 V2000     
   21.0320   18.2074   20.8438 N   0  3  0  0  0  0  0  0  0  0  0  0
   20.7689   17.2203   20.7785 H   0  0  0  0  0  0  0  0  0  0  0  0
   21.9562   18.2498   21.2808 H   0  0  0  0  0  0  0  0  0  0  0  0
   21.1316   18.5574   19.8871 H   0  0  0  0  0  0  0  0  0  0  0  0
   20.0173   19.0029   21.6184 C   0  0  2  0  0  0  0  0  0  0  0  0
   19.0701   18.9020   21.0795 H   0  0  0  0  0  0  0  0  0  0  0  0
   20.4088   20.4919   21.6388 C   0  0  0  0  0  0  0  0  0  0  0  0
   20.5876   20.8583   20.6205 H   0  0  0  0  0  0  0  0  0  0  0  0
   21.3226   20.6544   22.2237 H   0  0  0  0  0  0  0  0  0  0  0  0
   19.6111   21.1086   22.0685 H   0  0  0  0  0  0  0  0  0  0  0  0
   19.8267   18.4307   23.0424 C   0  0  0  0  0  0  0  0  0  0  0  0
   19.6577   17.3487   22.9622 H   0  0  0  0  0  0  0  0  0  0  0  0
   20.7523   18.5584   23.6193 H   0  0  0  0  0  0  0  0  0  0  0  0
   18.6400   19.0573   23.8146 C   0  0  0  0  0  0  0  0  0  0  0  0
   17.7251   18.9858   23.2098 H   0  0  0  0  0  0  0  0  0  0  0  0
   18.8222   20.1256   23.9919 H   0  0  0  0  0  0  0  0  0  0  0  0
   18.4115   18.3589   25.1724 C   0  0  0  0  0  0  0  0  0  0  0  0
   18.1826   17.2938   25.0363 H   0  0  0  0  0  0  0  0  0  0  0  0
   17.5699   18.8176   25.7076 H   0  0  0  0  0  0  0  0  0  0  0  0
   19.3003   18.4384   25.8119 H   0  0  0  0  0  0  0  0  0  0  0  0
  1  2  1  0  0  0  0
  1  3  1  0  0  0  0
  1  4  1  0  0  0  0
  1  5  1  0  0  0  0
  5  6  1  0  0  0  0
  5  7  1  0  0  0  0
  7  8  1  0  0  0  0
  7  9  1  0  0  0  0
  7 10  1  0  0  0  0
  5 11  1  0  0  0  0
 11 12  1  0  0  0  0
 11 13  1  0  0  0  0
 11 14  1  0  0  0  0
 14 15  1  0  0  0  0
 14 16  1  0  0  0  0
 14 17  1  0  0  0  0
 17 18  1  0  0  0  0
 17 19  1  0  0  0  0
 17 20  1  0  0  0  0
M  END
> <VConfSearch Rank>
422

> <Conf_Id>
80

> <Delta U+W>
0.460

> <U+W>
-35.817

> <U>
22.495

> <W>
-58.311

> <W(PB)>
-60.259

> <W(SA)>
1.948

> <Valence>
2.419

> <Coulomb>
19.304

> <VdW>
0.772

> <VdW6>
-4.635

> <VdW12>
5.407

> <Bond>
0.149

> <Angle>
1.142

> <Pdih>
1.129

> <Idih>
0.000

> <Tether>
0.000

$$$$
VeraChem MOL file


 20 19  0  0  0  0  0  0  0  0999 V2000     
   21.6392   19.6281   21.4386 N   0  3  0  0  0  0  0  0  0  0  0  0
   21.4435   19.5794   20.4350 H   0  0  0  0  0  0  0  0  0  0  0  0
   22.2290   18.8264   21.6751 H   0  0  0  0  0  0  0  0  0  0  0  0
   22.1957   20.4724   21.5973 H   0  0  0  0  0  0  0  0  0  0  0  0
   20.3738   19.6416   22.2518 C   0  0  2  0  0  0  0  0  0  0  0  0
   19.8166   20.5292   21.9364 H   0  0  0  0  0  0  0  0  0  0  0  0
   20.7035   19.7904   23.7469 C   0  0  0  0  0  0  0  0  0  0  0  0
   21.3902   20.6300   23.9106 H   0  0  0  0  0  0  0  0  0  0  0  0
   21.1745   18.8824   24.1432 H   0  0  0  0  0  0  0  0  0  0  0  0
   19.7987   19.9975   24.3297 H   0  0  0  0  0  0  0  0  0  0  0  0
   19.5050   18.3965   21.9483 C   0  0  0  0  0  0  0  0  0  0  0  0
   19.3555   18.3563   20.8613 H   0  0  0  0  0  0  0  0  0  0  0  0
   20.0513   17.4801   22.2083 H   0  0  0  0  0  0  0  0  0  0  0  0
   18.1051   18.3950   22.6176 C   0  0  0  0  0  0  0  0  0  0  0  0
   17.3837   17.9468   21.9198 H   0  0  0  0  0  0  0  0  0  0  0  0
   17.7607   19.4251   22.7857 H   0  0  0  0  0  0  0  0  0  0  0  0
   18.0548   17.5880   23.9365 C   0  0  0  0  0  0  0  0  0  0  0  0
   18.3248   16.5380   23.7639 H   0  0  0  0  0  0  0  0  0  0  0  0
   17.0418   17.6052   24.3588 H   0  0  0  0  0  0  0  0  0  0  0  0
   18.7365   17.9907   24.6938 H   0  0  0  0  0  0  0  0  0  0  0  0
  1  2  1  0  0  0  0
  1  3  1  0  0  0  0
  1  4  1  0  0  0  0
  1  5  1  0  0  0  0
  5  6  1  0  0  0  0
  5  7  1  0  0  0  0
  7  8  1  0  0  0  0
  7  9  1  0  0  0  0
  7 10  1  0  0  0  0
  5 11  1  0  0  0  0
 11 12  1  0  0  0  0
 11 13  1  0  0  0  0
 11 14  1  0  0  0  0
 14 15  1  0  0  0  0
 14 16  1  0  0  0  0
 14 17  1  0  0  0  0
 17 18  1  0  0  0  0
 17 19  1  0  0  0  0
 17 20  1  0  0  0  0
M  END
> <VConfSearch Rank>
423

> <Conf_Id>
52

> <Delta U+W>
2.995

> <U+W>
-33.282

> <U>
25.224

> <W>
-58.506

> <W(PB)>
-60.411

> <W(SA)>
1.905

> <Valence>
4.945

> <Coulomb>
19.467

> <VdW>
0.813

> <VdW6>
-5.458

> <VdW12>
6.270

> <Bond>
0.200

> <Angle>
1.675

> <Pdih>
3.070

> <Idih>
0.000

> <Tether>
0.000

$$$$
VeraChem MOL file


 20 19  0  0  0  0  0  0  0  0999 V2000     
   20.9171   18.5281   21.7228 N   0  3  0  0  0  0  0  0  0  0  0  0
   21.7925   18.7706   22.1932 H   0  0  0  0  0  0  0  0  0  0  0  0
   21.1227   18.4312   20.7248 H   0  0  0  0  0  0  0  0  0  0  0  0
   20.6276   17.6110   22.0692 H   0  0  0  0  0  0  0  0  0  0  0  0
   19.8559   19.5653   21.9703 C   0  0  2  0  0  0  0  0  0  0  0  0
   18.9717   19.2641   21.4001 H   0  0  0  0  0  0  0  0  0  0  0  0
   20.3274   20.9304   21.4410 C   0  0  0  0  0  0  0  0  0  0  0  0
   21.2065   21.2878   21.9918 H   0  0  0  0  0  0  0  0  0  0  0  0
   19.5345   21.6824   21.5375 H   0  0  0  0  0  0  0  0  0  0  0  0
   20.5929   20.8648   20.3786 H   0  0  0  0  0  0  0  0  0  0  0  0
   19.4589   19.6731   23.4619 C   0  0  0  0  0  0  0  0  0  0  0  0
   20.3604   19.7210   24.0869 H   0  0  0  0  0  0  0  0  0  0  0  0
   18.9359   20.6263   23.6169 H   0  0  0  0  0  0  0  0  0  0  0  0
   18.5176   18.5482   23.9672 C   0  0  0  0  0  0  0  0  0  0  0  0
   17.5973   18.5379   23.3665 H   0  0  0  0  0  0  0  0  0  0  0  0
   18.2070   18.7966   24.9918 H   0  0  0  0  0  0  0  0  0  0  0  0
   19.1425   17.1345   23.9778 C   0  0  0  0  0  0  0  0  0  0  0  0
   18.4967   16.4390   24.5296 H   0  0  0  0  0  0  0  0  0  0  0  0
   20.1248   17.1353   24.4682 H   0  0  0  0  0  0  0  0  0  0  0  0
   19.2506   16.7326   22.9637 H   0  0  0  0  0  0  0  0  0  0  0  0
  1  2  1  0  0  0  0
  1  3  1  0  0  0  0
  1  4  1  0  0  0  0
  1  5  1  0  0  0  0
  5  6  1  0  0  0  0
  5  7  1  0  0  0  0
  7  8  1  0  0  0  0
  7  9  1  0  0  0  0
  7 10  1  0  0  0  0
  5 11  1  0  0  0  0
 11 12  1  0  0  0  0
 11 13  1  0  0  0  0
 11 14  1  0  0  0  0
 14 15  1  0  0  0  0
 14 16  1  0  0  0  0
 14 17  1  0  0  0  0
 17 18  1  0  0  0  0
 17 19  1  0  0  0  0
 17 20  1  0  0  0  0
M  END
> <VConfSearch Rank>
424

> <Conf_Id>
54

> <Delta U+W>
2.752

> <U+W>
-33.525

> <U>
24.337

> <W>
-57.862

> <W(PB)>
-59.764

> <W(SA)>
1.901

> <Valence>
3.593

> <Coulomb>
20.067

> <VdW>
0.677

> <VdW6>
-5.466

> <VdW12>
6.144

> <Bond>
0.191

> <Angle>
1.557

> <Pdih>
1.845

> <Idih>
0.000

> <Tether>
0.000

$$$$
VeraChem MOL file


 20 19  0  0  0  0  0  0  0  0999 V2000     
   18.5466   20.5660   23.1533 N   0  3  0  0  0  0  0  0  0  0  0  0
   18.5204   21.5850   23.2465 H   0  0  0  0  0  0  0  0  0  0  0  0
   17.8604   20.1833   23.8093 H   0  0  0  0  0  0  0  0  0  0  0  0
   18.2291   20.3377   22.2085 H   0  0  0  0  0  0  0  0  0  0  0  0
   19.9254   20.0242   23.4162 C   0  0  2  0  0  0  0  0  0  0  0  0
   20.1820   20.3313   24.4350 H   0  0  0  0  0  0  0  0  0  0  0  0
   20.9586   20.6573   22.4671 C   0  0  0  0  0  0  0  0  0  0  0  0
   21.9620   20.2584   22.6608 H   0  0  0  0  0  0  0  0  0  0  0  0
   20.9992   21.7435   22.6140 H   0  0  0  0  0  0  0  0  0  0  0  0
   20.7115   20.4711   21.4153 H   0  0  0  0  0  0  0  0  0  0  0  0
   19.9718   18.4778   23.3788 C   0  0  0  0  0  0  0  0  0  0  0  0
   20.9790   18.1479   23.6662 H   0  0  0  0  0  0  0  0  0  0  0  0
   19.2963   18.0915   24.1533 H   0  0  0  0  0  0  0  0  0  0  0  0
   19.5959   17.8444   22.0143 C   0  0  0  0  0  0  0  0  0  0  0  0
   20.2935   18.1789   21.2349 H   0  0  0  0  0  0  0  0  0  0  0  0
   18.5936   18.1721   21.7073 H   0  0  0  0  0  0  0  0  0  0  0  0
   19.6227   16.3022   22.0792 C   0  0  0  0  0  0  0  0  0  0  0  0
   19.3569   15.8685   21.1064 H   0  0  0  0  0  0  0  0  0  0  0  0
   18.9077   15.9251   22.8221 H   0  0  0  0  0  0  0  0  0  0  0  0
   20.6215   15.9353   22.3493 H   0  0  0  0  0  0  0  0  0  0  0  0
  1  2  1  0  0  0  0
  1  3  1  0  0  0  0
  1  4  1  0  0  0  0
  1  5  1  0  0  0  0
  5  6  1  0  0  0  0
  5  7  1  0  0  0  0
  7  8  1  0  0  0  0
  7  9  1  0  0  0  0
  7 10  1  0  0  0  0
  5 11  1  0  0  0  0
 11 12  1  0  0  0  0
 11 13  1  0  0  0  0
 11 14  1  0  0  0  0
 14 15  1  0  0  0  0
 14 16  1  0  0  0  0
 14 17  1  0  0  0  0
 17 18  1  0  0  0  0
 17 19  1  0  0  0  0
 17 20  1  0  0  0  0
M  END
> <VConfSearch Rank>
425

> <Conf_Id>
63

> <Delta U+W>
0.420

> <U+W>
-35.856

> <U>
22.625

> <W>
-58.481

> <W(PB)>
-60.400

> <W(SA)>
1.919

> <Valence>
2.404

> <Coulomb>
19.464

> <VdW>
0.757

> <VdW6>
-5.074

> <VdW12>
5.830

> <Bond>
0.172

> <Angle>
1.207

> <Pdih>
1.025

> <Idih>
0.000

> <Tether>
0.000

$$$$
VeraChem MOL file


 20 19  0  0  0  0  0  0  0  0999 V2000     
   18.9014   19.9696   24.0041 N   0  3  0  0  0  0  0  0  0  0  0  0
   19.4086   20.7469   23.5734 H   0  0  0  0  0  0  0  0  0  0  0  0
   19.3250   19.7944   24.9186 H   0  0  0  0  0  0  0  0  0  0  0  0
   17.9411   20.2840   24.1669 H   0  0  0  0  0  0  0  0  0  0  0  0
   18.9405   18.7424   23.1343 C   0  0  2  0  0  0  0  0  0  0  0  0
   18.4689   19.0142   22.1851 H   0  0  0  0  0  0  0  0  0  0  0  0
   18.1233   17.6033   23.7652 C   0  0  0  0  0  0  0  0  0  0  0  0
   17.0870   17.9185   23.9384 H   0  0  0  0  0  0  0  0  0  0  0  0
   18.5510   17.2922   24.7265 H   0  0  0  0  0  0  0  0  0  0  0  0
   18.0983   16.7286   23.1034 H   0  0  0  0  0  0  0  0  0  0  0  0
   20.3831   18.2713   22.8412 C   0  0  0  0  0  0  0  0  0  0  0  0
   20.8686   17.9779   23.7815 H   0  0  0  0  0  0  0  0  0  0  0  0
   20.3442   17.3659   22.2210 H   0  0  0  0  0  0  0  0  0  0  0  0
   21.2627   19.3270   22.1245 C   0  0  0  0  0  0  0  0  0  0  0  0
   22.2638   18.9023   21.9653 H   0  0  0  0  0  0  0  0  0  0  0  0
   21.4065   20.2037   22.7704 H   0  0  0  0  0  0  0  0  0  0  0  0
   20.6853   19.7723   20.7615 C   0  0  0  0  0  0  0  0  0  0  0  0
   20.5328   18.9114   20.0975 H   0  0  0  0  0  0  0  0  0  0  0  0
   21.3744   20.4638   20.2595 H   0  0  0  0  0  0  0  0  0  0  0  0
   19.7248   20.2896   20.8781 H   0  0  0  0  0  0  0  0  0  0  0  0
  1  2  1  0  0  0  0
  1  3  1  0  0  0  0
  1  4  1  0  0  0  0
  1  5  1  0  0  0  0
  5  6  1  0  0  0  0
  5  7  1  0  0  0  0
  7  8  1  0  0  0  0
  7  9  1  0  0  0  0
  7 10  1  0  0  0  0
  5 11  1  0  0  0  0
 11 12  1  0  0  0  0
 11 13  1  0  0  0  0
 11 14  1  0  0  0  0
 14 15  1  0  0  0  0
 14 16  1  0  0  0  0
 14 17  1  0  0  0  0
 17 18  1  0  0  0  0
 17 19  1  0  0  0  0
 17 20  1  0  0  0  0
M  END
> <VConfSearch Rank>
426

> <Conf_Id>
50

> <Delta U+W>
0.466

> <U+W>
-35.811

> <U>
22.369

> <W>
-58.180

> <W(PB)>
-60.103

> <W(SA)>
1.923

> <Valence>
2.168

> <Coulomb>
19.636

> <VdW>
0.566

> <VdW6>
-5.263

> <VdW12>
5.829

> <Bond>
0.162

> <Angle>
1.066

> <Pdih>
0.939

> <Idih>
0.000

> <Tether>
0.000

$$$$
VeraChem MOL file


 20 19  0  0  0  0  0  0  0  0999 V2000     
   17.6355   18.3449   23.6510 N   0  3  0  0  0  0  0  0  0  0  0  0
   17.1147   19.2262   23.6617 H   0  0  0  0  0  0  0  0  0  0  0  0
   17.7984   18.0725   24.6237 H   0  0  0  0  0  0  0  0  0  0  0  0
   17.0236   17.6374   23.2354 H   0  0  0  0  0  0  0  0  0  0  0  0
   18.9268   18.4725   22.8889 C   0  0  2  0  0  0  0  0  0  0  0  0
   18.6522   18.7673   21.8714 H   0  0  0  0  0  0  0  0  0  0  0  0
   19.6420   17.1097   22.8321 C   0  0  0  0  0  0  0  0  0  0  0  0
   19.8938   16.7533   23.8387 H   0  0  0  0  0  0  0  0  0  0  0  0
   20.5702   17.1655   22.2533 H   0  0  0  0  0  0  0  0  0  0  0  0
   19.0013   16.3568   22.3569 H   0  0  0  0  0  0  0  0  0  0  0  0
   19.8404   19.5746   23.4798 C   0  0  0  0  0  0  0  0  0  0  0  0
   19.2415   20.2294   24.1264 H   0  0  0  0  0  0  0  0  0  0  0  0
   20.6029   19.1309   24.1338 H   0  0  0  0  0  0  0  0  0  0  0  0
   20.5126   20.4725   22.4104 C   0  0  0  0  0  0  0  0  0  0  0  0
   21.0737   21.2671   22.9219 H   0  0  0  0  0  0  0  0  0  0  0  0
   19.7386   20.9792   21.8170 H   0  0  0  0  0  0  0  0  0  0  0  0
   21.4719   19.7178   21.4636 C   0  0  0  0  0  0  0  0  0  0  0  0
   22.2334   19.1650   22.0289 H   0  0  0  0  0  0  0  0  0  0  0  0
   21.9924   20.4234   20.8031 H   0  0  0  0  0  0  0  0  0  0  0  0
   20.9297   19.0100   20.8242 H   0  0  0  0  0  0  0  0  0  0  0  0
  1  2  1  0  0  0  0
  1  3  1  0  0  0  0
  1  4  1  0  0  0  0
  1  5  1  0  0  0  0
  5  6  1  0  0  0  0
  5  7  1  0  0  0  0
  7  8  1  0  0  0  0
  7  9  1  0  0  0  0
  7 10  1  0  0  0  0
  5 11  1  0  0  0  0
 11 12  1  0  0  0  0
 11 13  1  0  0  0  0
 11 14  1  0  0  0  0
 14 15  1  0  0  0  0
 14 16  1  0  0  0  0
 14 17  1  0  0  0  0
 17 18  1  0  0  0  0
 17 19  1  0  0  0  0
 17 20  1  0  0  0  0
M  END
> <VConfSearch Rank>
427

> <Conf_Id>
3

> <Delta U+W>
3.093

> <U+W>
-33.184

> <U>
25.256

> <W>
-58.439

> <W(PB)>
-60.337

> <W(SA)>
1.898

> <Valence>
4.963

> <Coulomb>
19.511

> <VdW>
0.782

> <VdW6>
-5.429

> <VdW12>
6.211

> <Bond>
0.174

> <Angle>
1.377

> <Pdih>
3.412

> <Idih>
0.000

> <Tether>
0.000

$$$$
VeraChem MOL file


 20 19  0  0  0  0  0  0  0  0999 V2000     
   19.5717   21.2077   22.5601 N   0  3  0  0  0  0  0  0  0  0  0  0
   20.3525   21.8260   22.7964 H   0  0  0  0  0  0  0  0  0  0  0  0
   18.7887   21.4640   23.1676 H   0  0  0  0  0  0  0  0  0  0  0  0
   19.2957   21.4208   21.5983 H   0  0  0  0  0  0  0  0  0  0  0  0
   19.9476   19.7601   22.7194 C   0  0  2  0  0  0  0  0  0  0  0  0
   20.2290   19.6301   23.7687 H   0  0  0  0  0  0  0  0  0  0  0  0
   21.1683   19.4243   21.8435 C   0  0  0  0  0  0  0  0  0  0  0  0
   21.5412   18.4147   22.0512 H   0  0  0  0  0  0  0  0  0  0  0  0
   21.9912   20.1215   22.0433 H   0  0  0  0  0  0  0  0  0  0  0  0
   20.9208   19.4868   20.7766 H   0  0  0  0  0  0  0  0  0  0  0  0
   18.7452   18.8331   22.4203 C   0  0  0  0  0  0  0  0  0  0  0  0
   17.8852   19.1709   23.0134 H   0  0  0  0  0  0  0  0  0  0  0  0
   18.4524   18.9460   21.3680 H   0  0  0  0  0  0  0  0  0  0  0  0
   18.9850   17.3313   22.7207 C   0  0  0  0  0  0  0  0  0  0  0  0
   19.7520   16.9252   22.0477 H   0  0  0  0  0  0  0  0  0  0  0  0
   18.0638   16.7760   22.4952 H   0  0  0  0  0  0  0  0  0  0  0  0
   19.3840   17.0635   24.1898 C   0  0  0  0  0  0  0  0  0  0  0  0
   18.6322   17.4638   24.8825 H   0  0  0  0  0  0  0  0  0  0  0  0
   20.3525   17.5179   24.4339 H   0  0  0  0  0  0  0  0  0  0  0  0
   19.4690   15.9848   24.3747 H   0  0  0  0  0  0  0  0  0  0  0  0
  1  2  1  0  0  0  0
  1  3  1  0  0  0  0
  1  4  1  0  0  0  0
  1  5  1  0  0  0  0
  5  6  1  0  0  0  0
  5  7  1  0  0  0  0
  7  8  1  0  0  0  0
  7  9  1  0  0  0  0
  7 10  1  0  0  0  0
  5 11  1  0  0  0  0
 11 12  1  0  0  0  0
 11 13  1  0  0  0  0
 11 14  1  0  0  0  0
 14 15  1  0  0  0  0
 14 16  1  0  0  0  0
 14 17  1  0  0  0  0
 17 18  1  0  0  0  0
 17 19  1  0  0  0  0
 17 20  1  0  0  0  0
M  END
> <VConfSearch Rank>
428

> <Conf_Id>
64

> <Delta U+W>
0.544

> <U+W>
-35.732

> <U>
22.800

> <W>
-58.532

> <W(PB)>
-60.437

> <W(SA)>
1.905

> <Valence>
2.662

> <Coulomb>
19.485

> <VdW>
0.653

> <VdW6>
-5.460

> <VdW12>
6.113

> <Bond>
0.174

> <Angle>
1.378

> <Pdih>
1.109

> <Idih>
0.000

> <Tether>
0.000

$$$$
VeraChem MOL file


 20 19  0  0  0  0  0  0  0  0999 V2000     
   17.8975   18.5989   23.5914 N   0  3  0  0  0  0  0  0  0  0  0  0
   17.6759   18.5176   22.5966 H   0  0  0  0  0  0  0  0  0  0  0  0
   17.1963   19.2150   24.0113 H   0  0  0  0  0  0  0  0  0  0  0  0
   17.7770   17.6725   24.0097 H   0  0  0  0  0  0  0  0  0  0  0  0
   19.2911   19.1255   23.8043 C   0  0  2  0  0  0  0  0  0  0  0  0
   19.4257   19.1859   24.8888 H   0  0  0  0  0  0  0  0  0  0  0  0
   19.4300   20.5506   23.2443 C   0  0  0  0  0  0  0  0  0  0  0  0
   19.1748   20.5901   22.1790 H   0  0  0  0  0  0  0  0  0  0  0  0
   20.4538   20.9231   23.3728 H   0  0  0  0  0  0  0  0  0  0  0  0
   18.7577   21.2369   23.7734 H   0  0  0  0  0  0  0  0  0  0  0  0
   20.3755   18.1572   23.2681 C   0  0  0  0  0  0  0  0  0  0  0  0
   21.3648   18.4983   23.6003 H   0  0  0  0  0  0  0  0  0  0  0  0
   20.2238   17.1888   23.7627 H   0  0  0  0  0  0  0  0  0  0  0  0
   20.3877   17.9224   21.7318 C   0  0  0  0  0  0  0  0  0  0  0  0
   19.3759   18.0078   21.3143 H   0  0  0  0  0  0  0  0  0  0  0  0
   20.7027   16.8866   21.5427 H   0  0  0  0  0  0  0  0  0  0  0  0
   21.3580   18.8568   20.9715 C   0  0  0  0  0  0  0  0  0  0  0  0
   21.0825   19.9119   21.0748 H   0  0  0  0  0  0  0  0  0  0  0  0
   21.3581   18.6189   19.8998 H   0  0  0  0  0  0  0  0  0  0  0  0
   22.3860   18.7378   21.3376 H   0  0  0  0  0  0  0  0  0  0  0  0
  1  2  1  0  0  0  0
  1  3  1  0  0  0  0
  1  4  1  0  0  0  0
  1  5  1  0  0  0  0
  5  6  1  0  0  0  0
  5  7  1  0  0  0  0
  7  8  1  0  0  0  0
  7  9  1  0  0  0  0
  7 10  1  0  0  0  0
  5 11  1  0  0  0  0
 11 12  1  0  0  0  0
 11 13  1  0  0  0  0
 11 14  1  0  0  0  0
 14 15  1  0  0  0  0
 14 16  1  0  0  0  0
 14 17  1  0  0  0  0
 17 18  1  0  0  0  0
 17 19  1  0  0  0  0
 17 20  1  0  0  0  0
M  END
> <VConfSearch Rank>
429

> <Conf_Id>
35

> <Delta U+W>
3.004

> <U+W>
-33.272

> <U>
25.367

> <W>
-58.639

> <W(PB)>
-60.512

> <W(SA)>
1.873

> <Valence>
4.943

> <Coulomb>
19.661

> <VdW>
0.764

> <VdW6>
-5.871

> <VdW12>
6.636

> <Bond>
0.230

> <Angle>
1.857

> <Pdih>
2.855

> <Idih>
0.000

> <Tether>
0.000

$$$$
VeraChem MOL file


 20 19  0  0  0  0  0  0  0  0999 V2000     
   19.8328   20.2519   21.4601 N   0  3  0  0  0  0  0  0  0  0  0  0
   20.4378   20.5650   20.6962 H   0  0  0  0  0  0  0  0  0  0  0  0
   19.2013   21.0253   21.6852 H   0  0  0  0  0  0  0  0  0  0  0  0
   19.2606   19.4825   21.1071 H   0  0  0  0  0  0  0  0  0  0  0  0
   20.6342   19.8281   22.6604 C   0  0  2  0  0  0  0  0  0  0  0  0
   21.1842   20.7219   22.9712 H   0  0  0  0  0  0  0  0  0  0  0  0
   21.6743   18.7556   22.2910 C   0  0  0  0  0  0  0  0  0  0  0  0
   21.2002   17.8566   21.8795 H   0  0  0  0  0  0  0  0  0  0  0  0
   22.2610   18.4637   23.1707 H   0  0  0  0  0  0  0  0  0  0  0  0
   22.3728   19.1409   21.5383 H   0  0  0  0  0  0  0  0  0  0  0  0
   19.7505   19.4053   23.8620 C   0  0  0  0  0  0  0  0  0  0  0  0
   20.3818   19.4204   24.7602 H   0  0  0  0  0  0  0  0  0  0  0  0
   18.9871   20.1760   24.0304 H   0  0  0  0  0  0  0  0  0  0  0  0
   19.0646   18.0123   23.7874 C   0  0  0  0  0  0  0  0  0  0  0  0
   18.5198   17.8517   24.7282 H   0  0  0  0  0  0  0  0  0  0  0  0
   19.8211   17.2168   23.7460 H   0  0  0  0  0  0  0  0  0  0  0  0
   18.0697   17.8448   22.6165 C   0  0  0  0  0  0  0  0  0  0  0  0
   17.3520   18.6748   22.5817 H   0  0  0  0  0  0  0  0  0  0  0  0
   17.4974   16.9154   22.7345 H   0  0  0  0  0  0  0  0  0  0  0  0
   18.5874   17.7827   21.6524 H   0  0  0  0  0  0  0  0  0  0  0  0
  1  2  1  0  0  0  0
  1  3  1  0  0  0  0
  1  4  1  0  0  0  0
  1  5  1  0  0  0  0
  5  6  1  0  0  0  0
  5  7  1  0  0  0  0
  7  8  1  0  0  0  0
  7  9  1  0  0  0  0
  7 10  1  0  0  0  0
  5 11  1  0  0  0  0
 11 12  1  0  0  0  0
 11 13  1  0  0  0  0
 11 14  1  0  0  0  0
 14 15  1  0  0  0  0
 14 16  1  0  0  0  0
 14 17  1  0  0  0  0
 17 18  1  0  0  0  0
 17 19  1  0  0  0  0
 17 20  1  0  0  0  0
M  END
> <VConfSearch Rank>
430

> <Conf_Id>
55

> <Delta U+W>
2.767

> <U+W>
-33.509

> <U>
24.552

> <W>
-58.061

> <W(PB)>
-59.930

> <W(SA)>
1.869

> <Valence>
3.726

> <Coulomb>
20.219

> <VdW>
0.606

> <VdW6>
-6.395

> <VdW12>
7.001

> <Bond>
0.241

> <Angle>
2.098

> <Pdih>
1.387

> <Idih>
0.000

> <Tether>
0.000

$$$$
VeraChem MOL file


 20 19  0  0  0  0  0  0  0  0999 V2000     
   21.6373   18.4004   22.6847 N   0  3  0  0  0  0  0  0  0  0  0  0
   21.6043   17.8659   21.8130 H   0  0  0  0  0  0  0  0  0  0  0  0
   22.4190   18.0367   23.2362 H   0  0  0  0  0  0  0  0  0  0  0  0
   21.8608   19.3691   22.4432 H   0  0  0  0  0  0  0  0  0  0  0  0
   20.3389   18.3048   23.4397 C   0  0  2  0  0  0  0  0  0  0  0  0
   20.4583   18.9030   24.3484 H   0  0  0  0  0  0  0  0  0  0  0  0
   20.0611   16.8505   23.8542 C   0  0  0  0  0  0  0  0  0  0  0  0
   20.8886   16.4527   24.4543 H   0  0  0  0  0  0  0  0  0  0  0  0
   19.9339   16.2045   22.9766 H   0  0  0  0  0  0  0  0  0  0  0  0
   19.1495   16.7852   24.4612 H   0  0  0  0  0  0  0  0  0  0  0  0
   19.1448   18.8730   22.6413 C   0  0  0  0  0  0  0  0  0  0  0  0
   19.0178   18.3038   21.7107 H   0  0  0  0  0  0  0  0  0  0  0  0
   18.2264   18.7264   23.2253 H   0  0  0  0  0  0  0  0  0  0  0  0
   19.2946   20.3789   22.3170 C   0  0  0  0  0  0  0  0  0  0  0  0
   20.1771   20.5454   21.6847 H   0  0  0  0  0  0  0  0  0  0  0  0
   19.4575   20.9433   23.2461 H   0  0  0  0  0  0  0  0  0  0  0  0
   18.0479   20.9331   21.5946 C   0  0  0  0  0  0  0  0  0  0  0  0
   17.8756   20.4087   20.6456 H   0  0  0  0  0  0  0  0  0  0  0  0
   18.1717   22.0008   21.3713 H   0  0  0  0  0  0  0  0  0  0  0  0
   17.1489   20.8215   22.2147 H   0  0  0  0  0  0  0  0  0  0  0  0
  1  2  1  0  0  0  0
  1  3  1  0  0  0  0
  1  4  1  0  0  0  0
  1  5  1  0  0  0  0
  5  6  1  0  0  0  0
  5  7  1  0  0  0  0
  7  8  1  0  0  0  0
  7  9  1  0  0  0  0
  7 10  1  0  0  0  0
  5 11  1  0  0  0  0
 11 12  1  0  0  0  0
 11 13  1  0  0  0  0
 11 14  1  0  0  0  0
 14 15  1  0  0  0  0
 14 16  1  0  0  0  0
 14 17  1  0  0  0  0
 17 18  1  0  0  0  0
 17 19  1  0  0  0  0
 17 20  1  0  0  0  0
M  END
> <VConfSearch Rank>
431

> <Conf_Id>
74

> <Delta U+W>
0.000

> <U+W>
-36.276

> <U>
22.080

> <W>
-58.356

> <W(PB)>
-60.289

> <W(SA)>
1.932

> <Valence>
1.885

> <Coulomb>
19.559

> <VdW>
0.637

> <VdW6>
-4.482

> <VdW12>
5.119

> <Bond>
0.136

> <Angle>
0.867

> <Pdih>
0.882

> <Idih>
0.000

> <Tether>
0.000

$$$$
VeraChem MOL file


 20 19  0  0  0  0  0  0  0  0999 V2000     
   19.8773   17.0886   24.2358 N   0  3  0  0  0  0  0  0  0  0  0  0
   20.7099   17.3281   24.7811 H   0  0  0  0  0  0  0  0  0  0  0  0
   20.1493   16.3688   23.5615 H   0  0  0  0  0  0  0  0  0  0  0  0
   19.2060   16.6630   24.8807 H   0  0  0  0  0  0  0  0  0  0  0  0
   19.2952   18.2951   23.5517 C   0  0  2  0  0  0  0  0  0  0  0  0
   19.0336   19.0026   24.3447 H   0  0  0  0  0  0  0  0  0  0  0  0
   18.0083   17.9123   22.7979 C   0  0  0  0  0  0  0  0  0  0  0  0
   17.3105   17.3910   23.4646 H   0  0  0  0  0  0  0  0  0  0  0  0
   18.2264   17.2510   21.9501 H   0  0  0  0  0  0  0  0  0  0  0  0
   17.4895   18.7996   22.4174 H   0  0  0  0  0  0  0  0  0  0  0  0
   20.3346   18.9691   22.6261 C   0  0  0  0  0  0  0  0  0  0  0  0
   21.2623   19.1164   23.1947 H   0  0  0  0  0  0  0  0  0  0  0  0
   20.5830   18.2944   21.7960 H   0  0  0  0  0  0  0  0  0  0  0  0
   19.8786   20.3388   22.0665 C   0  0  0  0  0  0  0  0  0  0  0  0
   19.5699   20.9931   22.8940 H   0  0  0  0  0  0  0  0  0  0  0  0
   19.0028   20.2125   21.4162 H   0  0  0  0  0  0  0  0  0  0  0  0
   21.0016   21.0277   21.2614 C   0  0  0  0  0  0  0  0  0  0  0  0
   21.8831   21.2119   21.8893 H   0  0  0  0  0  0  0  0  0  0  0  0
   20.6604   21.9946   20.8694 H   0  0  0  0  0  0  0  0  0  0  0  0
   21.3123   20.4097   20.4089 H   0  0  0  0  0  0  0  0  0  0  0  0
  1  2  1  0  0  0  0
  1  3  1  0  0  0  0
  1  4  1  0  0  0  0
  1  5  1  0  0  0  0
  5  6  1  0  0  0  0
  5  7  1  0  0  0  0
  7  8  1  0  0  0  0
  7  9  1  0  0  0  0
  7 10  1  0  0  0  0
  5 11  1  0  0  0  0
 11 12  1  0  0  0  0
 11 13  1  0  0  0  0
 11 14  1  0  0  0  0
 14 15  1  0  0  0  0
 14 16  1  0  0  0  0
 14 17  1  0  0  0  0
 17 18  1  0  0  0  0
 17 19  1  0  0  0  0
 17 20  1  0  0  0  0
M  END
> <VConfSearch Rank>
432

> <Conf_Id>
80

> <Delta U+W>
0.460

> <U+W>
-35.817

> <U>
22.495

> <W>
-58.311

> <W(PB)>
-60.259

> <W(SA)>
1.948

> <Valence>
2.419

> <Coulomb>
19.304

> <VdW>
0.772

> <VdW6>
-4.635

> <VdW12>
5.407

> <Bond>
0.149

> <Angle>
1.142

> <Pdih>
1.129

> <Idih>
0.000

> <Tether>
0.000

$$$$
VeraChem MOL file


 20 19  0  0  0  0  0  0  0  0999 V2000     
   18.9474   16.6432   22.4250 N   0  3  0  0  0  0  0  0  0  0  0  0
   18.4226   16.3249   23.2442 H   0  0  0  0  0  0  0  0  0  0  0  0
   19.8734   16.2101   22.4670 H   0  0  0  0  0  0  0  0  0  0  0  0
   18.4738   16.2688   21.5985 H   0  0  0  0  0  0  0  0  0  0  0  0
   19.0415   18.1436   22.3736 C   0  0  2  0  0  0  0  0  0  0  0  0
   18.0125   18.5134   22.3247 H   0  0  0  0  0  0  0  0  0  0  0  0
   19.7701   18.5877   21.0937 C   0  0  0  0  0  0  0  0  0  0  0  0
   19.3352   18.1018   20.2117 H   0  0  0  0  0  0  0  0  0  0  0  0
   20.8361   18.3316   21.1331 H   0  0  0  0  0  0  0  0  0  0  0  0
   19.6760   19.6692   20.9435 H   0  0  0  0  0  0  0  0  0  0  0  0
   19.6924   18.7041   23.6617 C   0  0  0  0  0  0  0  0  0  0  0  0
   19.1291   18.3053   24.5157 H   0  0  0  0  0  0  0  0  0  0  0  0
   20.7137   18.3158   23.7706 H   0  0  0  0  0  0  0  0  0  0  0  0
   19.6914   20.2515   23.7769 C   0  0  0  0  0  0  0  0  0  0  0  0
   19.5216   20.5244   24.8280 H   0  0  0  0  0  0  0  0  0  0  0  0
   18.8469   20.6760   23.2160 H   0  0  0  0  0  0  0  0  0  0  0  0
   21.0200   20.9027   23.3254 C   0  0  0  0  0  0  0  0  0  0  0  0
   21.8600   20.5403   23.9321 H   0  0  0  0  0  0  0  0  0  0  0  0
   20.9723   21.9931   23.4423 H   0  0  0  0  0  0  0  0  0  0  0  0
   21.2478   20.6915   22.2747 H   0  0  0  0  0  0  0  0  0  0  0  0
  1  2  1  0  0  0  0
  1  3  1  0  0  0  0
  1  4  1  0  0  0  0
  1  5  1  0  0  0  0
  5  6  1  0  0  0  0
  5  7  1  0  0  0  0
  7  8  1  0  0  0  0
  7  9  1  0  0  0  0
  7 10  1  0  0  0  0
  5 11  1  0  0  0  0
 11 12  1  0  0  0  0
 11 13  1  0  0  0  0
 11 14  1  0  0  0  0
 14 15  1  0  0  0  0
 14 16  1  0  0  0  0
 14 17  1  0  0  0  0
 17 18  1  0  0  0  0
 17 19  1  0  0  0  0
 17 20  1  0  0  0  0
M  END
> <VConfSearch Rank>
433

> <Conf_Id>
52

> <Delta U+W>
2.995

> <U+W>
-33.282

> <U>
25.224

> <W>
-58.506

> <W(PB)>
-60.411

> <W(SA)>
1.905

> <Valence>
4.945

> <Coulomb>
19.467

> <VdW>
0.813

> <VdW6>
-5.458

> <VdW12>
6.270

> <Bond>
0.200

> <Angle>
1.675

> <Pdih>
3.070

> <Idih>
0.000

> <Tether>
0.000

$$$$
VeraChem MOL file


 20 19  0  0  0  0  0  0  0  0999 V2000     
   18.2847   19.2242   23.4043 N   0  3  0  0  0  0  0  0  0  0  0  0
   18.4203   19.9490   24.1133 H   0  0  0  0  0  0  0  0  0  0  0  0
   17.4324   18.7128   23.6485 H   0  0  0  0  0  0  0  0  0  0  0  0
   18.1175   19.6957   22.5129 H   0  0  0  0  0  0  0  0  0  0  0  0
   19.4748   18.3075   23.3225 C   0  0  2  0  0  0  0  0  0  0  0  0
   19.2372   17.5361   22.5835 H   0  0  0  0  0  0  0  0  0  0  0  0
   19.6980   17.6201   24.6802 C   0  0  0  0  0  0  0  0  0  0  0  0
   19.9561   18.3504   25.4574 H   0  0  0  0  0  0  0  0  0  0  0  0
   20.5105   16.8856   24.6180 H   0  0  0  0  0  0  0  0  0  0  0  0
   18.7941   17.0866   24.9991 H   0  0  0  0  0  0  0  0  0  0  0  0
   20.7625   19.0354   22.8683 C   0  0  0  0  0  0  0  0  0  0  0  0
   20.8866   19.9665   23.4368 H   0  0  0  0  0  0  0  0  0  0  0  0
   21.6275   18.4097   23.1257 H   0  0  0  0  0  0  0  0  0  0  0  0
   20.8440   19.3239   21.3462 C   0  0  0  0  0  0  0  0  0  0  0  0
   20.7663   18.3814   20.7861 H   0  0  0  0  0  0  0  0  0  0  0  0
   21.8439   19.7242   21.1269 H   0  0  0  0  0  0  0  0  0  0  0  0
   19.7924   20.3260   20.8179 C   0  0  0  0  0  0  0  0  0  0  0  0
   20.0396   20.6288   19.7920 H   0  0  0  0  0  0  0  0  0  0  0  0
   19.7613   21.2344   21.4337 H   0  0  0  0  0  0  0  0  0  0  0  0
   18.7907   19.8820   20.7866 H   0  0  0  0  0  0  0  0  0  0  0  0
  1  2  1  0  0  0  0
  1  3  1  0  0  0  0
  1  4  1  0  0  0  0
  1  5  1  0  0  0  0
  5  6  1  0  0  0  0
  5  7  1  0  0  0  0
  7  8  1  0  0  0  0
  7  9  1  0  0  0  0
  7 10  1  0  0  0  0
  5 11  1  0  0  0  0
 11 12  1  0  0  0  0
 11 13  1  0  0  0  0
 11 14  1  0  0  0  0
 14 15  1  0  0  0  0
 14 16  1  0  0  0  0
 14 17  1  0  0  0  0
 17 18  1  0  0  0  0
 17 19  1  0  0  0  0
 17 20  1  0  0  0  0
M  END
> <VConfSearch Rank>
434

> <Conf_Id>
54

> <Delta U+W>
2.752

> <U+W>
-33.525

> <U>
24.337

> <W>
-57.862

> <W(PB)>
-59.764

> <W(SA)>
1.901

> <Valence>
3.593

> <Coulomb>
20.067

> <VdW>
0.677

> <VdW6>
-5.466

> <VdW12>
6.144

> <Bond>
0.191

> <Angle>
1.557

> <Pdih>
1.845

> <Idih>
0.000

> <Tether>
0.000

$$$$
VeraChem MOL file


 20 19  0  0  0  0  0  0  0  0999 V2000     
   19.2832   18.0816   24.5082 N   0  3  0  0  0  0  0  0  0  0  0  0
   19.6223   17.9008   25.4569 H   0  0  0  0  0  0  0  0  0  0  0  0
   18.6596   17.3100   24.2564 H   0  0  0  0  0  0  0  0  0  0  0  0
   18.7193   18.9338   24.5427 H   0  0  0  0  0  0  0  0  0  0  0  0
   20.4211   18.2141   23.5327 C   0  0  2  0  0  0  0  0  0  0  0  0
   20.9710   17.2689   23.5789 H   0  0  0  0  0  0  0  0  0  0  0  0
   21.3873   19.3338   23.9588 C   0  0  0  0  0  0  0  0  0  0  0  0
   22.2143   19.4284   23.2443 H   0  0  0  0  0  0  0  0  0  0  0  0
   21.8214   19.1123   24.9414 H   0  0  0  0  0  0  0  0  0  0  0  0
   20.8801   20.3034   24.0283 H   0  0  0  0  0  0  0  0  0  0  0  0
   19.9342   18.3896   22.0742 C   0  0  0  0  0  0  0  0  0  0  0  0
   20.8073   18.3889   21.4082 H   0  0  0  0  0  0  0  0  0  0  0  0
   19.3437   17.5065   21.7969 H   0  0  0  0  0  0  0  0  0  0  0  0
   19.0932   19.6660   21.8139 C   0  0  0  0  0  0  0  0  0  0  0  0
   19.6855   20.5635   22.0366 H   0  0  0  0  0  0  0  0  0  0  0  0
   18.2198   19.6870   22.4794 H   0  0  0  0  0  0  0  0  0  0  0  0
   18.6109   19.7375   20.3491 C   0  0  0  0  0  0  0  0  0  0  0  0
   18.0193   20.6465   20.1796 H   0  0  0  0  0  0  0  0  0  0  0  0
   17.9806   18.8744   20.0977 H   0  0  0  0  0  0  0  0  0  0  0  0
   19.4603   19.7544   19.6538 H   0  0  0  0  0  0  0  0  0  0  0  0
  1  2  1  0  0  0  0
  1  3  1  0  0  0  0
  1  4  1  0  0  0  0
  1  5  1  0  0  0  0
  5  6  1  0  0  0  0
  5  7  1  0  0  0  0
  7  8  1  0  0  0  0
  7  9  1  0  0  0  0
  7 10  1  0  0  0  0
  5 11  1  0  0  0  0
 11 12  1  0  0  0  0
 11 13  1  0  0  0  0
 11 14  1  0  0  0  0
 14 15  1  0  0  0  0
 14 16  1  0  0  0  0
 14 17  1  0  0  0  0
 17 18  1  0  0  0  0
 17 19  1  0  0  0  0
 17 20  1  0  0  0  0
M  END
> <VConfSearch Rank>
435

> <Conf_Id>
63

> <Delta U+W>
0.420

> <U+W>
-35.856

> <U>
22.625

> <W>
-58.481

> <W(PB)>
-60.400

> <W(SA)>
1.919

> <Valence>
2.404

> <Coulomb>
19.464

> <VdW>
0.757

> <VdW6>
-5.074

> <VdW12>
5.830

> <Bond>
0.172

> <Angle>
1.207

> <Pdih>
1.025

> <Idih>
0.000

> <Tether>
0.000

$$$$
VeraChem MOL file


 20 19  0  0  0  0  0  0  0  0999 V2000     
   18.6094   19.2042   24.1514 N   0  3  0  0  0  0  0  0  0  0  0  0
   18.4280   18.2017   24.0566 H   0  0  0  0  0  0  0  0  0  0  0  0
   17.7599   19.6990   23.8687 H   0  0  0  0  0  0  0  0  0  0  0  0
   18.7582   19.3952   25.1459 H   0  0  0  0  0  0  0  0  0  0  0  0
   19.7940   19.6261   23.3250 C   0  0  2  0  0  0  0  0  0  0  0  0
   20.6528   19.0561   23.6920 H   0  0  0  0  0  0  0  0  0  0  0  0
   20.0914   21.1210   23.5257 C   0  0  0  0  0  0  0  0  0  0  0  0
   20.2637   21.3439   24.5858 H   0  0  0  0  0  0  0  0  0  0  0  0
   19.2573   21.7427   23.1770 H   0  0  0  0  0  0  0  0  0  0  0  0
   20.9920   21.4168   22.9734 H   0  0  0  0  0  0  0  0  0  0  0  0
   19.6093   19.3111   21.8231 C   0  0  0  0  0  0  0  0  0  0  0  0
   18.7605   19.8874   21.4318 H   0  0  0  0  0  0  0  0  0  0  0  0
   20.4946   19.6581   21.2739 H   0  0  0  0  0  0  0  0  0  0  0  0
   19.3886   17.8090   21.5117 C   0  0  0  0  0  0  0  0  0  0  0  0
   19.2642   17.6886   20.4264 H   0  0  0  0  0  0  0  0  0  0  0  0
   18.4496   17.4612   21.9631 H   0  0  0  0  0  0  0  0  0  0  0  0
   20.5572   16.9143   21.9840 C   0  0  0  0  0  0  0  0  0  0  0  0
   21.5082   17.2431   21.5450 H   0  0  0  0  0  0  0  0  0  0  0  0
   20.3911   15.8726   21.6800 H   0  0  0  0  0  0  0  0  0  0  0  0
   20.6614   16.9271   23.0762 H   0  0  0  0  0  0  0  0  0  0  0  0
  1  2  1  0  0  0  0
  1  3  1  0  0  0  0
  1  4  1  0  0  0  0
  1  5  1  0  0  0  0
  5  6  1  0  0  0  0
  5  7  1  0  0  0  0
  7  8  1  0  0  0  0
  7  9  1  0  0  0  0
  7 10  1  0  0  0  0
  5 11  1  0  0  0  0
 11 12  1  0  0  0  0
 11 13  1  0  0  0  0
 11 14  1  0  0  0  0
 14 15  1  0  0  0  0
 14 16  1  0  0  0  0
 14 17  1  0  0  0  0
 17 18  1  0  0  0  0
 17 19  1  0  0  0  0
 17 20  1  0  0  0  0
M  END
> <VConfSearch Rank>
436

> <Conf_Id>
50

> <Delta U+W>
0.466

> <U+W>
-35.811

> <U>
22.369

> <W>
-58.180

> <W(PB)>
-60.103

> <W(SA)>
1.923

> <Valence>
2.168

> <Coulomb>
19.636

> <VdW>
0.566

> <VdW6>
-5.263

> <VdW12>
5.829

> <Bond>
0.162

> <Angle>
1.066

> <Pdih>
0.939

> <Idih>
0.000

> <Tether>
0.000

$$$$
VeraChem MOL file


 20 19  0  0  0  0  0  0  0  0999 V2000     
   18.0688   17.3283   22.2718 N   0  3  0  0  0  0  0  0  0  0  0  0
   18.3851   16.8893   21.4028 H   0  0  0  0  0  0  0  0  0  0  0  0
   17.2137   17.8486   22.0597 H   0  0  0  0  0  0  0  0  0  0  0  0
   17.8144   16.5746   22.9160 H   0  0  0  0  0  0  0  0  0  0  0  0
   19.1278   18.2213   22.8599 C   0  0  2  0  0  0  0  0  0  0  0  0
   19.9957   17.5816   23.0480 H   0  0  0  0  0  0  0  0  0  0  0  0
   18.6422   18.8015   24.2014 C   0  0  0  0  0  0  0  0  0  0  0  0
   17.7419   19.4135   24.0646 H   0  0  0  0  0  0  0  0  0  0  0  0
   19.4077   19.4298   24.6694 H   0  0  0  0  0  0  0  0  0  0  0  0
   18.4003   17.9961   24.9056 H   0  0  0  0  0  0  0  0  0  0  0  0
   19.5558   19.3368   21.8748 C   0  0  0  0  0  0  0  0  0  0  0  0
   19.2297   19.0663   20.8618 H   0  0  0  0  0  0  0  0  0  0  0  0
   19.0383   20.2763   22.1106 H   0  0  0  0  0  0  0  0  0  0  0  0
   21.0868   19.5712   21.8190 C   0  0  0  0  0  0  0  0  0  0  0  0
   21.2990   20.3193   21.0424 H   0  0  0  0  0  0  0  0  0  0  0  0
   21.5883   18.6475   21.4978 H   0  0  0  0  0  0  0  0  0  0  0  0
   21.7019   20.0511   23.1523 C   0  0  0  0  0  0  0  0  0  0  0  0
   21.1929   20.9505   23.5226 H   0  0  0  0  0  0  0  0  0  0  0  0
   22.7628   20.2987   23.0178 H   0  0  0  0  0  0  0  0  0  0  0  0
   21.6424   19.2737   23.9241 H   0  0  0  0  0  0  0  0  0  0  0  0
  1  2  1  0  0  0  0
  1  3  1  0  0  0  0
  1  4  1  0  0  0  0
  1  5  1  0  0  0  0
  5  6  1  0  0  0  0
  5  7  1  0  0  0  0
  7  8  1  0  0  0  0
  7  9  1  0  0  0  0
  7 10  1  0  0  0  0
  5 11  1  0  0  0  0
 11 12  1  0  0  0  0
 11 13  1  0  0  0  0
 11 14  1  0  0  0  0
 14 15  1  0  0  0  0
 14 16  1  0  0  0  0
 14 17  1  0  0  0  0
 17 18  1  0  0  0  0
 17 19  1  0  0  0  0
 17 20  1  0  0  0  0
M  END
> <VConfSearch Rank>
437

> <Conf_Id>
3

> <Delta U+W>
3.093

> <U+W>
-33.184

> <U>
25.256

> <W>
-58.439

> <W(PB)>
-60.337

> <W(SA)>
1.898

> <Valence>
4.963

> <Coulomb>
19.511

> <VdW>
0.782

> <VdW6>
-5.429

> <VdW12>
6.211

> <Bond>
0.174

> <Angle>
1.377

> <Pdih>
3.412

> <Idih>
0.000

> <Tether>
0.000

$$$$
VeraChem MOL file


 20 19  0  0  0  0  0  0  0  0999 V2000     
   21.1779   17.2297   22.9303 N   0  3  0  0  0  0  0  0  0  0  0  0
   21.7971   17.1073   23.7360 H   0  0  0  0  0  0  0  0  0  0  0  0
   21.7738   17.3571   22.1077 H   0  0  0  0  0  0  0  0  0  0  0  0
   20.6658   16.3530   22.8047 H   0  0  0  0  0  0  0  0  0  0  0  0
   20.2438   18.3924   23.1249 C   0  0  2  0  0  0  0  0  0  0  0  0
   20.8765   19.2757   23.2535 H   0  0  0  0  0  0  0  0  0  0  0  0
   19.4101   18.2011   24.4049 C   0  0  0  0  0  0  0  0  0  0  0  0
   18.8265   19.0994   24.6373 H   0  0  0  0  0  0  0  0  0  0  0  0
   20.0618   18.0060   25.2653 H   0  0  0  0  0  0  0  0  0  0  0  0
   18.7167   17.3568   24.3047 H   0  0  0  0  0  0  0  0  0  0  0  0
   19.3531   18.6099   21.8784 C   0  0  0  0  0  0  0  0  0  0  0  0
   19.9972   18.6587   20.9905 H   0  0  0  0  0  0  0  0  0  0  0  0
   18.7059   17.7342   21.7370 H   0  0  0  0  0  0  0  0  0  0  0  0
   18.4757   19.8874   21.9148 C   0  0  0  0  0  0  0  0  0  0  0  0
   17.7259   19.8127   22.7139 H   0  0  0  0  0  0  0  0  0  0  0  0
   17.9079   19.9511   20.9759 H   0  0  0  0  0  0  0  0  0  0  0  0
   19.2995   21.1834   22.0906 C   0  0  0  0  0  0  0  0  0  0  0  0
   20.0587   21.2786   21.3034 H   0  0  0  0  0  0  0  0  0  0  0  0
   19.8074   21.2096   23.0628 H   0  0  0  0  0  0  0  0  0  0  0  0
   18.6469   22.0644   22.0347 H   0  0  0  0  0  0  0  0  0  0  0  0
  1  2  1  0  0  0  0
  1  3  1  0  0  0  0
  1  4  1  0  0  0  0
  1  5  1  0  0  0  0
  5  6  1  0  0  0  0
  5  7  1  0  0  0  0
  7  8  1  0  0  0  0
  7  9  1  0  0  0  0
  7 10  1  0  0  0  0
  5 11  1  0  0  0  0
 11 12  1  0  0  0  0
 11 13  1  0  0  0  0
 11 14  1  0  0  0  0
 14 15  1  0  0  0  0
 14 16  1  0  0  0  0
 14 17  1  0  0  0  0
 17 18  1  0  0  0  0
 17 19  1  0  0  0  0
 17 20  1  0  0  0  0
M  END
> <VConfSearch Rank>
438

> <Conf_Id>
64

> <Delta U+W>
0.544

> <U+W>
-35.732

> <U>
22.800

> <W>
-58.532

> <W(PB)>
-60.437

> <W(SA)>
1.905

> <Valence>
2.662

> <Coulomb>
19.485

> <VdW>
0.653

> <VdW6>
-5.460

> <VdW12>
6.113

> <Bond>
0.174

> <Angle>
1.378

> <Pdih>
1.109

> <Idih>
0.000

> <Tether>
0.000

$$$$
VeraChem MOL file


 20 19  0  0  0  0  0  0  0  0999 V2000     
   18.1031   17.9947   23.5804 N   0  3  0  0  0  0  0  0  0  0  0  0
   18.6362   17.1883   23.2476 H   0  0  0  0  0  0  0  0  0  0  0  0
   17.1315   17.8606   23.2880 H   0  0  0  0  0  0  0  0  0  0  0  0
   18.1179   17.9718   24.6036 H   0  0  0  0  0  0  0  0  0  0  0  0
   18.6652   19.2850   23.0473 C   0  0  2  0  0  0  0  0  0  0  0  0
   18.0254   20.0779   23.4472 H   0  0  0  0  0  0  0  0  0  0  0  0
   18.5579   19.3376   21.5145 C   0  0  0  0  0  0  0  0  0  0  0  0
   19.0673   18.4871   21.0469 H   0  0  0  0  0  0  0  0  0  0  0  0
   18.9945   20.2649   21.1236 H   0  0  0  0  0  0  0  0  0  0  0  0
   17.5066   19.3082   21.2032 H   0  0  0  0  0  0  0  0  0  0  0  0
   20.1004   19.5601   23.5624 C   0  0  0  0  0  0  0  0  0  0  0  0
   20.3948   20.5826   23.2915 H   0  0  0  0  0  0  0  0  0  0  0  0
   20.0619   19.5528   24.6596 H   0  0  0  0  0  0  0  0  0  0  0  0
   21.1975   18.5580   23.1072 C   0  0  0  0  0  0  0  0  0  0  0  0
   20.7759   17.5547   22.9620 H   0  0  0  0  0  0  0  0  0  0  0  0
   21.9331   18.4587   23.9177 H   0  0  0  0  0  0  0  0  0  0  0  0
   21.9549   19.0064   21.8352 C   0  0  0  0  0  0  0  0  0  0  0  0
   21.2930   19.0857   20.9659 H   0  0  0  0  0  0  0  0  0  0  0  0
   22.7439   18.2854   21.5848 H   0  0  0  0  0  0  0  0  0  0  0  0
   22.4336   19.9826   21.9865 H   0  0  0  0  0  0  0  0  0  0  0  0
  1  2  1  0  0  0  0
  1  3  1  0  0  0  0
  1  4  1  0  0  0  0
  1  5  1  0  0  0  0
  5  6  1  0  0  0  0
  5  7  1  0  0  0  0
  7  8  1  0  0  0  0
  7  9  1  0  0  0  0
  7 10  1  0  0  0  0
  5 11  1  0  0  0  0
 11 12  1  0  0  0  0
 11 13  1  0  0  0  0
 11 14  1  0  0  0  0
 14 15  1  0  0  0  0
 14 16  1  0  0  0  0
 14 17  1  0  0  0  0
 17 18  1  0  0  0  0
 17 19  1  0  0  0  0
 17 20  1  0  0  0  0
M  END
> <VConfSearch Rank>
439

> <Conf_Id>
35

> <Delta U+W>
3.004

> <U+W>
-33.272

> <U>
25.367

> <W>
-58.639

> <W(PB)>
-60.512

> <W(SA)>
1.873

> <Valence>
4.943

> <Coulomb>
19.661

> <VdW>
0.764

> <VdW6>
-5.871

> <VdW12>
6.636

> <Bond>
0.230

> <Angle>
1.857

> <Pdih>
2.855

> <Idih>
0.000

> <Tether>
0.000

$$$$
VeraChem MOL file


 20 19  0  0  0  0  0  0  0  0999 V2000     
   18.5929   20.1792   22.2018 N   0  3  0  0  0  0  0  0  0  0  0  0
   17.6613   20.4915   22.4885 H   0  0  0  0  0  0  0  0  0  0  0  0
   18.7480   20.5184   21.2487 H   0  0  0  0  0  0  0  0  0  0  0  0
   19.2746   20.6421   22.8060 H   0  0  0  0  0  0  0  0  0  0  0  0
   18.7223   18.6828   22.2817 C   0  0  2  0  0  0  0  0  0  0  0  0
   17.9740   18.2902   21.5861 H   0  0  0  0  0  0  0  0  0  0  0  0
   18.3615   18.1620   23.6843 C   0  0  0  0  0  0  0  0  0  0  0  0
   19.0143   18.5889   24.4550 H   0  0  0  0  0  0  0  0  0  0  0  0
   18.4469   17.0692   23.7272 H   0  0  0  0  0  0  0  0  0  0  0  0
   17.3273   18.4250   23.9375 H   0  0  0  0  0  0  0  0  0  0  0  0
   20.1006   18.1656   21.7959 C   0  0  0  0  0  0  0  0  0  0  0  0
   19.9992   17.0917   21.5911 H   0  0  0  0  0  0  0  0  0  0  0  0
   20.3313   18.6258   20.8262 H   0  0  0  0  0  0  0  0  0  0  0  0
   21.3108   18.3541   22.7533 C   0  0  0  0  0  0  0  0  0  0  0  0
   22.1914   17.8966   22.2809 H   0  0  0  0  0  0  0  0  0  0  0  0
   21.1513   17.7928   23.6840 H   0  0  0  0  0  0  0  0  0  0  0  0
   21.6482   19.8254   23.0850 C   0  0  0  0  0  0  0  0  0  0  0  0
   21.7290   20.4310   22.1729 H   0  0  0  0  0  0  0  0  0  0  0  0
   22.6105   19.8853   23.6099 H   0  0  0  0  0  0  0  0  0  0  0  0
   20.8952   20.2739   23.7431 H   0  0  0  0  0  0  0  0  0  0  0  0
  1  2  1  0  0  0  0
  1  3  1  0  0  0  0
  1  4  1  0  0  0  0
  1  5  1  0  0  0  0
  5  6  1  0  0  0  0
  5  7  1  0  0  0  0
  7  8  1  0  0  0  0
  7  9  1  0  0  0  0
  7 10  1  0  0  0  0
  5 11  1  0  0  0  0
 11 12  1  0  0  0  0
 11 13  1  0  0  0  0
 11 14  1  0  0  0  0
 14 15  1  0  0  0  0
 14 16  1  0  0  0  0
 14 17  1  0  0  0  0
 17 18  1  0  0  0  0
 17 19  1  0  0  0  0
 17 20  1  0  0  0  0
M  END
> <VConfSearch Rank>
440

> <Conf_Id>
55

> <Delta U+W>
2.767

> <U+W>
-33.509

> <U>
24.552

> <W>
-58.061

> <W(PB)>
-59.930

> <W(SA)>
1.869

> <Valence>
3.726

> <Coulomb>
20.219

> <VdW>
0.606

> <VdW6>
-6.395

> <VdW12>
7.001

> <Bond>
0.241

> <Angle>
2.098

> <Pdih>
1.387

> <Idih>
0.000

> <Tether>
0.000

$$$$
VeraChem MOL file


 20 19  0  0  0  0  0  0  0  0999 V2000     
   18.7668   17.9006   24.0659 N   0  3  0  0  0  0  0  0  0  0  0  0
   19.4361   18.0086   24.8320 H   0  0  0  0  0  0  0  0  0  0  0  0
   18.2361   17.0435   24.2429 H   0  0  0  0  0  0  0  0  0  0  0  0
   18.1086   18.6819   24.1201 H   0  0  0  0  0  0  0  0  0  0  0  0
   19.4597   17.8537   22.7307 C   0  0  2  0  0  0  0  0  0  0  0  0
   18.6772   17.7420   21.9737 H   0  0  0  0  0  0  0  0  0  0  0  0
   20.3882   16.6310   22.6469 C   0  0  0  0  0  0  0  0  0  0  0  0
   19.8282   15.7049   22.8258 H   0  0  0  0  0  0  0  0  0  0  0  0
   21.1938   16.6921   23.3892 H   0  0  0  0  0  0  0  0  0  0  0  0
   20.8453   16.5557   21.6524 H   0  0  0  0  0  0  0  0  0  0  0  0
   20.2464   19.1473   22.4245 C   0  0  0  0  0  0  0  0  0  0  0  0
   21.0246   19.2957   23.1850 H   0  0  0  0  0  0  0  0  0  0  0  0
   20.7662   19.0268   21.4646 H   0  0  0  0  0  0  0  0  0  0  0  0
   19.3432   20.4019   22.3485 C   0  0  0  0  0  0  0  0  0  0  0  0
   18.8543   20.5771   23.3163 H   0  0  0  0  0  0  0  0  0  0  0  0
   18.5433   20.2382   21.6126 H   0  0  0  0  0  0  0  0  0  0  0  0
   20.1475   21.6603   21.9574 C   0  0  0  0  0  0  0  0  0  0  0  0
   20.9370   21.8683   22.6914 H   0  0  0  0  0  0  0  0  0  0  0  0
   19.4923   22.5398   21.9096 H   0  0  0  0  0  0  0  0  0  0  0  0
   20.6191   21.5386   20.9735 H   0  0  0  0  0  0  0  0  0  0  0  0
  1  2  1  0  0  0  0
  1  3  1  0  0  0  0
  1  4  1  0  0  0  0
  1  5  1  0  0  0  0
  5  6  1  0  0  0  0
  5  7  1  0  0  0  0
  7  8  1  0  0  0  0
  7  9  1  0  0  0  0
  7 10  1  0  0  0  0
  5 11  1  0  0  0  0
 11 12  1  0  0  0  0
 11 13  1  0  0  0  0
 11 14  1  0  0  0  0
 14 15  1  0  0  0  0
 14 16  1  0  0  0  0
 14 17  1  0  0  0  0
 17 18  1  0  0  0  0
 17 19  1  0  0  0  0
 17 20  1  0  0  0  0
M  END
> <VConfSearch Rank>
441

> <Conf_Id>
74

> <Delta U+W>
0.000

> <U+W>
-36.276

> <U>
22.080

> <W>
-58.356

> <W(PB)>
-60.289

> <W(SA)>
1.932

> <Valence>
1.885

> <Coulomb>
19.559

> <VdW>
0.637

> <VdW6>
-4.482

> <VdW12>
5.119

> <Bond>
0.136

> <Angle>
0.867

> <Pdih>
0.882

> <Idih>
0.000

> <Tether>
0.000

$$$$
VeraChem MOL file


 20 19  0  0  0  0  0  0  0  0999 V2000     
   21.8637   19.2797   23.7633 N   0  3  0  0  0  0  0  0  0  0  0  0
   21.7958   20.2586   24.0551 H   0  0  0  0  0  0  0  0  0  0  0  0
   22.4437   19.2507   22.9210 H   0  0  0  0  0  0  0  0  0  0  0  0
   22.3703   18.7797   24.4988 H   0  0  0  0  0  0  0  0  0  0  0  0
   20.5071   18.6767   23.5213 C   0  0  2  0  0  0  0  0  0  0  0  0
   19.9644   18.7489   24.4689 H   0  0  0  0  0  0  0  0  0  0  0  0
   20.6428   17.1883   23.1510 C   0  0  0  0  0  0  0  0  0  0  0  0
   21.2458   16.6578   23.8981 H   0  0  0  0  0  0  0  0  0  0  0  0
   21.1264   17.0645   22.1740 H   0  0  0  0  0  0  0  0  0  0  0  0
   19.6649   16.6948   23.1157 H   0  0  0  0  0  0  0  0  0  0  0  0
   19.7230   19.4741   22.4531 C   0  0  0  0  0  0  0  0  0  0  0  0
   19.7560   20.5385   22.7206 H   0  0  0  0  0  0  0  0  0  0  0  0
   20.2252   19.3826   21.4809 H   0  0  0  0  0  0  0  0  0  0  0  0
   18.2410   19.0474   22.3170 C   0  0  0  0  0  0  0  0  0  0  0  0
   17.7543   19.0784   23.3021 H   0  0  0  0  0  0  0  0  0  0  0  0
   18.1738   18.0108   21.9609 H   0  0  0  0  0  0  0  0  0  0  0  0
   17.4727   19.9612   21.3380 C   0  0  0  0  0  0  0  0  0  0  0  0
   17.4789   21.0038   21.6818 H   0  0  0  0  0  0  0  0  0  0  0  0
   16.4258   19.6425   21.2507 H   0  0  0  0  0  0  0  0  0  0  0  0
   17.9188   19.9292   20.3354 H   0  0  0  0  0  0  0  0  0  0  0  0
  1  2  1  0  0  0  0
  1  3  1  0  0  0  0
  1  4  1  0  0  0  0
  1  5  1  0  0  0  0
  5  6  1  0  0  0  0
  5  7  1  0  0  0  0
  7  8  1  0  0  0  0
  7  9  1  0  0  0  0
  7 10  1  0  0  0  0
  5 11  1  0  0  0  0
 11 12  1  0  0  0  0
 11 13  1  0  0  0  0
 11 14  1  0  0  0  0
 14 15  1  0  0  0  0
 14 16  1  0  0  0  0
 14 17  1  0  0  0  0
 17 18  1  0  0  0  0
 17 19  1  0  0  0  0
 17 20  1  0  0  0  0
M  END
> <VConfSearch Rank>
442

> <Conf_Id>
80

> <Delta U+W>
0.460

> <U+W>
-35.817

> <U>
22.495

> <W>
-58.311

> <W(PB)>
-60.259

> <W(SA)>
1.948

> <Valence>
2.419

> <Coulomb>
19.304

> <VdW>
0.772

> <VdW6>
-4.635

> <VdW12>
5.407

> <Bond>
0.149

> <Angle>
1.142

> <Pdih>
1.129

> <Idih>
0.000

> <Tether>
0.000

$$$$
VeraChem MOL file


 20 19  0  0  0  0  0  0  0  0999 V2000     
   20.6223   19.0905   20.4981 N   0  3  0  0  0  0  0  0  0  0  0  0
   20.7861   20.0709   20.2536 H   0  0  0  0  0  0  0  0  0  0  0  0
   19.7550   18.8010   20.0391 H   0  0  0  0  0  0  0  0  0  0  0  0
   21.3825   18.5446   20.0837 H   0  0  0  0  0  0  0  0  0  0  0  0
   20.5511   18.8933   21.9876 C   0  0  2  0  0  0  0  0  0  0  0  0
   21.5161   19.2214   22.3864 H   0  0  0  0  0  0  0  0  0  0  0  0
   20.3793   17.4011   22.3195 C   0  0  0  0  0  0  0  0  0  0  0  0
   21.1259   16.7977   21.7888 H   0  0  0  0  0  0  0  0  0  0  0  0
   19.3836   17.0413   22.0322 H   0  0  0  0  0  0  0  0  0  0  0  0
   20.5212   17.2183   23.3906 H   0  0  0  0  0  0  0  0  0  0  0  0
   19.4466   19.7798   22.6134 C   0  0  0  0  0  0  0  0  0  0  0  0
   19.6325   20.8132   22.2922 H   0  0  0  0  0  0  0  0  0  0  0  0
   18.4652   19.5112   22.2005 H   0  0  0  0  0  0  0  0  0  0  0  0
   19.3976   19.7691   24.1642 C   0  0  0  0  0  0  0  0  0  0  0  0
   19.1421   20.7794   24.5136 H   0  0  0  0  0  0  0  0  0  0  0  0
   20.3928   19.5511   24.5766 H   0  0  0  0  0  0  0  0  0  0  0  0
   18.3492   18.7879   24.7396 C   0  0  0  0  0  0  0  0  0  0  0  0
   17.3399   19.0449   24.3924 H   0  0  0  0  0  0  0  0  0  0  0  0
   18.3439   18.8314   25.8365 H   0  0  0  0  0  0  0  0  0  0  0  0
   18.5509   17.7507   24.4500 H   0  0  0  0  0  0  0  0  0  0  0  0
  1  2  1  0  0  0  0
  1  3  1  0  0  0  0
  1  4  1  0  0  0  0
  1  5  1  0  0  0  0
  5  6  1  0  0  0  0
  5  7  1  0  0  0  0
  7  8  1  0  0  0  0
  7  9  1  0  0  0  0
  7 10  1  0  0  0  0
  5 11  1  0  0  0  0
 11 12  1  0  0  0  0
 11 13  1  0  0  0  0
 11 14  1  0  0  0  0
 14 15  1  0  0  0  0
 14 16  1  0  0  0  0
 14 17  1  0  0  0  0
 17 18  1  0  0  0  0
 17 19  1  0  0  0  0
 17 20  1  0  0  0  0
M  END
> <VConfSearch Rank>
443

> <Conf_Id>
52

> <Delta U+W>
2.995

> <U+W>
-33.282

> <U>
25.224

> <W>
-58.506

> <W(PB)>
-60.411

> <W(SA)>
1.905

> <Valence>
4.945

> <Coulomb>
19.467

> <VdW>
0.813

> <VdW6>
-5.458

> <VdW12>
6.270

> <Bond>
0.200

> <Angle>
1.675

> <Pdih>
3.070

> <Idih>
0.000

> <Tether>
0.000

$$$$
VeraChem MOL file


 20 19  0  0  0  0  0  0  0  0999 V2000     
   19.8299   19.8231   21.3381 N   0  3  0  0  0  0  0  0  0  0  0  0
   20.0026   20.7949   21.6068 H   0  0  0  0  0  0  0  0  0  0  0  0
   19.4376   19.8321   20.3928 H   0  0  0  0  0  0  0  0  0  0  0  0
   20.7364   19.3529   21.2920 H   0  0  0  0  0  0  0  0  0  0  0  0
   18.9092   19.1400   22.3122 C   0  0  2  0  0  0  0  0  0  0  0  0
   18.7342   18.1278   21.9346 H   0  0  0  0  0  0  0  0  0  0  0  0
   17.5595   19.8761   22.3580 C   0  0  0  0  0  0  0  0  0  0  0  0
   17.6761   20.8957   22.7462 H   0  0  0  0  0  0  0  0  0  0  0  0
   16.8460   19.3452   23.0005 H   0  0  0  0  0  0  0  0  0  0  0  0
   17.1174   19.9402   21.3561 H   0  0  0  0  0  0  0  0  0  0  0  0
   19.5128   19.0312   23.7328 C   0  0  0  0  0  0  0  0  0  0  0  0
   19.9328   19.9992   24.0363 H   0  0  0  0  0  0  0  0  0  0  0  0
   18.7016   18.8208   24.4425 H   0  0  0  0  0  0  0  0  0  0  0  0
   20.5725   17.9114   23.9051 C   0  0  0  0  0  0  0  0  0  0  0  0
   20.1300   16.9396   23.6444 H   0  0  0  0  0  0  0  0  0  0  0  0
   20.8335   17.8484   24.9709 H   0  0  0  0  0  0  0  0  0  0  0  0
   21.8738   18.1189   23.0972 C   0  0  0  0  0  0  0  0  0  0  0  0
   22.6405   17.4042   23.4240 H   0  0  0  0  0  0  0  0  0  0  0  0
   22.2781   19.1291   23.2433 H   0  0  0  0  0  0  0  0  0  0  0  0
   21.7160   17.9494   22.0259 H   0  0  0  0  0  0  0  0  0  0  0  0
  1  2  1  0  0  0  0
  1  3  1  0  0  0  0
  1  4  1  0  0  0  0
  1  5  1  0  0  0  0
  5  6  1  0  0  0  0
  5  7  1  0  0  0  0
  7  8  1  0  0  0  0
  7  9  1  0  0  0  0
  7 10  1  0  0  0  0
  5 11  1  0  0  0  0
 11 12  1  0  0  0  0
 11 13  1  0  0  0  0
 11 14  1  0  0  0  0
 14 15  1  0  0  0  0
 14 16  1  0  0  0  0
 14 17  1  0  0  0  0
 17 18  1  0  0  0  0
 17 19  1  0  0  0  0
 17 20  1  0  0  0  0
M  END
> <VConfSearch Rank>
444

> <Conf_Id>
54

> <Delta U+W>
2.752

> <U+W>
-33.525

> <U>
24.337

> <W>
-57.862

> <W(PB)>
-59.764

> <W(SA)>
1.901

> <Valence>
3.593

> <Coulomb>
20.067

> <VdW>
0.677

> <VdW6>
-5.466

> <VdW12>
6.144

> <Bond>
0.191

> <Angle>
1.557

> <Pdih>
1.845

> <Idih>
0.000

> <Tether>
0.000

$$$$
VeraChem MOL file


 20 19  0  0  0  0  0  0  0  0999 V2000     
   19.0764   19.5654   24.5496 N   0  3  0  0  0  0  0  0  0  0  0  0
   19.3657   19.9224   25.4643 H   0  0  0  0  0  0  0  0  0  0  0  0
   18.2224   19.0198   24.6928 H   0  0  0  0  0  0  0  0  0  0  0  0
   18.8324   20.3719   23.9704 H   0  0  0  0  0  0  0  0  0  0  0  0
   20.1607   18.7390   23.9130 C   0  0  2  0  0  0  0  0  0  0  0  0
   20.3630   17.9180   24.6081 H   0  0  0  0  0  0  0  0  0  0  0  0
   21.4597   19.5510   23.7643 C   0  0  0  0  0  0  0  0  0  0  0  0
   22.2470   18.9457   23.2983 H   0  0  0  0  0  0  0  0  0  0  0  0
   21.8259   19.8721   24.7471 H   0  0  0  0  0  0  0  0  0  0  0  0
   21.3096   20.4492   23.1537 H   0  0  0  0  0  0  0  0  0  0  0  0
   19.7141   18.1053   22.5736 C   0  0  0  0  0  0  0  0  0  0  0  0
   20.5144   17.4470   22.2105 H   0  0  0  0  0  0  0  0  0  0  0  0
   18.8529   17.4528   22.7686 H   0  0  0  0  0  0  0  0  0  0  0  0
   19.3419   19.1197   21.4615 C   0  0  0  0  0  0  0  0  0  0  0  0
   20.2078   19.7487   21.2154 H   0  0  0  0  0  0  0  0  0  0  0  0
   18.5481   19.7928   21.8122 H   0  0  0  0  0  0  0  0  0  0  0  0
   18.8644   18.4045   20.1794 C   0  0  0  0  0  0  0  0  0  0  0  0
   18.6068   19.1346   19.4011 H   0  0  0  0  0  0  0  0  0  0  0  0
   17.9735   17.7938   20.3756 H   0  0  0  0  0  0  0  0  0  0  0  0
   19.6474   17.7477   19.7784 H   0  0  0  0  0  0  0  0  0  0  0  0
  1  2  1  0  0  0  0
  1  3  1  0  0  0  0
  1  4  1  0  0  0  0
  1  5  1  0  0  0  0
  5  6  1  0  0  0  0
  5  7  1  0  0  0  0
  7  8  1  0  0  0  0
  7  9  1  0  0  0  0
  7 10  1  0  0  0  0
  5 11  1  0  0  0  0
 11 12  1  0  0  0  0
 11 13  1  0  0  0  0
 11 14  1  0  0  0  0
 14 15  1  0  0  0  0
 14 16  1  0  0  0  0
 14 17  1  0  0  0  0
 17 18  1  0  0  0  0
 17 19  1  0  0  0  0
 17 20  1  0  0  0  0
M  END
> <VConfSearch Rank>
445

> <Conf_Id>
63

> <Delta U+W>
0.420

> <U+W>
-35.856

> <U>
22.625

> <W>
-58.481

> <W(PB)>
-60.400

> <W(SA)>
1.919

> <Valence>
2.404

> <Coulomb>
19.464

> <VdW>
0.757

> <VdW6>
-5.074

> <VdW12>
5.830

> <Bond>
0.172

> <Angle>
1.207

> <Pdih>
1.025

> <Idih>
0.000

> <Tether>
0.000

$$$$
VeraChem MOL file


 20 19  0  0  0  0  0  0  0  0999 V2000     
   20.9082   20.2386   22.9982 N   0  3  0  0  0  0  0  0  0  0  0  0
   21.5469   19.4573   23.1666 H   0  0  0  0  0  0  0  0  0  0  0  0
   20.7612   20.7145   23.8917 H   0  0  0  0  0  0  0  0  0  0  0  0
   21.3866   20.8961   22.3765 H   0  0  0  0  0  0  0  0  0  0  0  0
   19.6087   19.7646   22.4058 C   0  0  2  0  0  0  0  0  0  0  0  0
   19.8547   19.2742   21.4592 H   0  0  0  0  0  0  0  0  0  0  0  0
   18.6844   20.9548   22.1016 C   0  0  0  0  0  0  0  0  0  0  0  0
   19.1767   21.6667   21.4277 H   0  0  0  0  0  0  0  0  0  0  0  0
   18.4081   21.4885   23.0196 H   0  0  0  0  0  0  0  0  0  0  0  0
   17.7624   20.6171   21.6122 H   0  0  0  0  0  0  0  0  0  0  0  0
   18.8864   18.7395   23.3093 C   0  0  0  0  0  0  0  0  0  0  0  0
   18.6161   19.2184   24.2598 H   0  0  0  0  0  0  0  0  0  0  0  0
   17.9407   18.4478   22.8333 H   0  0  0  0  0  0  0  0  0  0  0  0
   19.7102   17.4600   23.6026 C   0  0  0  0  0  0  0  0  0  0  0  0
   19.1173   16.8001   24.2515 H   0  0  0  0  0  0  0  0  0  0  0  0
   20.6136   17.7123   24.1742 H   0  0  0  0  0  0  0  0  0  0  0  0
   20.1015   16.6848   22.3238 C   0  0  0  0  0  0  0  0  0  0  0  0
   19.2132   16.4210   21.7351 H   0  0  0  0  0  0  0  0  0  0  0  0
   20.6198   15.7524   22.5829 H   0  0  0  0  0  0  0  0  0  0  0  0
   20.7745   17.2705   21.6851 H   0  0  0  0  0  0  0  0  0  0  0  0
  1  2  1  0  0  0  0
  1  3  1  0  0  0  0
  1  4  1  0  0  0  0
  1  5  1  0  0  0  0
  5  6  1  0  0  0  0
  5  7  1  0  0  0  0
  7  8  1  0  0  0  0
  7  9  1  0  0  0  0
  7 10  1  0  0  0  0
  5 11  1  0  0  0  0
 11 12  1  0  0  0  0
 11 13  1  0  0  0  0
 11 14  1  0  0  0  0
 14 15  1  0  0  0  0
 14 16  1  0  0  0  0
 14 17  1  0  0  0  0
 17 18  1  0  0  0  0
 17 19  1  0  0  0  0
 17 20  1  0  0  0  0
M  END
> <VConfSearch Rank>
446

> <Conf_Id>
50

> <Delta U+W>
0.466

> <U+W>
-35.811

> <U>
22.369

> <W>
-58.180

> <W(PB)>
-60.103

> <W(SA)>
1.923

> <Valence>
2.168

> <Coulomb>
19.636

> <VdW>
0.566

> <VdW6>
-5.263

> <VdW12>
5.829

> <Bond>
0.162

> <Angle>
1.066

> <Pdih>
0.939

> <Idih>
0.000

> <Tether>
0.000

$$$$
VeraChem MOL file


 20 19  0  0  0  0  0  0  0  0999 V2000     
   19.9676   21.1387   23.2298 N   0  3  0  0  0  0  0  0  0  0  0  0
   20.6624   21.4625   22.5512 H   0  0  0  0  0  0  0  0  0  0  0  0
   20.3948   21.1958   24.1578 H   0  0  0  0  0  0  0  0  0  0  0  0
   19.1921   21.8066   23.2102 H   0  0  0  0  0  0  0  0  0  0  0  0
   19.4995   19.7421   22.9216 C   0  0  2  0  0  0  0  0  0  0  0  0
   19.0651   19.7809   21.9178 H   0  0  0  0  0  0  0  0  0  0  0  0
   18.4031   19.3221   23.9182 C   0  0  0  0  0  0  0  0  0  0  0  0
   18.7851   19.3160   24.9467 H   0  0  0  0  0  0  0  0  0  0  0  0
   18.0192   18.3204   23.6964 H   0  0  0  0  0  0  0  0  0  0  0  0
   17.5557   20.0173   23.8759 H   0  0  0  0  0  0  0  0  0  0  0  0
   20.6721   18.7308   22.9003 C   0  0  0  0  0  0  0  0  0  0  0  0
   21.6188   19.2800   22.8112 H   0  0  0  0  0  0  0  0  0  0  0  0
   20.7318   18.1925   23.8556 H   0  0  0  0  0  0  0  0  0  0  0  0
   20.6109   17.7237   21.7240 C   0  0  0  0  0  0  0  0  0  0  0  0
   21.5175   17.1027   21.7463 H   0  0  0  0  0  0  0  0  0  0  0  0
   20.6391   18.2702   20.7707 H   0  0  0  0  0  0  0  0  0  0  0  0
   19.3743   16.7984   21.7476 C   0  0  0  0  0  0  0  0  0  0  0  0
   19.2937   16.2689   22.7059 H   0  0  0  0  0  0  0  0  0  0  0  0
   19.4449   16.0438   20.9535 H   0  0  0  0  0  0  0  0  0  0  0  0
   18.4481   17.3626   21.5817 H   0  0  0  0  0  0  0  0  0  0  0  0
  1  2  1  0  0  0  0
  1  3  1  0  0  0  0
  1  4  1  0  0  0  0
  1  5  1  0  0  0  0
  5  6  1  0  0  0  0
  5  7  1  0  0  0  0
  7  8  1  0  0  0  0
  7  9  1  0  0  0  0
  7 10  1  0  0  0  0
  5 11  1  0  0  0  0
 11 12  1  0  0  0  0
 11 13  1  0  0  0  0
 11 14  1  0  0  0  0
 14 15  1  0  0  0  0
 14 16  1  0  0  0  0
 14 17  1  0  0  0  0
 17 18  1  0  0  0  0
 17 19  1  0  0  0  0
 17 20  1  0  0  0  0
M  END
> <VConfSearch Rank>
447

> <Conf_Id>
3

> <Delta U+W>
3.093

> <U+W>
-33.184

> <U>
25.256

> <W>
-58.439

> <W(PB)>
-60.337

> <W(SA)>
1.898

> <Valence>
4.963

> <Coulomb>
19.511

> <VdW>
0.782

> <VdW6>
-5.429

> <VdW12>
6.211

> <Bond>
0.174

> <Angle>
1.377

> <Pdih>
3.412

> <Idih>
0.000

> <Tether>
0.000

$$$$
VeraChem MOL file


 20 19  0  0  0  0  0  0  0  0999 V2000     
   17.4599   18.8952   23.2997 N   0  3  0  0  0  0  0  0  0  0  0  0
   16.8446   18.1109   23.0674 H   0  0  0  0  0  0  0  0  0  0  0  0
   17.0860   19.7229   22.8275 H   0  0  0  0  0  0  0  0  0  0  0  0
   17.3810   19.0554   24.3071 H   0  0  0  0  0  0  0  0  0  0  0  0
   18.8817   18.6190   22.8937 C   0  0  2  0  0  0  0  0  0  0  0  0
   18.8657   18.4582   21.8116 H   0  0  0  0  0  0  0  0  0  0  0  0
   19.3911   17.3327   23.5690 C   0  0  0  0  0  0  0  0  0  0  0  0
   20.3726   17.0404   23.1783 H   0  0  0  0  0  0  0  0  0  0  0  0
   18.7048   16.4984   23.3791 H   0  0  0  0  0  0  0  0  0  0  0  0
   19.4776   17.4618   24.6550 H   0  0  0  0  0  0  0  0  0  0  0  0
   19.7948   19.8323   23.1913 C   0  0  0  0  0  0  0  0  0  0  0  0
   19.3394   20.7304   22.7536 H   0  0  0  0  0  0  0  0  0  0  0  0
   19.8276   20.0052   24.2752 H   0  0  0  0  0  0  0  0  0  0  0  0
   21.2437   19.7093   22.6542 C   0  0  0  0  0  0  0  0  0  0  0  0
   21.7749   18.8988   23.1712 H   0  0  0  0  0  0  0  0  0  0  0  0
   21.7897   20.6306   22.9008 H   0  0  0  0  0  0  0  0  0  0  0  0
   21.3064   19.4838   21.1264 C   0  0  0  0  0  0  0  0  0  0  0  0
   20.7788   20.2815   20.5874 H   0  0  0  0  0  0  0  0  0  0  0  0
   20.8593   18.5230   20.8418 H   0  0  0  0  0  0  0  0  0  0  0  0
   22.3484   19.4787   20.7808 H   0  0  0  0  0  0  0  0  0  0  0  0
  1  2  1  0  0  0  0
  1  3  1  0  0  0  0
  1  4  1  0  0  0  0
  1  5  1  0  0  0  0
  5  6  1  0  0  0  0
  5  7  1  0  0  0  0
  7  8  1  0  0  0  0
  7  9  1  0  0  0  0
  7 10  1  0  0  0  0
  5 11  1  0  0  0  0
 11 12  1  0  0  0  0
 11 13  1  0  0  0  0
 11 14  1  0  0  0  0
 14 15  1  0  0  0  0
 14 16  1  0  0  0  0
 14 17  1  0  0  0  0
 17 18  1  0  0  0  0
 17 19  1  0  0  0  0
 17 20  1  0  0  0  0
M  END
> <VConfSearch Rank>
448

> <Conf_Id>
64

> <Delta U+W>
0.544

> <U+W>
-35.732

> <U>
22.800

> <W>
-58.532

> <W(PB)>
-60.437

> <W(SA)>
1.905

> <Valence>
2.662

> <Coulomb>
19.485

> <VdW>
0.653

> <VdW6>
-5.460

> <VdW12>
6.113

> <Bond>
0.174

> <Angle>
1.378

> <Pdih>
1.109

> <Idih>
0.000

> <Tether>
0.000

$$$$
VeraChem MOL file


 20 19  0  0  0  0  0  0  0  0999 V2000     
   19.4165   17.0774   21.7342 N   0  3  0  0  0  0  0  0  0  0  0  0
   20.1245   17.4950   21.1262 H   0  0  0  0  0  0  0  0  0  0  0  0
   18.6652   16.7280   21.1333 H   0  0  0  0  0  0  0  0  0  0  0  0
   19.8427   16.2661   22.1900 H   0  0  0  0  0  0  0  0  0  0  0  0
   18.8997   18.0699   22.7406 C   0  0  2  0  0  0  0  0  0  0  0  0
   18.1476   17.5351   23.3291 H   0  0  0  0  0  0  0  0  0  0  0  0
   18.1887   19.2400   22.0412 C   0  0  0  0  0  0  0  0  0  0  0  0
   18.8509   19.7430   21.3270 H   0  0  0  0  0  0  0  0  0  0  0  0
   17.8382   19.9781   22.7730 H   0  0  0  0  0  0  0  0  0  0  0  0
   17.3134   18.8798   21.4870 H   0  0  0  0  0  0  0  0  0  0  0  0
   19.9993   18.5345   23.7285 C   0  0  0  0  0  0  0  0  0  0  0  0
   19.5389   19.1135   24.5398 H   0  0  0  0  0  0  0  0  0  0  0  0
   20.4070   17.6366   24.2112 H   0  0  0  0  0  0  0  0  0  0  0  0
   21.1807   19.3358   23.1141 C   0  0  0  0  0  0  0  0  0  0  0  0
   21.3736   19.0190   22.0807 H   0  0  0  0  0  0  0  0  0  0  0  0
   22.0931   19.0926   23.6765 H   0  0  0  0  0  0  0  0  0  0  0  0
   20.9847   20.8690   23.1732 C   0  0  0  0  0  0  0  0  0  0  0  0
   20.1142   21.1974   22.5948 H   0  0  0  0  0  0  0  0  0  0  0  0
   21.8647   21.3838   22.7664 H   0  0  0  0  0  0  0  0  0  0  0  0
   20.8510   21.2085   24.2085 H   0  0  0  0  0  0  0  0  0  0  0  0
  1  2  1  0  0  0  0
  1  3  1  0  0  0  0
  1  4  1  0  0  0  0
  1  5  1  0  0  0  0
  5  6  1  0  0  0  0
  5  7  1  0  0  0  0
  7  8  1  0  0  0  0
  7  9  1  0  0  0  0
  7 10  1  0  0  0  0
  5 11  1  0  0  0  0
 11 12  1  0  0  0  0
 11 13  1  0  0  0  0
 11 14  1  0  0  0  0
 14 15  1  0  0  0  0
 14 16  1  0  0  0  0
 14 17  1  0  0  0  0
 17 18  1  0  0  0  0
 17 19  1  0  0  0  0
 17 20  1  0  0  0  0
M  END
> <VConfSearch Rank>
449

> <Conf_Id>
35

> <Delta U+W>
3.004

> <U+W>
-33.272

> <U>
25.367

> <W>
-58.639

> <W(PB)>
-60.512

> <W(SA)>
1.873

> <Valence>
4.943

> <Coulomb>
19.661

> <VdW>
0.764

> <VdW6>
-5.871

> <VdW12>
6.636

> <Bond>
0.230

> <Angle>
1.857

> <Pdih>
2.855

> <Idih>
0.000

> <Tether>
0.000

$$$$
VeraChem MOL file


 20 19  0  0  0  0  0  0  0  0999 V2000     
   19.6686   20.6529   23.2683 N   0  3  0  0  0  0  0  0  0  0  0  0
   19.5296   21.1533   24.1503 H   0  0  0  0  0  0  0  0  0  0  0  0
   19.4503   21.3052   22.5104 H   0  0  0  0  0  0  0  0  0  0  0  0
   20.6612   20.4214   23.1964 H   0  0  0  0  0  0  0  0  0  0  0  0
   18.8145   19.4170   23.1943 C   0  0  2  0  0  0  0  0  0  0  0  0
   17.7819   19.7750   23.2538 H   0  0  0  0  0  0  0  0  0  0  0  0
   19.0509   18.4977   24.4058 C   0  0  0  0  0  0  0  0  0  0  0  0
   20.0957   18.1707   24.4682 H   0  0  0  0  0  0  0  0  0  0  0  0
   18.4139   17.6065   24.3478 H   0  0  0  0  0  0  0  0  0  0  0  0
   18.8070   19.0207   25.3384 H   0  0  0  0  0  0  0  0  0  0  0  0
   18.9509   18.6644   21.8459 C   0  0  0  0  0  0  0  0  0  0  0  0
   18.0913   17.9874   21.7547 H   0  0  0  0  0  0  0  0  0  0  0  0
   18.8422   19.3844   21.0244 H   0  0  0  0  0  0  0  0  0  0  0  0
   20.2410   17.8257   21.6248 C   0  0  0  0  0  0  0  0  0  0  0  0
   20.1577   17.3261   20.6494 H   0  0  0  0  0  0  0  0  0  0  0  0
   20.3011   17.0167   22.3655 H   0  0  0  0  0  0  0  0  0  0  0  0
   21.5527   18.6431   21.6401 C   0  0  0  0  0  0  0  0  0  0  0  0
   21.4893   19.5107   20.9705 H   0  0  0  0  0  0  0  0  0  0  0  0
   22.3914   18.0216   21.3003 H   0  0  0  0  0  0  0  0  0  0  0  0
   21.7996   18.9913   22.6496 H   0  0  0  0  0  0  0  0  0  0  0  0
  1  2  1  0  0  0  0
  1  3  1  0  0  0  0
  1  4  1  0  0  0  0
  1  5  1  0  0  0  0
  5  6  1  0  0  0  0
  5  7  1  0  0  0  0
  7  8  1  0  0  0  0
  7  9  1  0  0  0  0
  7 10  1  0  0  0  0
  5 11  1  0  0  0  0
 11 12  1  0  0  0  0
 11 13  1  0  0  0  0
 11 14  1  0  0  0  0
 14 15  1  0  0  0  0
 14 16  1  0  0  0  0
 14 17  1  0  0  0  0
 17 18  1  0  0  0  0
 17 19  1  0  0  0  0
 17 20  1  0  0  0  0
M  END
> <VConfSearch Rank>
450

> <Conf_Id>
55

> <Delta U+W>
2.767

> <U+W>
-33.509

> <U>
24.552

> <W>
-58.061

> <W(PB)>
-59.930

> <W(SA)>
1.869

> <Valence>
3.726

> <Coulomb>
20.219

> <VdW>
0.606

> <VdW6>
-6.395

> <VdW12>
7.001

> <Bond>
0.241

> <Angle>
2.098

> <Pdih>
1.387

> <Idih>
0.000

> <Tether>
0.000

$$$$
VeraChem MOL file


 20 19  0  0  0  0  0  0  0  0999 V2000     
   18.2603   17.9385   23.5224 N   0  3  0  0  0  0  0  0  0  0  0  0
   18.7639   17.5930   24.3431 H   0  0  0  0  0  0  0  0  0  0  0  0
   17.4876   17.2915   23.3438 H   0  0  0  0  0  0  0  0  0  0  0  0
   17.8489   18.8415   23.7715 H   0  0  0  0  0  0  0  0  0  0  0  0
   19.1678   18.0558   22.3275 C   0  0  2  0  0  0  0  0  0  0  0  0
   18.5551   18.4326   21.5026 H   0  0  0  0  0  0  0  0  0  0  0  0
   19.7161   16.6760   21.9283 C   0  0  0  0  0  0  0  0  0  0  0  0
   18.8962   15.9761   21.7252 H   0  0  0  0  0  0  0  0  0  0  0  0
   20.3394   16.2503   22.7247 H   0  0  0  0  0  0  0  0  0  0  0  0
   20.3254   16.7465   21.0187 H   0  0  0  0  0  0  0  0  0  0  0  0
   20.3287   19.0483   22.5590 C   0  0  0  0  0  0  0  0  0  0  0  0
   20.9468   18.7049   23.3992 H   0  0  0  0  0  0  0  0  0  0  0  0
   20.9773   19.0476   21.6728 H   0  0  0  0  0  0  0  0  0  0  0  0
   19.8454   20.4949   22.8221 C   0  0  0  0  0  0  0  0  0  0  0  0
   19.2394   20.5324   23.7374 H   0  0  0  0  0  0  0  0  0  0  0  0
   19.1975   20.8246   21.9976 H   0  0  0  0  0  0  0  0  0  0  0  0
   21.0300   21.4746   22.9642 C   0  0  0  0  0  0  0  0  0  0  0  0
   21.6808   21.1888   23.8009 H   0  0  0  0  0  0  0  0  0  0  0  0
   20.6695   22.4944   23.1515 H   0  0  0  0  0  0  0  0  0  0  0  0
   21.6379   21.4956   22.0502 H   0  0  0  0  0  0  0  0  0  0  0  0
  1  2  1  0  0  0  0
  1  3  1  0  0  0  0
  1  4  1  0  0  0  0
  1  5  1  0  0  0  0
  5  6  1  0  0  0  0
  5  7  1  0  0  0  0
  7  8  1  0  0  0  0
  7  9  1  0  0  0  0
  7 10  1  0  0  0  0
  5 11  1  0  0  0  0
 11 12  1  0  0  0  0
 11 13  1  0  0  0  0
 11 14  1  0  0  0  0
 14 15  1  0  0  0  0
 14 16  1  0  0  0  0
 14 17  1  0  0  0  0
 17 18  1  0  0  0  0
 17 19  1  0  0  0  0
 17 20  1  0  0  0  0
M  END
> <VConfSearch Rank>
451

> <Conf_Id>
74

> <Delta U+W>
0.000

> <U+W>
-36.276

> <U>
22.080

> <W>
-58.356

> <W(PB)>
-60.289

> <W(SA)>
1.932

> <Valence>
1.885

> <Coulomb>
19.559

> <VdW>
0.637

> <VdW6>
-4.482

> <VdW12>
5.119

> <Bond>
0.136

> <Angle>
0.867

> <Pdih>
0.882

> <Idih>
0.000

> <Tether>
0.000

$$$$
VeraChem MOL file


 20 19  0  0  0  0  0  0  0  0999 V2000     
   18.7828   20.9754   21.9245 N   0  3  0  0  0  0  0  0  0  0  0  0
   19.2141   21.6644   22.5466 H   0  0  0  0  0  0  0  0  0  0  0  0
   17.8258   20.8230   22.2527 H   0  0  0  0  0  0  0  0  0  0  0  0
   18.7216   21.4028   20.9965 H   0  0  0  0  0  0  0  0  0  0  0  0
   19.5659   19.6917   21.8891 C   0  0  2  0  0  0  0  0  0  0  0  0
   20.5656   19.9506   21.5266 H   0  0  0  0  0  0  0  0  0  0  0  0
   18.9285   18.7047   20.8939 C   0  0  0  0  0  0  0  0  0  0  0  0
   18.7931   19.1779   19.9137 H   0  0  0  0  0  0  0  0  0  0  0  0
   17.9466   18.3645   21.2456 H   0  0  0  0  0  0  0  0  0  0  0  0
   19.5635   17.8243   20.7425 H   0  0  0  0  0  0  0  0  0  0  0  0
   19.7072   19.0834   23.3039 C   0  0  0  0  0  0  0  0  0  0  0  0
   20.0637   19.8674   23.9850 H   0  0  0  0  0  0  0  0  0  0  0  0
   18.7203   18.7756   23.6743 H   0  0  0  0  0  0  0  0  0  0  0  0
   20.6877   17.8874   23.3755 C   0  0  0  0  0  0  0  0  0  0  0  0
   21.6574   18.1768   22.9465 H   0  0  0  0  0  0  0  0  0  0  0  0
   20.3109   17.0490   22.7745 H   0  0  0  0  0  0  0  0  0  0  0  0
   20.8941   17.4060   24.8278 C   0  0  0  0  0  0  0  0  0  0  0  0
   21.3121   18.2049   25.4541 H   0  0  0  0  0  0  0  0  0  0  0  0
   21.5883   16.5562   24.8597 H   0  0  0  0  0  0  0  0  0  0  0  0
   19.9452   17.0822   25.2751 H   0  0  0  0  0  0  0  0  0  0  0  0
  1  2  1  0  0  0  0
  1  3  1  0  0  0  0
  1  4  1  0  0  0  0
  1  5  1  0  0  0  0
  5  6  1  0  0  0  0
  5  7  1  0  0  0  0
  7  8  1  0  0  0  0
  7  9  1  0  0  0  0
  7 10  1  0  0  0  0
  5 11  1  0  0  0  0
 11 12  1  0  0  0  0
 11 13  1  0  0  0  0
 11 14  1  0  0  0  0
 14 15  1  0  0  0  0
 14 16  1  0  0  0  0
 14 17  1  0  0  0  0
 17 18  1  0  0  0  0
 17 19  1  0  0  0  0
 17 20  1  0  0  0  0
M  END
> <VConfSearch Rank>
452

> <Conf_Id>
80

> <Delta U+W>
0.460

> <U+W>
-35.817

> <U>
22.495

> <W>
-58.311

> <W(PB)>
-60.259

> <W(SA)>
1.948

> <Valence>
2.419

> <Coulomb>
19.304

> <VdW>
0.772

> <VdW6>
-4.635

> <VdW12>
5.407

> <Bond>
0.149

> <Angle>
1.142

> <Pdih>
1.129

> <Idih>
0.000

> <Tether>
0.000

$$$$
VeraChem MOL file


 20 19  0  0  0  0  0  0  0  0999 V2000     
   18.4946   20.8100   22.0383 N   0  3  0  0  0  0  0  0  0  0  0  0
   18.5217   21.5447   22.7506 H   0  0  0  0  0  0  0  0  0  0  0  0
   17.5841   20.3489   22.1080 H   0  0  0  0  0  0  0  0  0  0  0  0
   18.5324   21.2723   21.1258 H   0  0  0  0  0  0  0  0  0  0  0  0
   19.6239   19.8306   22.2065 C   0  0  2  0  0  0  0  0  0  0  0  0
   20.5479   20.4094   22.1113 H   0  0  0  0  0  0  0  0  0  0  0  0
   19.5955   18.7864   21.0773 C   0  0  0  0  0  0  0  0  0  0  0  0
   19.5244   19.2760   20.0984 H   0  0  0  0  0  0  0  0  0  0  0  0
   18.7390   18.1090   21.1827 H   0  0  0  0  0  0  0  0  0  0  0  0
   20.5144   18.1893   21.0716 H   0  0  0  0  0  0  0  0  0  0  0  0
   19.6004   19.1923   23.6169 C   0  0  0  0  0  0  0  0  0  0  0  0
   19.5856   20.0110   24.3486 H   0  0  0  0  0  0  0  0  0  0  0  0
   18.6632   18.6404   23.7680 H   0  0  0  0  0  0  0  0  0  0  0  0
   20.8161   18.2864   23.9469 C   0  0  0  0  0  0  0  0  0  0  0  0
   21.0802   18.4261   25.0046 H   0  0  0  0  0  0  0  0  0  0  0  0
   21.6972   18.6050   23.3723 H   0  0  0  0  0  0  0  0  0  0  0  0
   20.5406   16.7811   23.7207 C   0  0  0  0  0  0  0  0  0  0  0  0
   19.7088   16.4362   24.3486 H   0  0  0  0  0  0  0  0  0  0  0  0
   21.4242   16.1852   23.9838 H   0  0  0  0  0  0  0  0  0  0  0  0
   20.2896   16.5589   22.6776 H   0  0  0  0  0  0  0  0  0  0  0  0
  1  2  1  0  0  0  0
  1  3  1  0  0  0  0
  1  4  1  0  0  0  0
  1  5  1  0  0  0  0
  5  6  1  0  0  0  0
  5  7  1  0  0  0  0
  7  8  1  0  0  0  0
  7  9  1  0  0  0  0
  7 10  1  0  0  0  0
  5 11  1  0  0  0  0
 11 12  1  0  0  0  0
 11 13  1  0  0  0  0
 11 14  1  0  0  0  0
 14 15  1  0  0  0  0
 14 16  1  0  0  0  0
 14 17  1  0  0  0  0
 17 18  1  0  0  0  0
 17 19  1  0  0  0  0
 17 20  1  0  0  0  0
M  END
> <VConfSearch Rank>
453

> <Conf_Id>
52

> <Delta U+W>
2.995

> <U+W>
-33.282

> <U>
25.224

> <W>
-58.506

> <W(PB)>
-60.411

> <W(SA)>
1.905

> <Valence>
4.945

> <Coulomb>
19.467

> <VdW>
0.813

> <VdW6>
-5.458

> <VdW12>
6.270

> <Bond>
0.200

> <Angle>
1.675

> <Pdih>
3.070

> <Idih>
0.000

> <Tether>
0.000

$$$$
VeraChem MOL file


 20 19  0  0  0  0  0  0  0  0999 V2000     
   20.7557   18.4288   21.6096 N   0  3  0  0  0  0  0  0  0  0  0  0
   21.6582   18.8665   21.8103 H   0  0  0  0  0  0  0  0  0  0  0  0
   20.7744   18.1226   20.6331 H   0  0  0  0  0  0  0  0  0  0  0  0
   20.6843   17.5932   22.1941 H   0  0  0  0  0  0  0  0  0  0  0  0
   19.6166   19.3763   21.8700 C   0  0  2  0  0  0  0  0  0  0  0  0
   18.6950   18.8575   21.5884 H   0  0  0  0  0  0  0  0  0  0  0  0
   19.7594   20.6210   20.9777 C   0  0  0  0  0  0  0  0  0  0  0  0
   20.6634   21.1891   21.2303 H   0  0  0  0  0  0  0  0  0  0  0  0
   18.8944   21.2861   21.0928 H   0  0  0  0  0  0  0  0  0  0  0  0
   19.8187   20.3365   19.9200 H   0  0  0  0  0  0  0  0  0  0  0  0
   19.5073   19.7885   23.3574 C   0  0  0  0  0  0  0  0  0  0  0  0
   20.4953   20.0773   23.7395 H   0  0  0  0  0  0  0  0  0  0  0  0
   18.8843   20.6903   23.4257 H   0  0  0  0  0  0  0  0  0  0  0  0
   18.8678   18.7203   24.2829 C   0  0  0  0  0  0  0  0  0  0  0  0
   17.8605   18.4715   23.9203 H   0  0  0  0  0  0  0  0  0  0  0  0
   18.7291   19.1678   25.2771 H   0  0  0  0  0  0  0  0  0  0  0  0
   19.6928   17.4231   24.4443 C   0  0  0  0  0  0  0  0  0  0  0  0
   19.2824   16.8122   25.2589 H   0  0  0  0  0  0  0  0  0  0  0  0
   20.7399   17.6435   24.6898 H   0  0  0  0  0  0  0  0  0  0  0  0
   19.6610   16.8082   23.5375 H   0  0  0  0  0  0  0  0  0  0  0  0
  1  2  1  0  0  0  0
  1  3  1  0  0  0  0
  1  4  1  0  0  0  0
  1  5  1  0  0  0  0
  5  6  1  0  0  0  0
  5  7  1  0  0  0  0
  7  8  1  0  0  0  0
  7  9  1  0  0  0  0
  7 10  1  0  0  0  0
  5 11  1  0  0  0  0
 11 12  1  0  0  0  0
 11 13  1  0  0  0  0
 11 14  1  0  0  0  0
 14 15  1  0  0  0  0
 14 16  1  0  0  0  0
 14 17  1  0  0  0  0
 17 18  1  0  0  0  0
 17 19  1  0  0  0  0
 17 20  1  0  0  0  0
M  END
> <VConfSearch Rank>
454

> <Conf_Id>
54

> <Delta U+W>
2.752

> <U+W>
-33.525

> <U>
24.337

> <W>
-57.862

> <W(PB)>
-59.764

> <W(SA)>
1.901

> <Valence>
3.593

> <Coulomb>
20.067

> <VdW>
0.677

> <VdW6>
-5.466

> <VdW12>
6.144

> <Bond>
0.191

> <Angle>
1.557

> <Pdih>
1.845

> <Idih>
0.000

> <Tether>
0.000

$$$$
VeraChem MOL file


 20 19  0  0  0  0  0  0  0  0999 V2000     
   21.4458   19.5292   23.7386 N   0  3  0  0  0  0  0  0  0  0  0  0
   22.1547   19.2176   24.4080 H   0  0  0  0  0  0  0  0  0  0  0  0
   21.3254   20.5370   23.8710 H   0  0  0  0  0  0  0  0  0  0  0  0
   21.8273   19.3857   22.8009 H   0  0  0  0  0  0  0  0  0  0  0  0
   20.1495   18.7882   23.9244 C   0  0  2  0  0  0  0  0  0  0  0  0
   19.8319   18.9871   24.9528 H   0  0  0  0  0  0  0  0  0  0  0  0
   20.3566   17.2691   23.7889 C   0  0  0  0  0  0  0  0  0  0  0  0
   19.4092   16.7327   23.9231 H   0  0  0  0  0  0  0  0  0  0  0  0
   21.0541   16.9074   24.5542 H   0  0  0  0  0  0  0  0  0  0  0  0
   20.7677   17.0011   22.8084 H   0  0  0  0  0  0  0  0  0  0  0  0
   19.0302   19.3084   22.9908 C   0  0  0  0  0  0  0  0  0  0  0  0
   18.0943   18.7906   23.2395 H   0  0  0  0  0  0  0  0  0  0  0  0
   18.8561   20.3689   23.2153 H   0  0  0  0  0  0  0  0  0  0  0  0
   19.3156   19.1497   21.4750 C   0  0  0  0  0  0  0  0  0  0  0  0
   19.4416   18.0888   21.2210 H   0  0  0  0  0  0  0  0  0  0  0  0
   20.2545   19.6546   21.2110 H   0  0  0  0  0  0  0  0  0  0  0  0
   18.1720   19.7352   20.6191 C   0  0  0  0  0  0  0  0  0  0  0  0
   18.3869   19.6137   19.5494 H   0  0  0  0  0  0  0  0  0  0  0  0
   18.0397   20.8071   20.8158 H   0  0  0  0  0  0  0  0  0  0  0  0
   17.2211   19.2290   20.8306 H   0  0  0  0  0  0  0  0  0  0  0  0
  1  2  1  0  0  0  0
  1  3  1  0  0  0  0
  1  4  1  0  0  0  0
  1  5  1  0  0  0  0
  5  6  1  0  0  0  0
  5  7  1  0  0  0  0
  7  8  1  0  0  0  0
  7  9  1  0  0  0  0
  7 10  1  0  0  0  0
  5 11  1  0  0  0  0
 11 12  1  0  0  0  0
 11 13  1  0  0  0  0
 11 14  1  0  0  0  0
 14 15  1  0  0  0  0
 14 16  1  0  0  0  0
 14 17  1  0  0  0  0
 17 18  1  0  0  0  0
 17 19  1  0  0  0  0
 17 20  1  0  0  0  0
M  END
> <VConfSearch Rank>
455

> <Conf_Id>
63

> <Delta U+W>
0.420

> <U+W>
-35.856

> <U>
22.625

> <W>
-58.481

> <W(PB)>
-60.400

> <W(SA)>
1.919

> <Valence>
2.404

> <Coulomb>
19.464

> <VdW>
0.757

> <VdW6>
-5.074

> <VdW12>
5.830

> <Bond>
0.172

> <Angle>
1.207

> <Pdih>
1.025

> <Idih>
0.000

> <Tether>
0.000

$$$$
VeraChem MOL file


 20 19  0  0  0  0  0  0  0  0999 V2000     
   19.3134   18.6341   21.0627 N   0  3  0  0  0  0  0  0  0  0  0  0
   18.7138   17.8956   21.4395 H   0  0  0  0  0  0  0  0  0  0  0  0
   20.1106   18.1818   20.6084 H   0  0  0  0  0  0  0  0  0  0  0  0
   18.7810   19.1186   20.3351 H   0  0  0  0  0  0  0  0  0  0  0  0
   19.7594   19.5811   22.1436 C   0  0  2  0  0  0  0  0  0  0  0  0
   18.8529   20.0196   22.5715 H   0  0  0  0  0  0  0  0  0  0  0  0
   20.6080   20.7187   21.5528 C   0  0  0  0  0  0  0  0  0  0  0  0
   20.0499   21.2569   20.7768 H   0  0  0  0  0  0  0  0  0  0  0  0
   21.5322   20.3337   21.1040 H   0  0  0  0  0  0  0  0  0  0  0  0
   20.8818   21.4442   22.3289 H   0  0  0  0  0  0  0  0  0  0  0  0
   20.5320   18.8652   23.2749 C   0  0  0  0  0  0  0  0  0  0  0  0
   21.4551   18.4316   22.8678 H   0  0  0  0  0  0  0  0  0  0  0  0
   20.8452   19.6089   24.0197 H   0  0  0  0  0  0  0  0  0  0  0  0
   19.7234   17.7542   23.9918 C   0  0  0  0  0  0  0  0  0  0  0  0
   20.3554   17.3052   24.7708 H   0  0  0  0  0  0  0  0  0  0  0  0
   19.4877   16.9427   23.2900 H   0  0  0  0  0  0  0  0  0  0  0  0
   18.4218   18.2759   24.6421 C   0  0  0  0  0  0  0  0  0  0  0  0
   18.6324   19.0891   25.3489 H   0  0  0  0  0  0  0  0  0  0  0  0
   17.9203   17.4723   25.1968 H   0  0  0  0  0  0  0  0  0  0  0  0
   17.7150   18.6495   23.8906 H   0  0  0  0  0  0  0  0  0  0  0  0
  1  2  1  0  0  0  0
  1  3  1  0  0  0  0
  1  4  1  0  0  0  0
  1  5  1  0  0  0  0
  5  6  1  0  0  0  0
  5  7  1  0  0  0  0
  7  8  1  0  0  0  0
  7  9  1  0  0  0  0
  7 10  1  0  0  0  0
  5 11  1  0  0  0  0
 11 12  1  0  0  0  0
 11 13  1  0  0  0  0
 11 14  1  0  0  0  0
 14 15  1  0  0  0  0
 14 16  1  0  0  0  0
 14 17  1  0  0  0  0
 17 18  1  0  0  0  0
 17 19  1  0  0  0  0
 17 20  1  0  0  0  0
M  END
> <VConfSearch Rank>
456

> <Conf_Id>
50

> <Delta U+W>
0.466

> <U+W>
-35.811

> <U>
22.369

> <W>
-58.180

> <W(PB)>
-60.103

> <W(SA)>
1.923

> <Valence>
2.168

> <Coulomb>
19.636

> <VdW>
0.566

> <VdW6>
-5.263

> <VdW12>
5.829

> <Bond>
0.162

> <Angle>
1.066

> <Pdih>
0.939

> <Idih>
0.000

> <Tether>
0.000

$$$$
VeraChem MOL file


 20 19  0  0  0  0  0  0  0  0999 V2000     
   18.8821   16.7594   23.1041 N   0  3  0  0  0  0  0  0  0  0  0  0
   17.8740   16.8835   23.2320 H   0  0  0  0  0  0  0  0  0  0  0  0
   19.2675   16.4375   23.9956 H   0  0  0  0  0  0  0  0  0  0  0  0
   19.0098   16.0029   22.4265 H   0  0  0  0  0  0  0  0  0  0  0  0
   19.5435   18.0298   22.6423 C   0  0  2  0  0  0  0  0  0  0  0  0
   19.0668   18.2939   21.6932 H   0  0  0  0  0  0  0  0  0  0  0  0
   21.0424   17.7816   22.3898 C   0  0  0  0  0  0  0  0  0  0  0  0
   21.5514   17.4672   23.3095 H   0  0  0  0  0  0  0  0  0  0  0  0
   21.5432   18.6827   22.0197 H   0  0  0  0  0  0  0  0  0  0  0  0
   21.1824   16.9941   21.6392 H   0  0  0  0  0  0  0  0  0  0  0  0
   19.3154   19.1949   23.6367 C   0  0  0  0  0  0  0  0  0  0  0  0
   18.4798   18.9410   24.3023 H   0  0  0  0  0  0  0  0  0  0  0  0
   20.1883   19.3166   24.2918 H   0  0  0  0  0  0  0  0  0  0  0  0
   18.9686   20.5428   22.9550 C   0  0  0  0  0  0  0  0  0  0  0  0
   18.7487   21.2844   23.7358 H   0  0  0  0  0  0  0  0  0  0  0  0
   18.0442   20.4318   22.3708 H   0  0  0  0  0  0  0  0  0  0  0  0
   20.0867   21.0969   22.0445 C   0  0  0  0  0  0  0  0  0  0  0  0
   21.0365   21.1794   22.5885 H   0  0  0  0  0  0  0  0  0  0  0  0
   19.8226   22.0977   21.6789 H   0  0  0  0  0  0  0  0  0  0  0  0
   20.2420   20.4580   21.1662 H   0  0  0  0  0  0  0  0  0  0  0  0
  1  2  1  0  0  0  0
  1  3  1  0  0  0  0
  1  4  1  0  0  0  0
  1  5  1  0  0  0  0
  5  6  1  0  0  0  0
  5  7  1  0  0  0  0
  7  8  1  0  0  0  0
  7  9  1  0  0  0  0
  7 10  1  0  0  0  0
  5 11  1  0  0  0  0
 11 12  1  0  0  0  0
 11 13  1  0  0  0  0
 11 14  1  0  0  0  0
 14 15  1  0  0  0  0
 14 16  1  0  0  0  0
 14 17  1  0  0  0  0
 17 18  1  0  0  0  0
 17 19  1  0  0  0  0
 17 20  1  0  0  0  0
M  END
> <VConfSearch Rank>
457

> <Conf_Id>
3

> <Delta U+W>
3.093

> <U+W>
-33.184

> <U>
25.256

> <W>
-58.439

> <W(PB)>
-60.337

> <W(SA)>
1.898

> <Valence>
4.963

> <Coulomb>
19.511

> <VdW>
0.782

> <VdW6>
-5.429

> <VdW12>
6.211

> <Bond>
0.174

> <Angle>
1.377

> <Pdih>
3.412

> <Idih>
0.000

> <Tether>
0.000

$$$$
VeraChem MOL file


 20 19  0  0  0  0  0  0  0  0999 V2000     
   18.5283   17.1838   21.8663 N   0  3  0  0  0  0  0  0  0  0  0  0
   18.8516   16.6672   21.0440 H   0  0  0  0  0  0  0  0  0  0  0  0
   17.6199   17.5918   21.6291 H   0  0  0  0  0  0  0  0  0  0  0  0
   18.3721   16.5011   22.6120 H   0  0  0  0  0  0  0  0  0  0  0  0
   19.5192   18.2370   22.2799 C   0  0  2  0  0  0  0  0  0  0  0  0
   19.6232   18.9125   21.4254 H   0  0  0  0  0  0  0  0  0  0  0  0
   20.8910   17.5991   22.5651 C   0  0  0  0  0  0  0  0  0  0  0  0
   21.6584   18.3639   22.7316 H   0  0  0  0  0  0  0  0  0  0  0  0
   21.2190   16.9905   21.7135 H   0  0  0  0  0  0  0  0  0  0  0  0
   20.8519   16.9525   23.4505 H   0  0  0  0  0  0  0  0  0  0  0  0
   18.9969   19.0549   23.4852 C   0  0  0  0  0  0  0  0  0  0  0  0
   17.9861   19.4155   23.2534 H   0  0  0  0  0  0  0  0  0  0  0  0
   18.8919   18.3932   24.3552 H   0  0  0  0  0  0  0  0  0  0  0  0
   19.8709   20.2733   23.8784 C   0  0  0  0  0  0  0  0  0  0  0  0
   20.8505   19.9380   24.2446 H   0  0  0  0  0  0  0  0  0  0  0  0
   19.3951   20.7892   24.7241 H   0  0  0  0  0  0  0  0  0  0  0  0
   20.0623   21.2803   22.7214 C   0  0  0  0  0  0  0  0  0  0  0  0
   19.0948   21.6280   22.3363 H   0  0  0  0  0  0  0  0  0  0  0  0
   20.6238   20.8367   21.8895 H   0  0  0  0  0  0  0  0  0  0  0  0
   20.6214   22.1599   23.0657 H   0  0  0  0  0  0  0  0  0  0  0  0
  1  2  1  0  0  0  0
  1  3  1  0  0  0  0
  1  4  1  0  0  0  0
  1  5  1  0  0  0  0
  5  6  1  0  0  0  0
  5  7  1  0  0  0  0
  7  8  1  0  0  0  0
  7  9  1  0  0  0  0
  7 10  1  0  0  0  0
  5 11  1  0  0  0  0
 11 12  1  0  0  0  0
 11 13  1  0  0  0  0
 11 14  1  0  0  0  0
 14 15  1  0  0  0  0
 14 16  1  0  0  0  0
 14 17  1  0  0  0  0
 17 18  1  0  0  0  0
 17 19  1  0  0  0  0
 17 20  1  0  0  0  0
M  END
> <VConfSearch Rank>
458

> <Conf_Id>
64

> <Delta U+W>
0.544

> <U+W>
-35.732

> <U>
22.800

> <W>
-58.532

> <W(PB)>
-60.437

> <W(SA)>
1.905

> <Valence>
2.662

> <Coulomb>
19.485

> <VdW>
0.653

> <VdW6>
-5.460

> <VdW12>
6.113

> <Bond>
0.174

> <Angle>
1.378

> <Pdih>
1.109

> <Idih>
0.000

> <Tether>
0.000

$$$$
VeraChem MOL file


 20 19  0  0  0  0  0  0  0  0999 V2000     
   18.4860   17.2713   22.4612 N   0  3  0  0  0  0  0  0  0  0  0  0
   17.8299   18.0553   22.4749 H   0  0  0  0  0  0  0  0  0  0  0  0
   18.1218   16.5567   23.0970 H   0  0  0  0  0  0  0  0  0  0  0  0
   18.4708   16.8744   21.5179 H   0  0  0  0  0  0  0  0  0  0  0  0
   19.8716   17.7055   22.8569 C   0  0  2  0  0  0  0  0  0  0  0  0
   20.4893   16.8026   22.8225 H   0  0  0  0  0  0  0  0  0  0  0  0
   19.8918   18.2206   24.3054 C   0  0  0  0  0  0  0  0  0  0  0  0
   19.1867   19.0479   24.4472 H   0  0  0  0  0  0  0  0  0  0  0  0
   20.8954   18.5648   24.5840 H   0  0  0  0  0  0  0  0  0  0  0  0
   19.6101   17.4202   25.0002 H   0  0  0  0  0  0  0  0  0  0  0  0
   20.4846   18.7105   21.8495 C   0  0  0  0  0  0  0  0  0  0  0  0
   21.5470   18.8590   22.0839 H   0  0  0  0  0  0  0  0  0  0  0  0
   20.4720   18.2328   20.8610 H   0  0  0  0  0  0  0  0  0  0  0  0
   19.7733   20.0874   21.7337 C   0  0  0  0  0  0  0  0  0  0  0  0
   18.6977   19.9907   21.9315 H   0  0  0  0  0  0  0  0  0  0  0  0
   19.8560   20.4332   20.6937 H   0  0  0  0  0  0  0  0  0  0  0  0
   20.3860   21.1781   22.6436 C   0  0  0  0  0  0  0  0  0  0  0  0
   20.3012   20.9260   23.7062 H   0  0  0  0  0  0  0  0  0  0  0  0
   19.8744   22.1371   22.4899 H   0  0  0  0  0  0  0  0  0  0  0  0
   21.4490   21.3290   22.4150 H   0  0  0  0  0  0  0  0  0  0  0  0
  1  2  1  0  0  0  0
  1  3  1  0  0  0  0
  1  4  1  0  0  0  0
  1  5  1  0  0  0  0
  5  6  1  0  0  0  0
  5  7  1  0  0  0  0
  7  8  1  0  0  0  0
  7  9  1  0  0  0  0
  7 10  1  0  0  0  0
  5 11  1  0  0  0  0
 11 12  1  0  0  0  0
 11 13  1  0  0  0  0
 11 14  1  0  0  0  0
 14 15  1  0  0  0  0
 14 16  1  0  0  0  0
 14 17  1  0  0  0  0
 17 18  1  0  0  0  0
 17 19  1  0  0  0  0
 17 20  1  0  0  0  0
M  END
> <VConfSearch Rank>
459

> <Conf_Id>
35

> <Delta U+W>
3.004

> <U+W>
-33.272

> <U>
25.367

> <W>
-58.639

> <W(PB)>
-60.512

> <W(SA)>
1.873

> <Valence>
4.943

> <Coulomb>
19.661

> <VdW>
0.764

> <VdW6>
-5.871

> <VdW12>
6.636

> <Bond>
0.230

> <Angle>
1.857

> <Pdih>
2.855

> <Idih>
0.000

> <Tether>
0.000

$$$$
VeraChem MOL file


 20 19  0  0  0  0  0  0  0  0999 V2000     
   19.9231   19.1799   20.9319 N   0  3  0  0  0  0  0  0  0  0  0  0
   20.5388   19.6392   20.2554 H   0  0  0  0  0  0  0  0  0  0  0  0
   19.0381   18.9861   20.4557 H   0  0  0  0  0  0  0  0  0  0  0  0
   20.3438   18.2807   21.1733 H   0  0  0  0  0  0  0  0  0  0  0  0
   19.7156   20.0300   22.1553 C   0  0  2  0  0  0  0  0  0  0  0  0
   19.2420   20.9477   21.7929 H   0  0  0  0  0  0  0  0  0  0  0  0
   21.0568   20.4288   22.7960 C   0  0  0  0  0  0  0  0  0  0  0  0
   21.6366   19.5499   23.1022 H   0  0  0  0  0  0  0  0  0  0  0  0
   20.8938   21.0587   23.6792 H   0  0  0  0  0  0  0  0  0  0  0  0
   21.6661   21.0020   22.0867 H   0  0  0  0  0  0  0  0  0  0  0  0
   18.7382   19.3948   23.1774 C   0  0  0  0  0  0  0  0  0  0  0  0
   18.4066   20.1898   23.8583 H   0  0  0  0  0  0  0  0  0  0  0  0
   17.8331   19.0690   22.6485 H   0  0  0  0  0  0  0  0  0  0  0  0
   19.2758   18.2214   24.0438 C   0  0  0  0  0  0  0  0  0  0  0  0
   18.4797   17.9210   24.7394 H   0  0  0  0  0  0  0  0  0  0  0  0
   20.1055   18.5642   24.6768 H   0  0  0  0  0  0  0  0  0  0  0  0
   19.7144   16.9752   23.2418 C   0  0  0  0  0  0  0  0  0  0  0  0
   18.9343   16.6605   22.5364 H   0  0  0  0  0  0  0  0  0  0  0  0
   19.9067   16.1346   23.9212 H   0  0  0  0  0  0  0  0  0  0  0  0
   20.6417   17.1579   22.6869 H   0  0  0  0  0  0  0  0  0  0  0  0
  1  2  1  0  0  0  0
  1  3  1  0  0  0  0
  1  4  1  0  0  0  0
  1  5  1  0  0  0  0
  5  6  1  0  0  0  0
  5  7  1  0  0  0  0
  7  8  1  0  0  0  0
  7  9  1  0  0  0  0
  7 10  1  0  0  0  0
  5 11  1  0  0  0  0
 11 12  1  0  0  0  0
 11 13  1  0  0  0  0
 11 14  1  0  0  0  0
 14 15  1  0  0  0  0
 14 16  1  0  0  0  0
 14 17  1  0  0  0  0
 17 18  1  0  0  0  0
 17 19  1  0  0  0  0
 17 20  1  0  0  0  0
M  END
> <VConfSearch Rank>
460

> <Conf_Id>
55

> <Delta U+W>
2.767

> <U+W>
-33.509

> <U>
24.552

> <W>
-58.061

> <W(PB)>
-59.930

> <W(SA)>
1.869

> <Valence>
3.726

> <Coulomb>
20.219

> <VdW>
0.606

> <VdW6>
-6.395

> <VdW12>
7.001

> <Bond>
0.241

> <Angle>
2.098

> <Pdih>
1.387

> <Idih>
0.000

> <Tether>
0.000

$$$$
VeraChem MOL file


 20 19  0  0  0  0  0  0  0  0999 V2000     
   18.0881   19.1153   21.6627 N   0  3  0  0  0  0  0  0  0  0  0  0
   18.0122   20.1352   21.6868 H   0  0  0  0  0  0  0  0  0  0  0  0
   17.1471   18.7428   21.5094 H   0  0  0  0  0  0  0  0  0  0  0  0
   18.6497   18.8678   20.8442 H   0  0  0  0  0  0  0  0  0  0  0  0
   18.6934   18.5772   22.9312 C   0  0  2  0  0  0  0  0  0  0  0  0
   18.7414   17.4894   22.8205 H   0  0  0  0  0  0  0  0  0  0  0  0
   17.7953   18.8988   24.1370 C   0  0  0  0  0  0  0  0  0  0  0  0
   16.7859   18.4961   23.9880 H   0  0  0  0  0  0  0  0  0  0  0  0
   17.7116   19.9817   24.2927 H   0  0  0  0  0  0  0  0  0  0  0  0
   18.1988   18.4522   25.0542 H   0  0  0  0  0  0  0  0  0  0  0  0
   20.1261   19.1013   23.1740 C   0  0  0  0  0  0  0  0  0  0  0  0
   20.1091   20.1955   23.2653 H   0  0  0  0  0  0  0  0  0  0  0  0
   20.4871   18.7128   24.1357 H   0  0  0  0  0  0  0  0  0  0  0  0
   21.1199   18.6844   22.0631 C   0  0  0  0  0  0  0  0  0  0  0  0
   20.8110   19.1088   21.0983 H   0  0  0  0  0  0  0  0  0  0  0  0
   21.1095   17.5913   21.9481 H   0  0  0  0  0  0  0  0  0  0  0  0
   22.5570   19.1512   22.3796 C   0  0  0  0  0  0  0  0  0  0  0  0
   22.6062   20.2441   22.4707 H   0  0  0  0  0  0  0  0  0  0  0  0
   23.2475   18.8486   21.5816 H   0  0  0  0  0  0  0  0  0  0  0  0
   22.9173   18.7133   23.3196 H   0  0  0  0  0  0  0  0  0  0  0  0
  1  2  1  0  0  0  0
  1  3  1  0  0  0  0
  1  4  1  0  0  0  0
  1  5  1  0  0  0  0
  5  6  1  0  0  0  0
  5  7  1  0  0  0  0
  7  8  1  0  0  0  0
  7  9  1  0  0  0  0
  7 10  1  0  0  0  0
  5 11  1  0  0  0  0
 11 12  1  0  0  0  0
 11 13  1  0  0  0  0
 11 14  1  0  0  0  0
 14 15  1  0  0  0  0
 14 16  1  0  0  0  0
 14 17  1  0  0  0  0
 17 18  1  0  0  0  0
 17 19  1  0  0  0  0
 17 20  1  0  0  0  0
M  END
> <VConfSearch Rank>
461

> <Conf_Id>
74

> <Delta U+W>
0.000

> <U+W>
-36.276

> <U>
22.080

> <W>
-58.356

> <W(PB)>
-60.289

> <W(SA)>
1.932

> <Valence>
1.885

> <Coulomb>
19.559

> <VdW>
0.637

> <VdW6>
-4.482

> <VdW12>
5.119

> <Bond>
0.136

> <Angle>
0.867

> <Pdih>
0.882

> <Idih>
0.000

> <Tether>
0.000

$$$$
VeraChem MOL file


 20 19  0  0  0  0  0  0  0  0999 V2000     
   19.4577   20.1969   24.7311 N   0  3  0  0  0  0  0  0  0  0  0  0
   18.7079   19.6803   25.1988 H   0  0  0  0  0  0  0  0  0  0  0  0
   19.0407   21.0344   24.3171 H   0  0  0  0  0  0  0  0  0  0  0  0
   20.1085   20.5083   25.4572 H   0  0  0  0  0  0  0  0  0  0  0  0
   20.1504   19.3546   23.6952 C   0  0  2  0  0  0  0  0  0  0  0  0
   20.5640   18.4915   24.2261 H   0  0  0  0  0  0  0  0  0  0  0  0
   21.3141   20.1384   23.0608 C   0  0  0  0  0  0  0  0  0  0  0  0
   21.9792   20.5375   23.8364 H   0  0  0  0  0  0  0  0  0  0  0  0
   20.9459   20.9810   22.4624 H   0  0  0  0  0  0  0  0  0  0  0  0
   21.9219   19.4963   22.4132 H   0  0  0  0  0  0  0  0  0  0  0  0
   19.1503   18.8365   22.6355 C   0  0  0  0  0  0  0  0  0  0  0  0
   18.2954   18.3851   23.1562 H   0  0  0  0  0  0  0  0  0  0  0  0
   18.7516   19.6817   22.0589 H   0  0  0  0  0  0  0  0  0  0  0  0
   19.7500   17.7838   21.6714 C   0  0  0  0  0  0  0  0  0  0  0  0
   20.2052   16.9679   22.2502 H   0  0  0  0  0  0  0  0  0  0  0  0
   20.5506   18.2318   21.0680 H   0  0  0  0  0  0  0  0  0  0  0  0
   18.6781   17.2028   20.7242 C   0  0  0  0  0  0  0  0  0  0  0  0
   17.8782   16.7060   21.2887 H   0  0  0  0  0  0  0  0  0  0  0  0
   19.1207   16.4618   20.0460 H   0  0  0  0  0  0  0  0  0  0  0  0
   18.2240   17.9918   20.1105 H   0  0  0  0  0  0  0  0  0  0  0  0
  1  2  1  0  0  0  0
  1  3  1  0  0  0  0
  1  4  1  0  0  0  0
  1  5  1  0  0  0  0
  5  6  1  0  0  0  0
  5  7  1  0  0  0  0
  7  8  1  0  0  0  0
  7  9  1  0  0  0  0
  7 10  1  0  0  0  0
  5 11  1  0  0  0  0
 11 12  1  0  0  0  0
 11 13  1  0  0  0  0
 11 14  1  0  0  0  0
 14 15  1  0  0  0  0
 14 16  1  0  0  0  0
 14 17  1  0  0  0  0
 17 18  1  0  0  0  0
 17 19  1  0  0  0  0
 17 20  1  0  0  0  0
M  END
> <VConfSearch Rank>
462

> <Conf_Id>
80

> <Delta U+W>
0.460

> <U+W>
-35.817

> <U>
22.495

> <W>
-58.311

> <W(PB)>
-60.259

> <W(SA)>
1.948

> <Valence>
2.419

> <Coulomb>
19.304

> <VdW>
0.772

> <VdW6>
-4.635

> <VdW12>
5.407

> <Bond>
0.149

> <Angle>
1.142

> <Pdih>
1.129

> <Idih>
0.000

> <Tether>
0.000

$$$$
VeraChem MOL file


 20 19  0  0  0  0  0  0  0  0999 V2000     
   20.1383   21.2164   22.2981 N   0  3  0  0  0  0  0  0  0  0  0  0
   21.0697   21.3713   21.9026 H   0  0  0  0  0  0  0  0  0  0  0  0
   20.1763   21.4827   23.2852 H   0  0  0  0  0  0  0  0  0  0  0  0
   19.5001   21.8669   21.8320 H   0  0  0  0  0  0  0  0  0  0  0  0
   19.6921   19.7900   22.1278 C   0  0  2  0  0  0  0  0  0  0  0  0
   19.6764   19.6007   21.0499 H   0  0  0  0  0  0  0  0  0  0  0  0
   18.2619   19.6118   22.6652 C   0  0  0  0  0  0  0  0  0  0  0  0
   17.5944   20.3779   22.2519 H   0  0  0  0  0  0  0  0  0  0  0  0
   18.2348   19.6903   23.7591 H   0  0  0  0  0  0  0  0  0  0  0  0
   17.8517   18.6380   22.3745 H   0  0  0  0  0  0  0  0  0  0  0  0
   20.7034   18.8107   22.7725 C   0  0  0  0  0  0  0  0  0  0  0  0
   21.6935   19.0383   22.3559 H   0  0  0  0  0  0  0  0  0  0  0  0
   20.7824   19.0023   23.8508 H   0  0  0  0  0  0  0  0  0  0  0  0
   20.4166   17.3079   22.5140 C   0  0  0  0  0  0  0  0  0  0  0  0
   21.3750   16.7858   22.3836 H   0  0  0  0  0  0  0  0  0  0  0  0
   19.8733   17.1798   21.5672 H   0  0  0  0  0  0  0  0  0  0  0  0
   19.6538   16.6195   23.6704 C   0  0  0  0  0  0  0  0  0  0  0  0
   20.2256   16.6767   24.6058 H   0  0  0  0  0  0  0  0  0  0  0  0
   19.4916   15.5575   23.4450 H   0  0  0  0  0  0  0  0  0  0  0  0
   18.6728   17.0744   23.8472 H   0  0  0  0  0  0  0  0  0  0  0  0
  1  2  1  0  0  0  0
  1  3  1  0  0  0  0
  1  4  1  0  0  0  0
  1  5  1  0  0  0  0
  5  6  1  0  0  0  0
  5  7  1  0  0  0  0
  7  8  1  0  0  0  0
  7  9  1  0  0  0  0
  7 10  1  0  0  0  0
  5 11  1  0  0  0  0
 11 12  1  0  0  0  0
 11 13  1  0  0  0  0
 11 14  1  0  0  0  0
 14 15  1  0  0  0  0
 14 16  1  0  0  0  0
 14 17  1  0  0  0  0
 17 18  1  0  0  0  0
 17 19  1  0  0  0  0
 17 20  1  0  0  0  0
M  END
> <VConfSearch Rank>
463

> <Conf_Id>
52

> <Delta U+W>
2.995

> <U+W>
-33.282

> <U>
25.224

> <W>
-58.506

> <W(PB)>
-60.411

> <W(SA)>
1.905

> <Valence>
4.945

> <Coulomb>
19.467

> <VdW>
0.813

> <VdW6>
-5.458

> <VdW12>
6.270

> <Bond>
0.200

> <Angle>
1.675

> <Pdih>
3.070

> <Idih>
0.000

> <Tether>
0.000

$$$$
VeraChem MOL file


 20 19  0  0  0  0  0  0  0  0999 V2000     
   18.7465   19.4486   23.9407 N   0  3  0  0  0  0  0  0  0  0  0  0
   19.3061   19.3659   24.7930 H   0  0  0  0  0  0  0  0  0  0  0  0
   17.7615   19.4116   24.2165 H   0  0  0  0  0  0  0  0  0  0  0  0
   18.9228   20.3756   23.5478 H   0  0  0  0  0  0  0  0  0  0  0  0
   19.0854   18.3640   22.9547 C   0  0  2  0  0  0  0  0  0  0  0  0
   18.4175   18.4884   22.0967 H   0  0  0  0  0  0  0  0  0  0  0  0
   18.8120   16.9860   23.5809 C   0  0  0  0  0  0  0  0  0  0  0  0
   19.4693   16.8028   24.4402 H   0  0  0  0  0  0  0  0  0  0  0  0
   18.9744   16.1847   22.8493 H   0  0  0  0  0  0  0  0  0  0  0  0
   17.7726   16.9142   23.9241 H   0  0  0  0  0  0  0  0  0  0  0  0
   20.5457   18.4471   22.4501 C   0  0  0  0  0  0  0  0  0  0  0  0
   21.2283   18.5818   23.2995 H   0  0  0  0  0  0  0  0  0  0  0  0
   20.8155   17.4828   21.9990 H   0  0  0  0  0  0  0  0  0  0  0  0
   20.8027   19.5400   21.3796 C   0  0  0  0  0  0  0  0  0  0  0  0
   20.1487   19.3702   20.5127 H   0  0  0  0  0  0  0  0  0  0  0  0
   21.8310   19.4219   21.0100 H   0  0  0  0  0  0  0  0  0  0  0  0
   20.6294   20.9923   21.8796 C   0  0  0  0  0  0  0  0  0  0  0  0
   21.0200   21.6984   21.1352 H   0  0  0  0  0  0  0  0  0  0  0  0
   21.1773   21.1606   22.8160 H   0  0  0  0  0  0  0  0  0  0  0  0
   19.5737   21.2435   22.0341 H   0  0  0  0  0  0  0  0  0  0  0  0
  1  2  1  0  0  0  0
  1  3  1  0  0  0  0
  1  4  1  0  0  0  0
  1  5  1  0  0  0  0
  5  6  1  0  0  0  0
  5  7  1  0  0  0  0
  7  8  1  0  0  0  0
  7  9  1  0  0  0  0
  7 10  1  0  0  0  0
  5 11  1  0  0  0  0
 11 12  1  0  0  0  0
 11 13  1  0  0  0  0
 11 14  1  0  0  0  0
 14 15  1  0  0  0  0
 14 16  1  0  0  0  0
 14 17  1  0  0  0  0
 17 18  1  0  0  0  0
 17 19  1  0  0  0  0
 17 20  1  0  0  0  0
M  END
> <VConfSearch Rank>
464

> <Conf_Id>
54

> <Delta U+W>
2.752

> <U+W>
-33.525

> <U>
24.337

> <W>
-57.862

> <W(PB)>
-59.764

> <W(SA)>
1.901

> <Valence>
3.593

> <Coulomb>
20.067

> <VdW>
0.677

> <VdW6>
-5.466

> <VdW12>
6.144

> <Bond>
0.191

> <Angle>
1.557

> <Pdih>
1.845

> <Idih>
0.000

> <Tether>
0.000

$$$$
VeraChem MOL file


 20 19  0  0  0  0  0  0  0  0999 V2000     
   20.1535   18.1959   20.8170 N   0  3  0  0  0  0  0  0  0  0  0  0
   20.4602   17.3645   20.3048 H   0  0  0  0  0  0  0  0  0  0  0  0
   20.4530   19.0126   20.2774 H   0  0  0  0  0  0  0  0  0  0  0  0
   19.1311   18.1902   20.8241 H   0  0  0  0  0  0  0  0  0  0  0  0
   20.7132   18.2200   22.2134 C   0  0  2  0  0  0  0  0  0  0  0  0
   21.8021   18.2070   22.1033 H   0  0  0  0  0  0  0  0  0  0  0  0
   20.3109   16.9550   22.9924 C   0  0  0  0  0  0  0  0  0  0  0  0
   20.7193   16.9772   24.0103 H   0  0  0  0  0  0  0  0  0  0  0  0
   20.7034   16.0586   22.4969 H   0  0  0  0  0  0  0  0  0  0  0  0
   19.2218   16.8494   23.0609 H   0  0  0  0  0  0  0  0  0  0  0  0
   20.3458   19.5150   22.9771 C   0  0  0  0  0  0  0  0  0  0  0  0
   20.8572   19.5088   23.9488 H   0  0  0  0  0  0  0  0  0  0  0  0
   20.7569   20.3711   22.4262 H   0  0  0  0  0  0  0  0  0  0  0  0
   18.8272   19.7352   23.1996 C   0  0  0  0  0  0  0  0  0  0  0  0
   18.4070   18.9133   23.7945 H   0  0  0  0  0  0  0  0  0  0  0  0
   18.2988   19.7347   22.2368 H   0  0  0  0  0  0  0  0  0  0  0  0
   18.5487   21.0691   23.9252 C   0  0  0  0  0  0  0  0  0  0  0  0
   17.4707   21.2100   24.0774 H   0  0  0  0  0  0  0  0  0  0  0  0
   18.9200   21.9217   23.3418 H   0  0  0  0  0  0  0  0  0  0  0  0
   19.0332   21.0919   24.9100 H   0  0  0  0  0  0  0  0  0  0  0  0
  1  2  1  0  0  0  0
  1  3  1  0  0  0  0
  1  4  1  0  0  0  0
  1  5  1  0  0  0  0
  5  6  1  0  0  0  0
  5  7  1  0  0  0  0
  7  8  1  0  0  0  0
  7  9  1  0  0  0  0
  7 10  1  0  0  0  0
  5 11  1  0  0  0  0
 11 12  1  0  0  0  0
 11 13  1  0  0  0  0
 11 14  1  0  0  0  0
 14 15  1  0  0  0  0
 14 16  1  0  0  0  0
 14 17  1  0  0  0  0
 17 18  1  0  0  0  0
 17 19  1  0  0  0  0
 17 20  1  0  0  0  0
M  END
> <VConfSearch Rank>
465

> <Conf_Id>
63

> <Delta U+W>
0.420

> <U+W>
-35.856

> <U>
22.625

> <W>
-58.481

> <W(PB)>
-60.400

> <W(SA)>
1.919

> <Valence>
2.404

> <Coulomb>
19.464

> <VdW>
0.757

> <VdW6>
-5.074

> <VdW12>
5.830

> <Bond>
0.172

> <Angle>
1.207

> <Pdih>
1.025

> <Idih>
0.000

> <Tether>
0.000

$$$$
VeraChem MOL file


 20 19  0  0  0  0  0  0  0  0999 V2000     
   21.0165   19.6949   21.8369 N   0  3  0  0  0  0  0  0  0  0  0  0
   20.4229   19.5205   21.0220 H   0  0  0  0  0  0  0  0  0  0  0  0
   21.8056   19.0458   21.7878 H   0  0  0  0  0  0  0  0  0  0  0  0
   21.3932   20.6420   21.7436 H   0  0  0  0  0  0  0  0  0  0  0  0
   20.2467   19.5308   23.1193 C   0  0  2  0  0  0  0  0  0  0  0  0
   19.4298   20.2582   23.0913 H   0  0  0  0  0  0  0  0  0  0  0  0
   21.1350   19.8559   24.3313 C   0  0  0  0  0  0  0  0  0  0  0  0
   21.5406   20.8721   24.2541 H   0  0  0  0  0  0  0  0  0  0  0  0
   21.9771   19.1566   24.4060 H   0  0  0  0  0  0  0  0  0  0  0  0
   20.5591   19.7978   25.2633 H   0  0  0  0  0  0  0  0  0  0  0  0
   19.6340   18.1193   23.2644 C   0  0  0  0  0  0  0  0  0  0  0  0
   20.4402   17.3752   23.3109 H   0  0  0  0  0  0  0  0  0  0  0  0
   19.1038   18.0569   24.2241 H   0  0  0  0  0  0  0  0  0  0  0  0
   18.6527   17.7330   22.1287 C   0  0  0  0  0  0  0  0  0  0  0  0
   18.2766   16.7178   22.3179 H   0  0  0  0  0  0  0  0  0  0  0  0
   19.1835   17.6837   21.1683 H   0  0  0  0  0  0  0  0  0  0  0  0
   17.4512   18.6984   22.0117 C   0  0  0  0  0  0  0  0  0  0  0  0
   16.9041   18.7641   22.9612 H   0  0  0  0  0  0  0  0  0  0  0  0
   16.7487   18.3468   21.2449 H   0  0  0  0  0  0  0  0  0  0  0  0
   17.7699   19.7095   21.7291 H   0  0  0  0  0  0  0  0  0  0  0  0
  1  2  1  0  0  0  0
  1  3  1  0  0  0  0
  1  4  1  0  0  0  0
  1  5  1  0  0  0  0
  5  6  1  0  0  0  0
  5  7  1  0  0  0  0
  7  8  1  0  0  0  0
  7  9  1  0  0  0  0
  7 10  1  0  0  0  0
  5 11  1  0  0  0  0
 11 12  1  0  0  0  0
 11 13  1  0  0  0  0
 11 14  1  0  0  0  0
 14 15  1  0  0  0  0
 14 16  1  0  0  0  0
 14 17  1  0  0  0  0
 17 18  1  0  0  0  0
 17 19  1  0  0  0  0
 17 20  1  0  0  0  0
M  END
> <VConfSearch Rank>
466

> <Conf_Id>
50

> <Delta U+W>
0.466

> <U+W>
-35.811

> <U>
22.369

> <W>
-58.180

> <W(PB)>
-60.103

> <W(SA)>
1.923

> <Valence>
2.168

> <Coulomb>
19.636

> <VdW>
0.566

> <VdW6>
-5.263

> <VdW12>
5.829

> <Bond>
0.162

> <Angle>
1.066

> <Pdih>
0.939

> <Idih>
0.000

> <Tether>
0.000

$$$$
VeraChem MOL file


 20 19  0  0  0  0  0  0  0  0999 V2000     
   19.9295   18.9410   20.4641 N   0  3  0  0  0  0  0  0  0  0  0  0
   20.1353   19.9195   20.2447 H   0  0  0  0  0  0  0  0  0  0  0  0
   19.0104   18.7245   20.0699 H   0  0  0  0  0  0  0  0  0  0  0  0
   20.6166   18.3687   19.9659 H   0  0  0  0  0  0  0  0  0  0  0  0
   19.9697   18.6841   21.9463 C   0  0  2  0  0  0  0  0  0  0  0  0
   20.9809   18.9452   22.2734 H   0  0  0  0  0  0  0  0  0  0  0  0
   19.7301   17.1891   22.2285 C   0  0  0  0  0  0  0  0  0  0  0  0
   18.7419   16.8730   21.8717 H   0  0  0  0  0  0  0  0  0  0  0  0
   19.7876   16.9670   23.2996 H   0  0  0  0  0  0  0  0  0  0  0  0
   20.4851   16.5747   21.7229 H   0  0  0  0  0  0  0  0  0  0  0  0
   18.9680   19.5800   22.7157 C   0  0  0  0  0  0  0  0  0  0  0  0
   18.6638   20.4150   22.0708 H   0  0  0  0  0  0  0  0  0  0  0  0
   18.0461   19.0247   22.9343 H   0  0  0  0  0  0  0  0  0  0  0  0
   19.5443   20.1900   24.0187 C   0  0  0  0  0  0  0  0  0  0  0  0
   18.7942   20.8672   24.4506 H   0  0  0  0  0  0  0  0  0  0  0  0
   20.4161   20.8144   23.7776 H   0  0  0  0  0  0  0  0  0  0  0  0
   19.9418   19.1446   25.0842 C   0  0  0  0  0  0  0  0  0  0  0  0
   19.1024   18.4762   25.3163 H   0  0  0  0  0  0  0  0  0  0  0  0
   20.2409   19.6418   26.0161 H   0  0  0  0  0  0  0  0  0  0  0  0
   20.7912   18.5354   24.7510 H   0  0  0  0  0  0  0  0  0  0  0  0
  1  2  1  0  0  0  0
  1  3  1  0  0  0  0
  1  4  1  0  0  0  0
  1  5  1  0  0  0  0
  5  6  1  0  0  0  0
  5  7  1  0  0  0  0
  7  8  1  0  0  0  0
  7  9  1  0  0  0  0
  7 10  1  0  0  0  0
  5 11  1  0  0  0  0
 11 12  1  0  0  0  0
 11 13  1  0  0  0  0
 11 14  1  0  0  0  0
 14 15  1  0  0  0  0
 14 16  1  0  0  0  0
 14 17  1  0  0  0  0
 17 18  1  0  0  0  0
 17 19  1  0  0  0  0
 17 20  1  0  0  0  0
M  END
> <VConfSearch Rank>
467

> <Conf_Id>
3

> <Delta U+W>
3.093

> <U+W>
-33.184

> <U>
25.256

> <W>
-58.439

> <W(PB)>
-60.337

> <W(SA)>
1.898

> <Valence>
4.963

> <Coulomb>
19.511

> <VdW>
0.782

> <VdW6>
-5.429

> <VdW12>
6.211

> <Bond>
0.174

> <Angle>
1.377

> <Pdih>
3.412

> <Idih>
0.000

> <Tether>
0.000

$$$$
VeraChem MOL file


 20 19  0  0  0  0  0  0  0  0999 V2000     
   17.6729   20.0272   22.8142 N   0  3  0  0  0  0  0  0  0  0  0  0
   16.8254   19.6575   22.3751 H   0  0  0  0  0  0  0  0  0  0  0  0
   17.8793   20.9238   22.3656 H   0  0  0  0  0  0  0  0  0  0  0  0
   17.4486   20.2192   23.7937 H   0  0  0  0  0  0  0  0  0  0  0  0
   18.8227   19.0656   22.6888 C   0  0  2  0  0  0  0  0  0  0  0  0
   18.9849   18.9198   21.6166 H   0  0  0  0  0  0  0  0  0  0  0  0
   18.4556   17.7075   23.3140 C   0  0  0  0  0  0  0  0  0  0  0  0
   19.2253   16.9544   23.1093 H   0  0  0  0  0  0  0  0  0  0  0  0
   17.5141   17.3310   22.8958 H   0  0  0  0  0  0  0  0  0  0  0  0
   18.3360   17.7902   24.4014 H   0  0  0  0  0  0  0  0  0  0  0  0
   20.1158   19.6562   23.3000 C   0  0  0  0  0  0  0  0  0  0  0  0
   20.2807   20.6552   22.8753 H   0  0  0  0  0  0  0  0  0  0  0  0
   19.9733   19.8039   24.3787 H   0  0  0  0  0  0  0  0  0  0  0  0
   21.3948   18.8113   23.0693 C   0  0  0  0  0  0  0  0  0  0  0  0
   21.3180   17.8508   23.5964 H   0  0  0  0  0  0  0  0  0  0  0  0
   22.2485   19.3345   23.5225 H   0  0  0  0  0  0  0  0  0  0  0  0
   21.6960   18.5639   21.5736 C   0  0  0  0  0  0  0  0  0  0  0  0
   21.7746   19.5113   21.0246 H   0  0  0  0  0  0  0  0  0  0  0  0
   20.9146   17.9563   21.1000 H   0  0  0  0  0  0  0  0  0  0  0  0
   22.6473   18.0289   21.4562 H   0  0  0  0  0  0  0  0  0  0  0  0
  1  2  1  0  0  0  0
  1  3  1  0  0  0  0
  1  4  1  0  0  0  0
  1  5  1  0  0  0  0
  5  6  1  0  0  0  0
  5  7  1  0  0  0  0
  7  8  1  0  0  0  0
  7  9  1  0  0  0  0
  7 10  1  0  0  0  0
  5 11  1  0  0  0  0
 11 12  1  0  0  0  0
 11 13  1  0  0  0  0
 11 14  1  0  0  0  0
 14 15  1  0  0  0  0
 14 16  1  0  0  0  0
 14 17  1  0  0  0  0
 17 18  1  0  0  0  0
 17 19  1  0  0  0  0
 17 20  1  0  0  0  0
M  END
> <VConfSearch Rank>
468

> <Conf_Id>
64

> <Delta U+W>
0.544

> <U+W>
-35.732

> <U>
22.800

> <W>
-58.532

> <W(PB)>
-60.437

> <W(SA)>
1.905

> <Valence>
2.662

> <Coulomb>
19.485

> <VdW>
0.653

> <VdW6>
-5.460

> <VdW12>
6.113

> <Bond>
0.174

> <Angle>
1.378

> <Pdih>
1.109

> <Idih>
0.000

> <Tether>
0.000

$$$$
VeraChem MOL file


 20 19  0  0  0  0  0  0  0  0999 V2000     
   21.8354   18.8353   22.1996 N   0  3  0  0  0  0  0  0  0  0  0  0
   21.4515   18.0698   21.6412 H   0  0  0  0  0  0  0  0  0  0  0  0
   22.6681   18.4784   22.6759 H   0  0  0  0  0  0  0  0  0  0  0  0
   22.1457   19.5635   21.5507 H   0  0  0  0  0  0  0  0  0  0  0  0
   20.8237   19.3627   23.1810 C   0  0  2  0  0  0  0  0  0  0  0  0
   21.3296   20.1620   23.7318 H   0  0  0  0  0  0  0  0  0  0  0  0
   20.4321   18.2799   24.1998 C   0  0  0  0  0  0  0  0  0  0  0  0
   20.0392   17.3849   23.7034 H   0  0  0  0  0  0  0  0  0  0  0  0
   19.6726   18.6551   24.8967 H   0  0  0  0  0  0  0  0  0  0  0  0
   21.3049   17.9768   24.7907 H   0  0  0  0  0  0  0  0  0  0  0  0
   19.5997   20.0030   22.4791 C   0  0  0  0  0  0  0  0  0  0  0  0
   18.9833   20.5229   23.2242 H   0  0  0  0  0  0  0  0  0  0  0  0
   19.9777   20.7927   21.8166 H   0  0  0  0  0  0  0  0  0  0  0  0
   18.7120   19.0449   21.6369 C   0  0  0  0  0  0  0  0  0  0  0  0
   19.3105   18.2291   21.2108 H   0  0  0  0  0  0  0  0  0  0  0  0
   18.3162   19.6053   20.7782 H   0  0  0  0  0  0  0  0  0  0  0  0
   17.5084   18.4694   22.4198 C   0  0  0  0  0  0  0  0  0  0  0  0
   17.8235   17.8567   23.2713 H   0  0  0  0  0  0  0  0  0  0  0  0
   16.8940   17.8362   21.7667 H   0  0  0  0  0  0  0  0  0  0  0  0
   16.8664   19.2742   22.8008 H   0  0  0  0  0  0  0  0  0  0  0  0
  1  2  1  0  0  0  0
  1  3  1  0  0  0  0
  1  4  1  0  0  0  0
  1  5  1  0  0  0  0
  5  6  1  0  0  0  0
  5  7  1  0  0  0  0
  7  8  1  0  0  0  0
  7  9  1  0  0  0  0
  7 10  1  0  0  0  0
  5 11  1  0  0  0  0
 11 12  1  0  0  0  0
 11 13  1  0  0  0  0
 11 14  1  0  0  0  0
 14 15  1  0  0  0  0
 14 16  1  0  0  0  0
 14 17  1  0  0  0  0
 17 18  1  0  0  0  0
 17 19  1  0  0  0  0
 17 20  1  0  0  0  0
M  END
> <VConfSearch Rank>
469

> <Conf_Id>
35

> <Delta U+W>
3.004

> <U+W>
-33.272

> <U>
25.367

> <W>
-58.639

> <W(PB)>
-60.512

> <W(SA)>
1.873

> <Valence>
4.943

> <Coulomb>
19.661

> <VdW>
0.764

> <VdW6>
-5.871

> <VdW12>
6.636

> <Bond>
0.230

> <Angle>
1.857

> <Pdih>
2.855

> <Idih>
0.000

> <Tether>
0.000

$$$$
VeraChem MOL file


 20 19  0  0  0  0  0  0  0  0999 V2000     
   20.3985   17.4010   23.3012 N   0  3  0  0  0  0  0  0  0  0  0  0
   21.0947   16.6960   23.0443 H   0  0  0  0  0  0  0  0  0  0  0  0
   19.7418   16.9583   23.9496 H   0  0  0  0  0  0  0  0  0  0  0  0
   20.8817   18.1415   23.8133 H   0  0  0  0  0  0  0  0  0  0  0  0
   19.6932   17.9473   22.0903 C   0  0  2  0  0  0  0  0  0  0  0  0
   19.1928   17.0872   21.6345 H   0  0  0  0  0  0  0  0  0  0  0  0
   20.6937   18.4954   21.0573 C   0  0  0  0  0  0  0  0  0  0  0  0
   21.3035   19.3055   21.4746 H   0  0  0  0  0  0  0  0  0  0  0  0
   20.1693   18.8791   20.1735 H   0  0  0  0  0  0  0  0  0  0  0  0
   21.3734   17.7024   20.7224 H   0  0  0  0  0  0  0  0  0  0  0  0
   18.5867   18.9740   22.4437 C   0  0  0  0  0  0  0  0  0  0  0  0
   17.9343   19.0745   21.5663 H   0  0  0  0  0  0  0  0  0  0  0  0
   17.9499   18.5529   23.2326 H   0  0  0  0  0  0  0  0  0  0  0  0
   19.0441   20.3999   22.8610 C   0  0  0  0  0  0  0  0  0  0  0  0
   18.1448   21.0083   23.0310 H   0  0  0  0  0  0  0  0  0  0  0  0
   19.5764   20.8869   22.0327 H   0  0  0  0  0  0  0  0  0  0  0  0
   19.9125   20.4511   24.1385 C   0  0  0  0  0  0  0  0  0  0  0  0
   19.4431   19.8969   24.9617 H   0  0  0  0  0  0  0  0  0  0  0  0
   20.0418   21.4901   24.4685 H   0  0  0  0  0  0  0  0  0  0  0  0
   20.9145   20.0433   23.9622 H   0  0  0  0  0  0  0  0  0  0  0  0
  1  2  1  0  0  0  0
  1  3  1  0  0  0  0
  1  4  1  0  0  0  0
  1  5  1  0  0  0  0
  5  6  1  0  0  0  0
  5  7  1  0  0  0  0
  7  8  1  0  0  0  0
  7  9  1  0  0  0  0
  7 10  1  0  0  0  0
  5 11  1  0  0  0  0
 11 12  1  0  0  0  0
 11 13  1  0  0  0  0
 11 14  1  0  0  0  0
 14 15  1  0  0  0  0
 14 16  1  0  0  0  0
 14 17  1  0  0  0  0
 17 18  1  0  0  0  0
 17 19  1  0  0  0  0
 17 20  1  0  0  0  0
M  END
> <VConfSearch Rank>
470

> <Conf_Id>
55

> <Delta U+W>
2.767

> <U+W>
-33.509

> <U>
24.552

> <W>
-58.061

> <W(PB)>
-59.930

> <W(SA)>
1.869

> <Valence>
3.726

> <Coulomb>
20.219

> <VdW>
0.606

> <VdW6>
-6.395

> <VdW12>
7.001

> <Bond>
0.241

> <Angle>
2.098

> <Pdih>
1.387

> <Idih>
0.000

> <Tether>
0.000

$$$$
VeraChem MOL file


 20 19  0  0  0  0  0  0  0  0999 V2000     
   20.5584   20.3444   23.8572 N   0  3  0  0  0  0  0  0  0  0  0  0
   20.4500   19.8627   24.7532 H   0  0  0  0  0  0  0  0  0  0  0  0
   20.6130   21.3472   24.0546 H   0  0  0  0  0  0  0  0  0  0  0  0
   21.4598   20.0629   23.4637 H   0  0  0  0  0  0  0  0  0  0  0  0
   19.4237   20.0283   22.9203 C   0  0  2  0  0  0  0  0  0  0  0  0
   19.6191   20.5761   21.9931 H   0  0  0  0  0  0  0  0  0  0  0  0
   18.0897   20.5256   23.5008 C   0  0  0  0  0  0  0  0  0  0  0  0
   18.1332   21.6020   23.7077 H   0  0  0  0  0  0  0  0  0  0  0  0
   17.8455   20.0073   24.4365 H   0  0  0  0  0  0  0  0  0  0  0  0
   17.2689   20.3566   22.7927 H   0  0  0  0  0  0  0  0  0  0  0  0
   19.3346   18.5237   22.5824 C   0  0  0  0  0  0  0  0  0  0  0  0
   19.1621   17.9478   23.5014 H   0  0  0  0  0  0  0  0  0  0  0  0
   18.4600   18.3563   21.9396 H   0  0  0  0  0  0  0  0  0  0  0  0
   20.5945   17.9896   21.8592 C   0  0  0  0  0  0  0  0  0  0  0  0
   21.4764   18.0942   22.5055 H   0  0  0  0  0  0  0  0  0  0  0  0
   20.7868   18.5897   20.9586 H   0  0  0  0  0  0  0  0  0  0  0  0
   20.4373   16.5064   21.4609 C   0  0  0  0  0  0  0  0  0  0  0  0
   20.2738   15.8754   22.3443 H   0  0  0  0  0  0  0  0  0  0  0  0
   21.3395   16.1442   20.9511 H   0  0  0  0  0  0  0  0  0  0  0  0
   19.5876   16.3675   20.7798 H   0  0  0  0  0  0  0  0  0  0  0  0
  1  2  1  0  0  0  0
  1  3  1  0  0  0  0
  1  4  1  0  0  0  0
  1  5  1  0  0  0  0
  5  6  1  0  0  0  0
  5  7  1  0  0  0  0
  7  8  1  0  0  0  0
  7  9  1  0  0  0  0
  7 10  1  0  0  0  0
  5 11  1  0  0  0  0
 11 12  1  0  0  0  0
 11 13  1  0  0  0  0
 11 14  1  0  0  0  0
 14 15  1  0  0  0  0
 14 16  1  0  0  0  0
 14 17  1  0  0  0  0
 17 18  1  0  0  0  0
 17 19  1  0  0  0  0
 17 20  1  0  0  0  0
M  END
> <VConfSearch Rank>
471

> <Conf_Id>
74

> <Delta U+W>
0.000

> <U+W>
-36.276

> <U>
22.080

> <W>
-58.356

> <W(PB)>
-60.289

> <W(SA)>
1.932

> <Valence>
1.885

> <Coulomb>
19.559

> <VdW>
0.637

> <VdW6>
-4.482

> <VdW12>
5.119

> <Bond>
0.136

> <Angle>
0.867

> <Pdih>
0.882

> <Idih>
0.000

> <Tether>
0.000

$$$$
VeraChem MOL file


 20 19  0  0  0  0  0  0  0  0999 V2000     
   20.1745   16.7813   21.7728 N   0  3  0  0  0  0  0  0  0  0  0  0
   20.3111   16.2083   22.6100 H   0  0  0  0  0  0  0  0  0  0  0  0
   21.0995   16.9800   21.3834 H   0  0  0  0  0  0  0  0  0  0  0  0
   19.6747   16.2048   21.0905 H   0  0  0  0  0  0  0  0  0  0  0  0
   19.4215   18.0461   22.0819 C   0  0  2  0  0  0  0  0  0  0  0  0
   18.4529   17.7369   22.4870 H   0  0  0  0  0  0  0  0  0  0  0  0
   19.1746   18.8494   20.7917 C   0  0  0  0  0  0  0  0  0  0  0  0
   18.7031   18.2185   20.0281 H   0  0  0  0  0  0  0  0  0  0  0  0
   20.1144   19.2370   20.3792 H   0  0  0  0  0  0  0  0  0  0  0  0
   18.5025   19.6963   20.9710 H   0  0  0  0  0  0  0  0  0  0  0  0
   20.1512   18.8825   23.1587 C   0  0  0  0  0  0  0  0  0  0  0  0
   20.3923   18.2253   24.0047 H   0  0  0  0  0  0  0  0  0  0  0  0
   21.1099   19.2414   22.7614 H   0  0  0  0  0  0  0  0  0  0  0  0
   19.3243   20.0801   23.6871 C   0  0  0  0  0  0  0  0  0  0  0  0
   18.3395   19.7295   24.0269 H   0  0  0  0  0  0  0  0  0  0  0  0
   19.1442   20.8041   22.8814 H   0  0  0  0  0  0  0  0  0  0  0  0
   20.0411   20.7980   24.8509 C   0  0  0  0  0  0  0  0  0  0  0  0
   20.2018   20.1174   25.6971 H   0  0  0  0  0  0  0  0  0  0  0  0
   19.4433   21.6457   25.2105 H   0  0  0  0  0  0  0  0  0  0  0  0
   21.0180   21.1857   24.5338 H   0  0  0  0  0  0  0  0  0  0  0  0
  1  2  1  0  0  0  0
  1  3  1  0  0  0  0
  1  4  1  0  0  0  0
  1  5  1  0  0  0  0
  5  6  1  0  0  0  0
  5  7  1  0  0  0  0
  7  8  1  0  0  0  0
  7  9  1  0  0  0  0
  7 10  1  0  0  0  0
  5 11  1  0  0  0  0
 11 12  1  0  0  0  0
 11 13  1  0  0  0  0
 11 14  1  0  0  0  0
 14 15  1  0  0  0  0
 14 16  1  0  0  0  0
 14 17  1  0  0  0  0
 17 18  1  0  0  0  0
 17 19  1  0  0  0  0
 17 20  1  0  0  0  0
M  END
> <VConfSearch Rank>
472

> <Conf_Id>
80

> <Delta U+W>
0.460

> <U+W>
-35.817

> <U>
22.495

> <W>
-58.311

> <W(PB)>
-60.259

> <W(SA)>
1.948

> <Valence>
2.419

> <Coulomb>
19.304

> <VdW>
0.772

> <VdW6>
-4.635

> <VdW12>
5.407

> <Bond>
0.149

> <Angle>
1.142

> <Pdih>
1.129

> <Idih>
0.000

> <Tether>
0.000

$$$$
VeraChem MOL file


 20 19  0  0  0  0  0  0  0  0999 V2000     
   19.8295   16.4973   22.9755 N   0  3  0  0  0  0  0  0  0  0  0  0
   20.7469   16.1267   22.7129 H   0  0  0  0  0  0  0  0  0  0  0  0
   19.1893   16.3083   22.2002 H   0  0  0  0  0  0  0  0  0  0  0  0
   19.5029   15.9539   23.7791 H   0  0  0  0  0  0  0  0  0  0  0  0
   19.8934   17.9662   23.2933 C   0  0  2  0  0  0  0  0  0  0  0  0
   20.5910   18.0683   24.1304 H   0  0  0  0  0  0  0  0  0  0  0  0
   18.5158   18.4714   23.7549 C   0  0  0  0  0  0  0  0  0  0  0  0
   18.1103   17.8253   24.5431 H   0  0  0  0  0  0  0  0  0  0  0  0
   17.7988   18.4874   22.9247 H   0  0  0  0  0  0  0  0  0  0  0  0
   18.5882   19.4816   24.1735 H   0  0  0  0  0  0  0  0  0  0  0  0
   20.4587   18.7695   22.0965 C   0  0  0  0  0  0  0  0  0  0  0  0
   21.4186   18.3145   21.8185 H   0  0  0  0  0  0  0  0  0  0  0  0
   19.8082   18.6524   21.2197 H   0  0  0  0  0  0  0  0  0  0  0  0
   20.7137   20.2739   22.3786 C   0  0  0  0  0  0  0  0  0  0  0  0
   21.6266   20.5799   21.8483 H   0  0  0  0  0  0  0  0  0  0  0  0
   20.9187   20.4331   23.4465 H   0  0  0  0  0  0  0  0  0  0  0  0
   19.5607   21.1917   21.9084 C   0  0  0  0  0  0  0  0  0  0  0  0
   19.3989   21.0951   20.8269 H   0  0  0  0  0  0  0  0  0  0  0  0
   19.7980   22.2432   22.1158 H   0  0  0  0  0  0  0  0  0  0  0  0
   18.6158   20.9596   22.4121 H   0  0  0  0  0  0  0  0  0  0  0  0
  1  2  1  0  0  0  0
  1  3  1  0  0  0  0
  1  4  1  0  0  0  0
  1  5  1  0  0  0  0
  5  6  1  0  0  0  0
  5  7  1  0  0  0  0
  7  8  1  0  0  0  0
  7  9  1  0  0  0  0
  7 10  1  0  0  0  0
  5 11  1  0  0  0  0
 11 12  1  0  0  0  0
 11 13  1  0  0  0  0
 11 14  1  0  0  0  0
 14 15  1  0  0  0  0
 14 16  1  0  0  0  0
 14 17  1  0  0  0  0
 17 18  1  0  0  0  0
 17 19  1  0  0  0  0
 17 20  1  0  0  0  0
M  END
> <VConfSearch Rank>
473

> <Conf_Id>
52

> <Delta U+W>
2.995

> <U+W>
-33.282

> <U>
25.224

> <W>
-58.506

> <W(PB)>
-60.411

> <W(SA)>
1.905

> <Valence>
4.945

> <Coulomb>
19.467

> <VdW>
0.813

> <VdW6>
-5.458

> <VdW12>
6.270

> <Bond>
0.200

> <Angle>
1.675

> <Pdih>
3.070

> <Idih>
0.000

> <Tether>
0.000

$$$$
VeraChem MOL file


 20 19  0  0  0  0  0  0  0  0999 V2000     
   19.2635   19.3584   21.2340 N   0  3  0  0  0  0  0  0  0  0  0  0
   18.7181   18.5429   20.9446 H   0  0  0  0  0  0  0  0  0  0  0  0
   19.5612   19.8448   20.3840 H   0  0  0  0  0  0  0  0  0  0  0  0
   18.6338   19.9827   21.7427 H   0  0  0  0  0  0  0  0  0  0  0  0
   20.4396   18.9588   22.0827 C   0  0  2  0  0  0  0  0  0  0  0  0
   20.9976   19.8722   22.3107 H   0  0  0  0  0  0  0  0  0  0  0  0
   21.3609   18.0183   21.2874 C   0  0  0  0  0  0  0  0  0  0  0  0
   20.8533   17.0762   21.0454 H   0  0  0  0  0  0  0  0  0  0  0  0
   22.2664   17.7816   21.8598 H   0  0  0  0  0  0  0  0  0  0  0  0
   21.6775   18.4874   20.3476 H   0  0  0  0  0  0  0  0  0  0  0  0
   20.0192   18.2998   23.4181 C   0  0  0  0  0  0  0  0  0  0  0  0
   19.2529   17.5354   23.2336 H   0  0  0  0  0  0  0  0  0  0  0  0
   20.8840   17.7636   23.8312 H   0  0  0  0  0  0  0  0  0  0  0  0
   19.5333   19.2913   24.5078 C   0  0  0  0  0  0  0  0  0  0  0  0
   20.3241   20.0245   24.7204 H   0  0  0  0  0  0  0  0  0  0  0  0
   19.3843   18.7287   25.4402 H   0  0  0  0  0  0  0  0  0  0  0  0
   18.2193   20.0327   24.1719 C   0  0  0  0  0  0  0  0  0  0  0  0
   17.8397   20.5525   25.0613 H   0  0  0  0  0  0  0  0  0  0  0  0
   17.4406   19.3345   23.8381 H   0  0  0  0  0  0  0  0  0  0  0  0
   18.3710   20.7941   23.3982 H   0  0  0  0  0  0  0  0  0  0  0  0
  1  2  1  0  0  0  0
  1  3  1  0  0  0  0
  1  4  1  0  0  0  0
  1  5  1  0  0  0  0
  5  6  1  0  0  0  0
  5  7  1  0  0  0  0
  7  8  1  0  0  0  0
  7  9  1  0  0  0  0
  7 10  1  0  0  0  0
  5 11  1  0  0  0  0
 11 12  1  0  0  0  0
 11 13  1  0  0  0  0
 11 14  1  0  0  0  0
 14 15  1  0  0  0  0
 14 16  1  0  0  0  0
 14 17  1  0  0  0  0
 17 18  1  0  0  0  0
 17 19  1  0  0  0  0
 17 20  1  0  0  0  0
M  END
> <VConfSearch Rank>
474

> <Conf_Id>
54

> <Delta U+W>
2.752

> <U+W>
-33.525

> <U>
24.337

> <W>
-57.862

> <W(PB)>
-59.764

> <W(SA)>
1.901

> <Valence>
3.593

> <Coulomb>
20.067

> <VdW>
0.677

> <VdW6>
-5.466

> <VdW12>
6.144

> <Bond>
0.191

> <Angle>
1.557

> <Pdih>
1.845

> <Idih>
0.000

> <Tether>
0.000

$$$$
VeraChem MOL file


 20 19  0  0  0  0  0  0  0  0999 V2000     
   19.9361   20.8133   23.5816 N   0  3  0  0  0  0  0  0  0  0  0  0
   19.5953   21.7782   23.5632 H   0  0  0  0  0  0  0  0  0  0  0  0
   20.9053   20.8397   23.9096 H   0  0  0  0  0  0  0  0  0  0  0  0
   19.3881   20.3093   24.2824 H   0  0  0  0  0  0  0  0  0  0  0  0
   19.8276   20.1651   22.2281 C   0  0  2  0  0  0  0  0  0  0  0  0
   20.4273   20.7797   21.5493 H   0  0  0  0  0  0  0  0  0  0  0  0
   18.3761   20.1914   21.7171 C   0  0  0  0  0  0  0  0  0  0  0  0
   18.3009   19.7165   20.7311 H   0  0  0  0  0  0  0  0  0  0  0  0
   18.0242   21.2253   21.6151 H   0  0  0  0  0  0  0  0  0  0  0  0
   17.6949   19.6724   22.4017 H   0  0  0  0  0  0  0  0  0  0  0  0
   20.4271   18.7385   22.2042 C   0  0  0  0  0  0  0  0  0  0  0  0
   20.3980   18.3607   21.1736 H   0  0  0  0  0  0  0  0  0  0  0  0
   21.4902   18.8044   22.4706 H   0  0  0  0  0  0  0  0  0  0  0  0
   19.7300   17.7197   23.1425 C   0  0  0  0  0  0  0  0  0  0  0  0
   18.6758   17.6009   22.8585 H   0  0  0  0  0  0  0  0  0  0  0  0
   19.7420   18.0872   24.1773 H   0  0  0  0  0  0  0  0  0  0  0  0
   20.4189   16.3391   23.0912 C   0  0  0  0  0  0  0  0  0  0  0  0
   19.9136   15.6285   23.7581 H   0  0  0  0  0  0  0  0  0  0  0  0
   21.4681   16.4087   23.4069 H   0  0  0  0  0  0  0  0  0  0  0  0
   20.3946   15.9228   22.0756 H   0  0  0  0  0  0  0  0  0  0  0  0
  1  2  1  0  0  0  0
  1  3  1  0  0  0  0
  1  4  1  0  0  0  0
  1  5  1  0  0  0  0
  5  6  1  0  0  0  0
  5  7  1  0  0  0  0
  7  8  1  0  0  0  0
  7  9  1  0  0  0  0
  7 10  1  0  0  0  0
  5 11  1  0  0  0  0
 11 12  1  0  0  0  0
 11 13  1  0  0  0  0
 11 14  1  0  0  0  0
 14 15  1  0  0  0  0
 14 16  1  0  0  0  0
 14 17  1  0  0  0  0
 17 18  1  0  0  0  0
 17 19  1  0  0  0  0
 17 20  1  0  0  0  0
M  END
> <VConfSearch Rank>
475

> <Conf_Id>
63

> <Delta U+W>
0.420

> <U+W>
-35.856

> <U>
22.625

> <W>
-58.481

> <W(PB)>
-60.400

> <W(SA)>
1.919

> <Valence>
2.404

> <Coulomb>
19.464

> <VdW>
0.757

> <VdW6>
-5.074

> <VdW12>
5.830

> <Bond>
0.172

> <Angle>
1.207

> <Pdih>
1.025

> <Idih>
0.000

> <Tether>
0.000

$$$$
VeraChem MOL file


 20 19  0  0  0  0  0  0  0  0999 V2000     
   18.3161   17.8539   22.8054 N   0  3  0  0  0  0  0  0  0  0  0  0
   19.0287   17.1275   22.6995 H   0  0  0  0  0  0  0  0  0  0  0  0
   17.7893   17.8986   21.9297 H   0  0  0  0  0  0  0  0  0  0  0  0
   17.6696   17.5439   23.5358 H   0  0  0  0  0  0  0  0  0  0  0  0
   18.9358   19.1826   23.1443 C   0  0  2  0  0  0  0  0  0  0  0  0
   19.4730   19.0477   24.0878 H   0  0  0  0  0  0  0  0  0  0  0  0
   17.8498   20.2490   23.3605 C   0  0  0  0  0  0  0  0  0  0  0  0
   17.1520   19.9387   24.1479 H   0  0  0  0  0  0  0  0  0  0  0  0
   17.2742   20.4222   22.4427 H   0  0  0  0  0  0  0  0  0  0  0  0
   18.2960   21.2027   23.6689 H   0  0  0  0  0  0  0  0  0  0  0  0
   19.9468   19.6534   22.0741 C   0  0  0  0  0  0  0  0  0  0  0  0
   19.4227   19.8104   21.1219 H   0  0  0  0  0  0  0  0  0  0  0  0
   20.3481   20.6324   22.3680 H   0  0  0  0  0  0  0  0  0  0  0  0
   21.1305   18.6793   21.8464 C   0  0  0  0  0  0  0  0  0  0  0  0
   21.7866   19.0972   21.0701 H   0  0  0  0  0  0  0  0  0  0  0  0
   20.7646   17.7228   21.4491 H   0  0  0  0  0  0  0  0  0  0  0  0
   21.9634   18.4288   23.1243 C   0  0  0  0  0  0  0  0  0  0  0  0
   22.3407   19.3721   23.5404 H   0  0  0  0  0  0  0  0  0  0  0  0
   22.8293   17.7923   22.9002 H   0  0  0  0  0  0  0  0  0  0  0  0
   21.3738   17.9237   23.8996 H   0  0  0  0  0  0  0  0  0  0  0  0
  1  2  1  0  0  0  0
  1  3  1  0  0  0  0
  1  4  1  0  0  0  0
  1  5  1  0  0  0  0
  5  6  1  0  0  0  0
  5  7  1  0  0  0  0
  7  8  1  0  0  0  0
  7  9  1  0  0  0  0
  7 10  1  0  0  0  0
  5 11  1  0  0  0  0
 11 12  1  0  0  0  0
 11 13  1  0  0  0  0
 11 14  1  0  0  0  0
 14 15  1  0  0  0  0
 14 16  1  0  0  0  0
 14 17  1  0  0  0  0
 17 18  1  0  0  0  0
 17 19  1  0  0  0  0
 17 20  1  0  0  0  0
M  END
> <VConfSearch Rank>
476

> <Conf_Id>
50

> <Delta U+W>
0.466

> <U+W>
-35.811

> <U>
22.369

> <W>
-58.180

> <W(PB)>
-60.103

> <W(SA)>
1.923

> <Valence>
2.168

> <Coulomb>
19.636

> <VdW>
0.566

> <VdW6>
-5.263

> <VdW12>
5.829

> <Bond>
0.162

> <Angle>
1.066

> <Pdih>
0.939

> <Idih>
0.000

> <Tether>
0.000

$$$$
VeraChem MOL file


 20 19  0  0  0  0  0  0  0  0999 V2000     
   18.3136   17.9635   24.3613 N   0  3  0  0  0  0  0  0  0  0  0  0
   18.5832   16.9765   24.3941 H   0  0  0  0  0  0  0  0  0  0  0  0
   17.3610   18.0097   23.9907 H   0  0  0  0  0  0  0  0  0  0  0  0
   18.2807   18.3000   25.3275 H   0  0  0  0  0  0  0  0  0  0  0  0
   19.2707   18.7730   23.5286 C   0  0  2  0  0  0  0  0  0  0  0  0
   20.2532   18.6598   23.9973 H   0  0  0  0  0  0  0  0  0  0  0  0
   18.8739   20.2606   23.5666 C   0  0  0  0  0  0  0  0  0  0  0  0
   17.8714   20.4131   23.1479 H   0  0  0  0  0  0  0  0  0  0  0  0
   19.5744   20.8792   22.9953 H   0  0  0  0  0  0  0  0  0  0  0  0
   18.8701   20.6331   24.5983 H   0  0  0  0  0  0  0  0  0  0  0  0
   19.3654   18.2423   22.0768 C   0  0  0  0  0  0  0  0  0  0  0  0
   18.9598   17.2226   22.0397 H   0  0  0  0  0  0  0  0  0  0  0  0
   18.7291   18.8377   21.4085 H   0  0  0  0  0  0  0  0  0  0  0  0
   20.8117   18.1836   21.5233 C   0  0  0  0  0  0  0  0  0  0  0  0
   20.7869   17.7247   20.5249 H   0  0  0  0  0  0  0  0  0  0  0  0
   21.4184   17.5157   22.1509 H   0  0  0  0  0  0  0  0  0  0  0  0
   21.5055   19.5600   21.4201 C   0  0  0  0  0  0  0  0  0  0  0  0
   20.9023   20.2649   20.8334 H   0  0  0  0  0  0  0  0  0  0  0  0
   22.4805   19.4616   20.9254 H   0  0  0  0  0  0  0  0  0  0  0  0
   21.6840   19.9943   22.4116 H   0  0  0  0  0  0  0  0  0  0  0  0
  1  2  1  0  0  0  0
  1  3  1  0  0  0  0
  1  4  1  0  0  0  0
  1  5  1  0  0  0  0
  5  6  1  0  0  0  0
  5  7  1  0  0  0  0
  7  8  1  0  0  0  0
  7  9  1  0  0  0  0
  7 10  1  0  0  0  0
  5 11  1  0  0  0  0
 11 12  1  0  0  0  0
 11 13  1  0  0  0  0
 11 14  1  0  0  0  0
 14 15  1  0  0  0  0
 14 16  1  0  0  0  0
 14 17  1  0  0  0  0
 17 18  1  0  0  0  0
 17 19  1  0  0  0  0
 17 20  1  0  0  0  0
M  END
> <VConfSearch Rank>
477

> <Conf_Id>
3

> <Delta U+W>
3.093

> <U+W>
-33.184

> <U>
25.256

> <W>
-58.439

> <W(PB)>
-60.337

> <W(SA)>
1.898

> <Valence>
4.963

> <Coulomb>
19.511

> <VdW>
0.782

> <VdW6>
-5.429

> <VdW12>
6.211

> <Bond>
0.174

> <Angle>
1.377

> <Pdih>
3.412

> <Idih>
0.000

> <Tether>
0.000

$$$$
VeraChem MOL file


 20 19  0  0  0  0  0  0  0  0999 V2000     
   20.3048   19.1532   20.5816 N   0  3  0  0  0  0  0  0  0  0  0  0
   19.8219   19.7663   19.9194 H   0  0  0  0  0  0  0  0  0  0  0  0
   20.2311   18.1988   20.2190 H   0  0  0  0  0  0  0  0  0  0  0  0
   21.2949   19.4106   20.5676 H   0  0  0  0  0  0  0  0  0  0  0  0
   19.7234   19.2686   21.9640 C   0  0  2  0  0  0  0  0  0  0  0  0
   18.6714   18.9801   21.8791 H   0  0  0  0  0  0  0  0  0  0  0  0
   19.7895   20.7270   22.4527 C   0  0  0  0  0  0  0  0  0  0  0  0
   19.2465   20.8553   23.3962 H   0  0  0  0  0  0  0  0  0  0  0  0
   19.3302   21.4017   21.7199 H   0  0  0  0  0  0  0  0  0  0  0  0
   20.8273   21.0475   22.6068 H   0  0  0  0  0  0  0  0  0  0  0  0
   20.4168   18.2946   22.9462 C   0  0  0  0  0  0  0  0  0  0  0  0
   20.4085   17.2881   22.5075 H   0  0  0  0  0  0  0  0  0  0  0  0
   21.4740   18.5732   23.0486 H   0  0  0  0  0  0  0  0  0  0  0  0
   19.7749   18.2176   24.3552 C   0  0  0  0  0  0  0  0  0  0  0  0
   19.8854   19.1771   24.8779 H   0  0  0  0  0  0  0  0  0  0  0  0
   20.3306   17.4835   24.9553 H   0  0  0  0  0  0  0  0  0  0  0  0
   18.2843   17.8101   24.3204 C   0  0  0  0  0  0  0  0  0  0  0  0
   18.1484   16.8535   23.7993 H   0  0  0  0  0  0  0  0  0  0  0  0
   17.6711   18.5668   23.8150 H   0  0  0  0  0  0  0  0  0  0  0  0
   17.8933   17.6948   25.3396 H   0  0  0  0  0  0  0  0  0  0  0  0
  1  2  1  0  0  0  0
  1  3  1  0  0  0  0
  1  4  1  0  0  0  0
  1  5  1  0  0  0  0
  5  6  1  0  0  0  0
  5  7  1  0  0  0  0
  7  8  1  0  0  0  0
  7  9  1  0  0  0  0
  7 10  1  0  0  0  0
  5 11  1  0  0  0  0
 11 12  1  0  0  0  0
 11 13  1  0  0  0  0
 11 14  1  0  0  0  0
 14 15  1  0  0  0  0
 14 16  1  0  0  0  0
 14 17  1  0  0  0  0
 17 18  1  0  0  0  0
 17 19  1  0  0  0  0
 17 20  1  0  0  0  0
M  END
> <VConfSearch Rank>
478

> <Conf_Id>
64

> <Delta U+W>
0.544

> <U+W>
-35.732

> <U>
22.800

> <W>
-58.532

> <W(PB)>
-60.437

> <W(SA)>
1.905

> <Valence>
2.662

> <Coulomb>
19.485

> <VdW>
0.653

> <VdW6>
-5.460

> <VdW12>
6.113

> <Bond>
0.174

> <Angle>
1.378

> <Pdih>
1.109

> <Idih>
0.000

> <Tether>
0.000

$$$$
VeraChem MOL file


 20 19  0  0  0  0  0  0  0  0999 V2000     
   21.4522   18.7186   21.4179 N   0  3  0  0  0  0  0  0  0  0  0  0
   20.7986   18.0405   21.0201 H   0  0  0  0  0  0  0  0  0  0  0  0
   22.3605   18.2544   21.5022 H   0  0  0  0  0  0  0  0  0  0  0  0
   21.5605   19.4761   20.7382 H   0  0  0  0  0  0  0  0  0  0  0  0
   20.9713   19.2326   22.7481 C   0  0  2  0  0  0  0  0  0  0  0  0
   21.7369   19.9351   23.0919 H   0  0  0  0  0  0  0  0  0  0  0  0
   20.8950   18.0955   23.7801 C   0  0  0  0  0  0  0  0  0  0  0  0
   20.2434   17.2839   23.4358 H   0  0  0  0  0  0  0  0  0  0  0  0
   20.5161   18.4645   24.7411 H   0  0  0  0  0  0  0  0  0  0  0  0
   21.8909   17.6710   23.9562 H   0  0  0  0  0  0  0  0  0  0  0  0
   19.6481   20.0299   22.6285 C   0  0  0  0  0  0  0  0  0  0  0  0
   19.4346   20.5267   23.5840 H   0  0  0  0  0  0  0  0  0  0  0  0
   19.8197   20.8444   21.9126 H   0  0  0  0  0  0  0  0  0  0  0  0
   18.4019   19.2267   22.1623 C   0  0  0  0  0  0  0  0  0  0  0  0
   18.6920   18.4084   21.4903 H   0  0  0  0  0  0  0  0  0  0  0  0
   17.7648   19.8932   21.5640 H   0  0  0  0  0  0  0  0  0  0  0  0
   17.5471   18.6794   23.3296 C   0  0  0  0  0  0  0  0  0  0  0  0
   18.1021   17.9681   23.9507 H   0  0  0  0  0  0  0  0  0  0  0  0
   16.6604   18.1596   22.9442 H   0  0  0  0  0  0  0  0  0  0  0  0
   17.1985   19.4944   23.9771 H   0  0  0  0  0  0  0  0  0  0  0  0
  1  2  1  0  0  0  0
  1  3  1  0  0  0  0
  1  4  1  0  0  0  0
  1  5  1  0  0  0  0
  5  6  1  0  0  0  0
  5  7  1  0  0  0  0
  7  8  1  0  0  0  0
  7  9  1  0  0  0  0
  7 10  1  0  0  0  0
  5 11  1  0  0  0  0
 11 12  1  0  0  0  0
 11 13  1  0  0  0  0
 11 14  1  0  0  0  0
 14 15  1  0  0  0  0
 14 16  1  0  0  0  0
 14 17  1  0  0  0  0
 17 18  1  0  0  0  0
 17 19  1  0  0  0  0
 17 20  1  0  0  0  0
M  END
> <VConfSearch Rank>
479

> <Conf_Id>
35

> <Delta U+W>
3.004

> <U+W>
-33.272

> <U>
25.367

> <W>
-58.639

> <W(PB)>
-60.512

> <W(SA)>
1.873

> <Valence>
4.943

> <Coulomb>
19.661

> <VdW>
0.764

> <VdW6>
-5.871

> <VdW12>
6.636

> <Bond>
0.230

> <Angle>
1.857

> <Pdih>
2.855

> <Idih>
0.000

> <Tether>
0.000

$$$$
VeraChem MOL file


 20 19  0  0  0  0  0  0  0  0999 V2000     
   18.2391   18.4609   22.0138 N   0  3  0  0  0  0  0  0  0  0  0  0
   17.6522   17.6229   21.9856 H   0  0  0  0  0  0  0  0  0  0  0  0
   17.9215   19.0806   21.2636 H   0  0  0  0  0  0  0  0  0  0  0  0
   18.0587   18.9362   22.9001 H   0  0  0  0  0  0  0  0  0  0  0  0
   19.6965   18.1194   21.8660 C   0  0  2  0  0  0  0  0  0  0  0  0
   19.7839   17.6435   20.8842 H   0  0  0  0  0  0  0  0  0  0  0  0
   20.1405   17.0864   22.9168 C   0  0  0  0  0  0  0  0  0  0  0  0
   19.9930   17.4583   23.9377 H   0  0  0  0  0  0  0  0  0  0  0  0
   21.2010   16.8353   22.7915 H   0  0  0  0  0  0  0  0  0  0  0  0
   19.5645   16.1590   22.8113 H   0  0  0  0  0  0  0  0  0  0  0  0
   20.6136   19.3690   21.8414 C   0  0  0  0  0  0  0  0  0  0  0  0
   21.5820   19.0623   21.4245 H   0  0  0  0  0  0  0  0  0  0  0  0
   20.2060   20.0951   21.1260 H   0  0  0  0  0  0  0  0  0  0  0  0
   20.8845   20.0814   23.1963 C   0  0  0  0  0  0  0  0  0  0  0  0
   21.5818   20.9102   23.0103 H   0  0  0  0  0  0  0  0  0  0  0  0
   21.4088   19.4045   23.8845 H   0  0  0  0  0  0  0  0  0  0  0  0
   19.6259   20.6530   23.8878 C   0  0  0  0  0  0  0  0  0  0  0  0
   19.0348   21.2664   23.1953 H   0  0  0  0  0  0  0  0  0  0  0  0
   19.9139   21.2908   24.7337 H   0  0  0  0  0  0  0  0  0  0  0  0
   18.9886   19.8565   24.2887 H   0  0  0  0  0  0  0  0  0  0  0  0
  1  2  1  0  0  0  0
  1  3  1  0  0  0  0
  1  4  1  0  0  0  0
  1  5  1  0  0  0  0
  5  6  1  0  0  0  0
  5  7  1  0  0  0  0
  7  8  1  0  0  0  0
  7  9  1  0  0  0  0
  7 10  1  0  0  0  0
  5 11  1  0  0  0  0
 11 12  1  0  0  0  0
 11 13  1  0  0  0  0
 11 14  1  0  0  0  0
 14 15  1  0  0  0  0
 14 16  1  0  0  0  0
 14 17  1  0  0  0  0
 17 18  1  0  0  0  0
 17 19  1  0  0  0  0
 17 20  1  0  0  0  0
M  END
> <VConfSearch Rank>
480

> <Conf_Id>
55

> <Delta U+W>
2.767

> <U+W>
-33.509

> <U>
24.552

> <W>
-58.061

> <W(PB)>
-59.930

> <W(SA)>
1.869

> <Valence>
3.726

> <Coulomb>
20.219

> <VdW>
0.606

> <VdW6>
-6.395

> <VdW12>
7.001

> <Bond>
0.241

> <Angle>
2.098

> <Pdih>
1.387

> <Idih>
0.000

> <Tether>
0.000

$$$$
VeraChem MOL file


 20 19  0  0  0  0  0  0  0  0999 V2000     
   20.8975   19.6333   24.1676 N   0  3  0  0  0  0  0  0  0  0  0  0
   20.1797   20.1568   24.6748 H   0  0  0  0  0  0  0  0  0  0  0  0
   21.8020   20.0525   24.3995 H   0  0  0  0  0  0  0  0  0  0  0  0
   20.9013   18.6794   24.5372 H   0  0  0  0  0  0  0  0  0  0  0  0
   20.6469   19.6499   22.6837 C   0  0  2  0  0  0  0  0  0  0  0  0
   21.4514   19.0688   22.2221 H   0  0  0  0  0  0  0  0  0  0  0  0
   20.7181   21.0863   22.1401 C   0  0  0  0  0  0  0  0  0  0  0  0
   21.6875   21.5430   22.3746 H   0  0  0  0  0  0  0  0  0  0  0  0
   19.9303   21.7149   22.5738 H   0  0  0  0  0  0  0  0  0  0  0  0
   20.6014   21.0968   21.0492 H   0  0  0  0  0  0  0  0  0  0  0  0
   19.2998   18.9974   22.3019 C   0  0  0  0  0  0  0  0  0  0  0  0
   18.4752   19.5488   22.7729 H   0  0  0  0  0  0  0  0  0  0  0  0
   19.1573   19.0884   21.2168 H   0  0  0  0  0  0  0  0  0  0  0  0
   19.2192   17.5018   22.6919 C   0  0  0  0  0  0  0  0  0  0  0  0
   19.3027   17.3882   23.7812 H   0  0  0  0  0  0  0  0  0  0  0  0
   20.0653   16.9575   22.2492 H   0  0  0  0  0  0  0  0  0  0  0  0
   17.8964   16.8605   22.2205 C   0  0  0  0  0  0  0  0  0  0  0  0
   17.0309   17.3641   22.6706 H   0  0  0  0  0  0  0  0  0  0  0  0
   17.8555   15.8014   22.5063 H   0  0  0  0  0  0  0  0  0  0  0  0
   17.7956   16.9181   21.1288 H   0  0  0  0  0  0  0  0  0  0  0  0
  1  2  1  0  0  0  0
  1  3  1  0  0  0  0
  1  4  1  0  0  0  0
  1  5  1  0  0  0  0
  5  6  1  0  0  0  0
  5  7  1  0  0  0  0
  7  8  1  0  0  0  0
  7  9  1  0  0  0  0
  7 10  1  0  0  0  0
  5 11  1  0  0  0  0
 11 12  1  0  0  0  0
 11 13  1  0  0  0  0
 11 14  1  0  0  0  0
 14 15  1  0  0  0  0
 14 16  1  0  0  0  0
 14 17  1  0  0  0  0
 17 18  1  0  0  0  0
 17 19  1  0  0  0  0
 17 20  1  0  0  0  0
M  END
> <VConfSearch Rank>
481

> <Conf_Id>
74

> <Delta U+W>
0.000

> <U+W>
-36.276

> <U>
22.080

> <W>
-58.356

> <W(PB)>
-60.289

> <W(SA)>
1.932

> <Valence>
1.885

> <Coulomb>
19.559

> <VdW>
0.637

> <VdW6>
-4.482

> <VdW12>
5.119

> <Bond>
0.136

> <Angle>
0.867

> <Pdih>
0.882

> <Idih>
0.000

> <Tether>
0.000

$$$$
VeraChem MOL file


 20 19  0  0  0  0  0  0  0  0999 V2000     
   20.3410   20.4273   24.4883 N   0  3  0  0  0  0  0  0  0  0  0  0
   20.7936   19.7934   25.1524 H   0  0  0  0  0  0  0  0  0  0  0  0
   19.3998   20.6191   24.8406 H   0  0  0  0  0  0  0  0  0  0  0  0
   20.8599   21.3093   24.5111 H   0  0  0  0  0  0  0  0  0  0  0  0
   20.3042   19.8456   23.1017 C   0  0  2  0  0  0  0  0  0  0  0  0
   21.3458   19.6780   22.8102 H   0  0  0  0  0  0  0  0  0  0  0  0
   19.6798   20.8515   22.1172 C   0  0  0  0  0  0  0  0  0  0  0  0
   20.1842   21.8231   22.1857 H   0  0  0  0  0  0  0  0  0  0  0  0
   18.6146   21.0059   22.3293 H   0  0  0  0  0  0  0  0  0  0  0  0
   19.7780   20.5091   21.0806 H   0  0  0  0  0  0  0  0  0  0  0  0
   19.5725   18.4834   23.0858 C   0  0  0  0  0  0  0  0  0  0  0  0
   19.9936   17.8536   23.8806 H   0  0  0  0  0  0  0  0  0  0  0  0
   18.5130   18.6298   23.3342 H   0  0  0  0  0  0  0  0  0  0  0  0
   19.6931   17.7242   21.7418 C   0  0  0  0  0  0  0  0  0  0  0  0
   20.7520   17.6329   21.4614 H   0  0  0  0  0  0  0  0  0  0  0  0
   19.1985   18.2881   20.9397 H   0  0  0  0  0  0  0  0  0  0  0  0
   19.0625   16.3173   21.8236 C   0  0  0  0  0  0  0  0  0  0  0  0
   19.5594   15.7045   22.5871 H   0  0  0  0  0  0  0  0  0  0  0  0
   19.1535   15.7952   20.8623 H   0  0  0  0  0  0  0  0  0  0  0  0
   17.9954   16.3769   22.0745 H   0  0  0  0  0  0  0  0  0  0  0  0
  1  2  1  0  0  0  0
  1  3  1  0  0  0  0
  1  4  1  0  0  0  0
  1  5  1  0  0  0  0
  5  6  1  0  0  0  0
  5  7  1  0  0  0  0
  7  8  1  0  0  0  0
  7  9  1  0  0  0  0
  7 10  1  0  0  0  0
  5 11  1  0  0  0  0
 11 12  1  0  0  0  0
 11 13  1  0  0  0  0
 11 14  1  0  0  0  0
 14 15  1  0  0  0  0
 14 16  1  0  0  0  0
 14 17  1  0  0  0  0
 17 18  1  0  0  0  0
 17 19  1  0  0  0  0
 17 20  1  0  0  0  0
M  END
> <VConfSearch Rank>
482

> <Conf_Id>
80

> <Delta U+W>
0.460

> <U+W>
-35.817

> <U>
22.495

> <W>
-58.311

> <W(PB)>
-60.259

> <W(SA)>
1.948

> <Valence>
2.419

> <Coulomb>
19.304

> <VdW>
0.772

> <VdW6>
-4.635

> <VdW12>
5.407

> <Bond>
0.149

> <Angle>
1.142

> <Pdih>
1.129

> <Idih>
0.000

> <Tether>
0.000

$$$$
VeraChem MOL file


 20 19  0  0  0  0  0  0  0  0999 V2000     
   19.0601   21.0005   21.8276 N   0  3  0  0  0  0  0  0  0  0  0  0
   19.4169   21.7774   22.3906 H   0  0  0  0  0  0  0  0  0  0  0  0
   18.0727   20.8777   22.0657 H   0  0  0  0  0  0  0  0  0  0  0  0
   19.1024   21.2930   20.8477 H   0  0  0  0  0  0  0  0  0  0  0  0
   19.8452   19.7387   22.0601 C   0  0  2  0  0  0  0  0  0  0  0  0
   20.8776   19.9635   21.7746 H   0  0  0  0  0  0  0  0  0  0  0  0
   19.3301   18.6149   21.1447 C   0  0  0  0  0  0  0  0  0  0  0  0
   19.2688   18.9594   20.1051 H   0  0  0  0  0  0  0  0  0  0  0  0
   18.3324   18.2773   21.4514 H   0  0  0  0  0  0  0  0  0  0  0  0
   20.0094   17.7550   21.1584 H   0  0  0  0  0  0  0  0  0  0  0  0
   19.8359   19.3464   23.5579 C   0  0  0  0  0  0  0  0  0  0  0  0
   20.1821   20.2182   24.1287 H   0  0  0  0  0  0  0  0  0  0  0  0
   18.8077   19.1588   23.8945 H   0  0  0  0  0  0  0  0  0  0  0  0
   20.7489   18.1475   23.9273 C   0  0  0  0  0  0  0  0  0  0  0  0
   21.1969   18.3389   24.9126 H   0  0  0  0  0  0  0  0  0  0  0  0
   21.5899   18.0764   23.2233 H   0  0  0  0  0  0  0  0  0  0  0  0
   19.9936   16.7996   24.0024 C   0  0  0  0  0  0  0  0  0  0  0  0
   19.1987   16.8374   24.7586 H   0  0  0  0  0  0  0  0  0  0  0  0
   20.6798   15.9899   24.2825 H   0  0  0  0  0  0  0  0  0  0  0  0
   19.5347   16.5288   23.0449 H   0  0  0  0  0  0  0  0  0  0  0  0
  1  2  1  0  0  0  0
  1  3  1  0  0  0  0
  1  4  1  0  0  0  0
  1  5  1  0  0  0  0
  5  6  1  0  0  0  0
  5  7  1  0  0  0  0
  7  8  1  0  0  0  0
  7  9  1  0  0  0  0
  7 10  1  0  0  0  0
  5 11  1  0  0  0  0
 11 12  1  0  0  0  0
 11 13  1  0  0  0  0
 11 14  1  0  0  0  0
 14 15  1  0  0  0  0
 14 16  1  0  0  0  0
 14 17  1  0  0  0  0
 17 18  1  0  0  0  0
 17 19  1  0  0  0  0
 17 20  1  0  0  0  0
M  END
> <VConfSearch Rank>
483

> <Conf_Id>
52

> <Delta U+W>
2.995

> <U+W>
-33.282

> <U>
25.224

> <W>
-58.506

> <W(PB)>
-60.411

> <W(SA)>
1.905

> <Valence>
4.945

> <Coulomb>
19.467

> <VdW>
0.813

> <VdW6>
-5.458

> <VdW12>
6.270

> <Bond>
0.200

> <Angle>
1.675

> <Pdih>
3.070

> <Idih>
0.000

> <Tether>
0.000

$$$$
VeraChem MOL file


 20 19  0  0  0  0  0  0  0  0999 V2000     
   20.9812   20.0739   22.7505 N   0  3  0  0  0  0  0  0  0  0  0  0
   20.5681   20.9537   22.4315 H   0  0  0  0  0  0  0  0  0  0  0  0
   21.9908   20.1351   22.5933 H   0  0  0  0  0  0  0  0  0  0  0  0
   20.8288   20.0124   23.7594 H   0  0  0  0  0  0  0  0  0  0  0  0
   20.3810   18.8948   22.0345 C   0  0  2  0  0  0  0  0  0  0  0  0
   20.9033   18.0014   22.3908 H   0  0  0  0  0  0  0  0  0  0  0  0
   20.6258   19.0235   20.5215 C   0  0  0  0  0  0  0  0  0  0  0  0
   20.1086   19.8986   20.1085 H   0  0  0  0  0  0  0  0  0  0  0  0
   20.2681   18.1327   19.9902 H   0  0  0  0  0  0  0  0  0  0  0  0
   21.6969   19.1272   20.3084 H   0  0  0  0  0  0  0  0  0  0  0  0
   18.8708   18.7226   22.3239 C   0  0  0  0  0  0  0  0  0  0  0  0
   18.3568   19.6870   22.2173 H   0  0  0  0  0  0  0  0  0  0  0  0
   18.4398   18.0669   21.5555 H   0  0  0  0  0  0  0  0  0  0  0  0
   18.5405   18.0906   23.7016 C   0  0  0  0  0  0  0  0  0  0  0  0
   19.0202   17.1049   23.7812 H   0  0  0  0  0  0  0  0  0  0  0  0
   17.4581   17.9040   23.7417 H   0  0  0  0  0  0  0  0  0  0  0  0
   18.9307   18.9543   24.9226 C   0  0  0  0  0  0  0  0  0  0  0  0
   18.4881   18.5389   25.8374 H   0  0  0  0  0  0  0  0  0  0  0  0
   18.5667   19.9845   24.8161 H   0  0  0  0  0  0  0  0  0  0  0  0
   20.0162   18.9734   25.0740 H   0  0  0  0  0  0  0  0  0  0  0  0
  1  2  1  0  0  0  0
  1  3  1  0  0  0  0
  1  4  1  0  0  0  0
  1  5  1  0  0  0  0
  5  6  1  0  0  0  0
  5  7  1  0  0  0  0
  7  8  1  0  0  0  0
  7  9  1  0  0  0  0
  7 10  1  0  0  0  0
  5 11  1  0  0  0  0
 11 12  1  0  0  0  0
 11 13  1  0  0  0  0
 11 14  1  0  0  0  0
 14 15  1  0  0  0  0
 14 16  1  0  0  0  0
 14 17  1  0  0  0  0
 17 18  1  0  0  0  0
 17 19  1  0  0  0  0
 17 20  1  0  0  0  0
M  END
> <VConfSearch Rank>
484

> <Conf_Id>
54

> <Delta U+W>
2.752

> <U+W>
-33.525

> <U>
24.337

> <W>
-57.862

> <W(PB)>
-59.764

> <W(SA)>
1.901

> <Valence>
3.593

> <Coulomb>
20.067

> <VdW>
0.677

> <VdW6>
-5.466

> <VdW12>
6.144

> <Bond>
0.191

> <Angle>
1.557

> <Pdih>
1.845

> <Idih>
0.000

> <Tether>
0.000

$$$$
VeraChem MOL file


 20 19  0  0  0  0  0  0  0  0999 V2000     
   19.9707   19.6489   20.7628 N   0  3  0  0  0  0  0  0  0  0  0  0
   19.7770   19.4406   19.7796 H   0  0  0  0  0  0  0  0  0  0  0  0
   20.8295   20.2050   20.7920 H   0  0  0  0  0  0  0  0  0  0  0  0
   19.2100   20.2401   21.1052 H   0  0  0  0  0  0  0  0  0  0  0  0
   20.0986   18.3904   21.5774 C   0  0  2  0  0  0  0  0  0  0  0  0
   20.9187   17.8213   21.1285 H   0  0  0  0  0  0  0  0  0  0  0  0
   18.8259   17.5314   21.4716 C   0  0  0  0  0  0  0  0  0  0  0  0
   18.9224   16.6158   22.0682 H   0  0  0  0  0  0  0  0  0  0  0  0
   18.6506   17.2324   20.4309 H   0  0  0  0  0  0  0  0  0  0  0  0
   17.9388   18.0752   21.8172 H   0  0  0  0  0  0  0  0  0  0  0  0
   20.4890   18.6732   23.0480 C   0  0  0  0  0  0  0  0  0  0  0  0
   20.6535   17.7157   23.5598 H   0  0  0  0  0  0  0  0  0  0  0  0
   21.4580   19.1893   23.0567 H   0  0  0  0  0  0  0  0  0  0  0  0
   19.4594   19.5113   23.8491 C   0  0  0  0  0  0  0  0  0  0  0  0
   18.4960   18.9862   23.8960 H   0  0  0  0  0  0  0  0  0  0  0  0
   19.2762   20.4697   23.3451 H   0  0  0  0  0  0  0  0  0  0  0  0
   19.9486   19.7852   25.2875 C   0  0  0  0  0  0  0  0  0  0  0  0
   19.2091   20.3771   25.8425 H   0  0  0  0  0  0  0  0  0  0  0  0
   20.8930   20.3449   25.2842 H   0  0  0  0  0  0  0  0  0  0  0  0
   20.1089   18.8476   25.8357 H   0  0  0  0  0  0  0  0  0  0  0  0
  1  2  1  0  0  0  0
  1  3  1  0  0  0  0
  1  4  1  0  0  0  0
  1  5  1  0  0  0  0
  5  6  1  0  0  0  0
  5  7  1  0  0  0  0
  7  8  1  0  0  0  0
  7  9  1  0  0  0  0
  7 10  1  0  0  0  0
  5 11  1  0  0  0  0
 11 12  1  0  0  0  0
 11 13  1  0  0  0  0
 11 14  1  0  0  0  0
 14 15  1  0  0  0  0
 14 16  1  0  0  0  0
 14 17  1  0  0  0  0
 17 18  1  0  0  0  0
 17 19  1  0  0  0  0
 17 20  1  0  0  0  0
M  END
> <VConfSearch Rank>
485

> <Conf_Id>
63

> <Delta U+W>
0.420

> <U+W>
-35.856

> <U>
22.625

> <W>
-58.481

> <W(PB)>
-60.400

> <W(SA)>
1.919

> <Valence>
2.404

> <Coulomb>
19.464

> <VdW>
0.757

> <VdW6>
-5.074

> <VdW12>
5.830

> <Bond>
0.172

> <Angle>
1.207

> <Pdih>
1.025

> <Idih>
0.000

> <Tether>
0.000

$$$$
VeraChem MOL file


 20 19  0  0  0  0  0  0  0  0999 V2000     
   18.0280   18.4835   22.3726 N   0  3  0  0  0  0  0  0  0  0  0  0
   17.9940   19.3505   21.8304 H   0  0  0  0  0  0  0  0  0  0  0  0
   17.4198   18.6049   23.1861 H   0  0  0  0  0  0  0  0  0  0  0  0
   17.6205   17.7445   21.7934 H   0  0  0  0  0  0  0  0  0  0  0  0
   19.4368   18.1500   22.7826 C   0  0  2  0  0  0  0  0  0  0  0  0
   20.0142   18.0351   21.8603 H   0  0  0  0  0  0  0  0  0  0  0  0
   19.4794   16.8143   23.5427 C   0  0  0  0  0  0  0  0  0  0  0  0
   19.0554   16.0069   22.9333 H   0  0  0  0  0  0  0  0  0  0  0  0
   18.9099   16.8712   24.4787 H   0  0  0  0  0  0  0  0  0  0  0  0
   20.5125   16.5382   23.7878 H   0  0  0  0  0  0  0  0  0  0  0  0
   20.0880   19.2699   23.6256 C   0  0  0  0  0  0  0  0  0  0  0  0
   19.5315   19.3893   24.5647 H   0  0  0  0  0  0  0  0  0  0  0  0
   21.1029   18.9601   23.9082 H   0  0  0  0  0  0  0  0  0  0  0  0
   20.1690   20.6405   22.9067 C   0  0  0  0  0  0  0  0  0  0  0  0
   20.6398   21.3666   23.5842 H   0  0  0  0  0  0  0  0  0  0  0  0
   19.1597   21.0251   22.7068 H   0  0  0  0  0  0  0  0  0  0  0  0
   20.9771   20.5873   21.5901 C   0  0  0  0  0  0  0  0  0  0  0  0
   21.9914   20.2053   21.7650 H   0  0  0  0  0  0  0  0  0  0  0  0
   21.0682   21.5906   21.1540 H   0  0  0  0  0  0  0  0  0  0  0  0
   20.4932   19.9452   20.8434 H   0  0  0  0  0  0  0  0  0  0  0  0
  1  2  1  0  0  0  0
  1  3  1  0  0  0  0
  1  4  1  0  0  0  0
  1  5  1  0  0  0  0
  5  6  1  0  0  0  0
  5  7  1  0  0  0  0
  7  8  1  0  0  0  0
  7  9  1  0  0  0  0
  7 10  1  0  0  0  0
  5 11  1  0  0  0  0
 11 12  1  0  0  0  0
 11 13  1  0  0  0  0
 11 14  1  0  0  0  0
 14 15  1  0  0  0  0
 14 16  1  0  0  0  0
 14 17  1  0  0  0  0
 17 18  1  0  0  0  0
 17 19  1  0  0  0  0
 17 20  1  0  0  0  0
M  END
> <VConfSearch Rank>
486

> <Conf_Id>
50

> <Delta U+W>
0.466

> <U+W>
-35.811

> <U>
22.369

> <W>
-58.180

> <W(PB)>
-60.103

> <W(SA)>
1.923

> <Valence>
2.168

> <Coulomb>
19.636

> <VdW>
0.566

> <VdW6>
-5.263

> <VdW12>
5.829

> <Bond>
0.162

> <Angle>
1.066

> <Pdih>
0.939

> <Idih>
0.000

> <Tether>
0.000

$$$$
VeraChem MOL file


 20 19  0  0  0  0  0  0  0  0999 V2000     
   19.8084   19.6686   20.5884 N   0  3  0  0  0  0  0  0  0  0  0  0
   19.3455   18.9454   20.0310 H   0  0  0  0  0  0  0  0  0  0  0  0
   20.7979   19.6707   20.3281 H   0  0  0  0  0  0  0  0  0  0  0  0
   19.4163   20.5692   20.3006 H   0  0  0  0  0  0  0  0  0  0  0  0
   19.6253   19.4344   22.0636 C   0  0  2  0  0  0  0  0  0  0  0  0
   18.5456   19.4459   22.2422 H   0  0  0  0  0  0  0  0  0  0  0  0
   20.2704   20.5817   22.8633 C   0  0  0  0  0  0  0  0  0  0  0  0
   21.3499   20.6362   22.6755 H   0  0  0  0  0  0  0  0  0  0  0  0
   20.1227   20.4544   23.9411 H   0  0  0  0  0  0  0  0  0  0  0  0
   19.8286   21.5452   22.5810 H   0  0  0  0  0  0  0  0  0  0  0  0
   20.1714   18.0531   22.5019 C   0  0  0  0  0  0  0  0  0  0  0  0
   20.2962   17.4180   21.6149 H   0  0  0  0  0  0  0  0  0  0  0  0
   21.1755   18.1571   22.9342 H   0  0  0  0  0  0  0  0  0  0  0  0
   19.2439   17.2948   23.4850 C   0  0  0  0  0  0  0  0  0  0  0  0
   19.6727   16.3010   23.6760 H   0  0  0  0  0  0  0  0  0  0  0  0
   18.2688   17.1197   23.0090 H   0  0  0  0  0  0  0  0  0  0  0  0
   19.0328   18.0128   24.8363 C   0  0  0  0  0  0  0  0  0  0  0  0
   19.9924   18.2407   25.3182 H   0  0  0  0  0  0  0  0  0  0  0  0
   18.4567   17.3779   25.5218 H   0  0  0  0  0  0  0  0  0  0  0  0
   18.4747   18.9489   24.7101 H   0  0  0  0  0  0  0  0  0  0  0  0
  1  2  1  0  0  0  0
  1  3  1  0  0  0  0
  1  4  1  0  0  0  0
  1  5  1  0  0  0  0
  5  6  1  0  0  0  0
  5  7  1  0  0  0  0
  7  8  1  0  0  0  0
  7  9  1  0  0  0  0
  7 10  1  0  0  0  0
  5 11  1  0  0  0  0
 11 12  1  0  0  0  0
 11 13  1  0  0  0  0
 11 14  1  0  0  0  0
 14 15  1  0  0  0  0
 14 16  1  0  0  0  0
 14 17  1  0  0  0  0
 17 18  1  0  0  0  0
 17 19  1  0  0  0  0
 17 20  1  0  0  0  0
M  END
> <VConfSearch Rank>
487

> <Conf_Id>
3

> <Delta U+W>
3.093

> <U+W>
-33.184

> <U>
25.256

> <W>
-58.439

> <W(PB)>
-60.337

> <W(SA)>
1.898

> <Valence>
4.963

> <Coulomb>
19.511

> <VdW>
0.782

> <VdW6>
-5.429

> <VdW12>
6.211

> <Bond>
0.174

> <Angle>
1.377

> <Pdih>
3.412

> <Idih>
0.000

> <Tether>
0.000

$$$$
VeraChem MOL file


 20 19  0  0  0  0  0  0  0  0999 V2000     
   20.2509   17.5199   24.4546 N   0  3  0  0  0  0  0  0  0  0  0  0
   21.2094   17.1967   24.6108 H   0  0  0  0  0  0  0  0  0  0  0  0
   19.6782   16.6910   24.2732 H   0  0  0  0  0  0  0  0  0  0  0  0
   19.9228   17.9329   25.3313 H   0  0  0  0  0  0  0  0  0  0  0  0
   20.1793   18.5038   23.3193 C   0  0  2  0  0  0  0  0  0  0  0  0
   20.5503   17.9783   22.4343 H   0  0  0  0  0  0  0  0  0  0  0  0
   21.1017   19.7056   23.5933 C   0  0  0  0  0  0  0  0  0  0  0  0
   21.1695   20.3625   22.7184 H   0  0  0  0  0  0  0  0  0  0  0  0
   22.1192   19.3674   23.8245 H   0  0  0  0  0  0  0  0  0  0  0  0
   20.7393   20.2991   24.4418 H   0  0  0  0  0  0  0  0  0  0  0  0
   18.7200   18.9413   23.0485 C   0  0  0  0  0  0  0  0  0  0  0  0
   18.0981   18.0428   22.9412 H   0  0  0  0  0  0  0  0  0  0  0  0
   18.3324   19.4766   23.9254 H   0  0  0  0  0  0  0  0  0  0  0  0
   18.5233   19.8235   21.7891 C   0  0  0  0  0  0  0  0  0  0  0  0
   19.0254   20.7916   21.9191 H   0  0  0  0  0  0  0  0  0  0  0  0
   17.4536   20.0524   21.6835 H   0  0  0  0  0  0  0  0  0  0  0  0
   19.0209   19.1468   20.4916 C   0  0  0  0  0  0  0  0  0  0  0  0
   18.5341   18.1744   20.3415 H   0  0  0  0  0  0  0  0  0  0  0  0
   20.1066   18.9883   20.5102 H   0  0  0  0  0  0  0  0  0  0  0  0
   18.7933   19.7733   19.6194 H   0  0  0  0  0  0  0  0  0  0  0  0
  1  2  1  0  0  0  0
  1  3  1  0  0  0  0
  1  4  1  0  0  0  0
  1  5  1  0  0  0  0
  5  6  1  0  0  0  0
  5  7  1  0  0  0  0
  7  8  1  0  0  0  0
  7  9  1  0  0  0  0
  7 10  1  0  0  0  0
  5 11  1  0  0  0  0
 11 12  1  0  0  0  0
 11 13  1  0  0  0  0
 11 14  1  0  0  0  0
 14 15  1  0  0  0  0
 14 16  1  0  0  0  0
 14 17  1  0  0  0  0
 17 18  1  0  0  0  0
 17 19  1  0  0  0  0
 17 20  1  0  0  0  0
M  END
> <VConfSearch Rank>
488

> <Conf_Id>
64

> <Delta U+W>
0.544

> <U+W>
-35.732

> <U>
22.800

> <W>
-58.532

> <W(PB)>
-60.437

> <W(SA)>
1.905

> <Valence>
2.662

> <Coulomb>
19.485

> <VdW>
0.653

> <VdW6>
-5.460

> <VdW12>
6.113

> <Bond>
0.174

> <Angle>
1.378

> <Pdih>
1.109

> <Idih>
0.000

> <Tether>
0.000

$$$$
VeraChem MOL file


 20 19  0  0  0  0  0  0  0  0999 V2000     
   21.3128   20.2023   23.3936 N   0  3  0  0  0  0  0  0  0  0  0  0
   20.5545   20.4050   24.0487 H   0  0  0  0  0  0  0  0  0  0  0  0
   21.6878   21.0991   23.0732 H   0  0  0  0  0  0  0  0  0  0  0  0
   22.0555   19.7331   23.9189 H   0  0  0  0  0  0  0  0  0  0  0  0
   20.8347   19.3620   22.2402 C   0  0  2  0  0  0  0  0  0  0  0  0
   21.7079   19.2115   21.5976 H   0  0  0  0  0  0  0  0  0  0  0  0
   19.7804   20.1156   21.4131 C   0  0  0  0  0  0  0  0  0  0  0  0
   18.9280   20.4206   22.0312 H   0  0  0  0  0  0  0  0  0  0  0  0
   19.4102   19.4919   20.5900 H   0  0  0  0  0  0  0  0  0  0  0  0
   20.2145   21.0220   20.9740 H   0  0  0  0  0  0  0  0  0  0  0  0
   20.3587   17.9581   22.6912 C   0  0  0  0  0  0  0  0  0  0  0  0
   20.1884   17.3298   21.8070 H   0  0  0  0  0  0  0  0  0  0  0  0
   21.1935   17.4845   23.2244 H   0  0  0  0  0  0  0  0  0  0  0  0
   19.1082   17.9201   23.6132 C   0  0  0  0  0  0  0  0  0  0  0  0
   19.0559   18.8200   24.2399 H   0  0  0  0  0  0  0  0  0  0  0  0
   19.2174   17.0768   24.3096 H   0  0  0  0  0  0  0  0  0  0  0  0
   17.7794   17.7284   22.8449 C   0  0  0  0  0  0  0  0  0  0  0  0
   17.5755   18.5569   22.1579 H   0  0  0  0  0  0  0  0  0  0  0  0
   16.9371   17.6658   23.5460 H   0  0  0  0  0  0  0  0  0  0  0  0
   17.7940   16.7994   22.2603 H   0  0  0  0  0  0  0  0  0  0  0  0
  1  2  1  0  0  0  0
  1  3  1  0  0  0  0
  1  4  1  0  0  0  0
  1  5  1  0  0  0  0
  5  6  1  0  0  0  0
  5  7  1  0  0  0  0
  7  8  1  0  0  0  0
  7  9  1  0  0  0  0
  7 10  1  0  0  0  0
  5 11  1  0  0  0  0
 11 12  1  0  0  0  0
 11 13  1  0  0  0  0
 11 14  1  0  0  0  0
 14 15  1  0  0  0  0
 14 16  1  0  0  0  0
 14 17  1  0  0  0  0
 17 18  1  0  0  0  0
 17 19  1  0  0  0  0
 17 20  1  0  0  0  0
M  END
> <VConfSearch Rank>
489

> <Conf_Id>
35

> <Delta U+W>
3.004

> <U+W>
-33.272

> <U>
25.367

> <W>
-58.639

> <W(PB)>
-60.512

> <W(SA)>
1.873

> <Valence>
4.943

> <Coulomb>
19.661

> <VdW>
0.764

> <VdW6>
-5.871

> <VdW12>
6.636

> <Bond>
0.230

> <Angle>
1.857

> <Pdih>
2.855

> <Idih>
0.000

> <Tether>
0.000

$$$$
VeraChem MOL file


 20 19  0  0  0  0  0  0  0  0999 V2000     
   18.3322   17.9988   22.4387 N   0  3  0  0  0  0  0  0  0  0  0  0
   18.0824   17.0297   22.2241 H   0  0  0  0  0  0  0  0  0  0  0  0
   17.5153   18.5779   22.2271 H   0  0  0  0  0  0  0  0  0  0  0  0
   18.4986   18.0604   23.4449 H   0  0  0  0  0  0  0  0  0  0  0  0
   19.5393   18.4432   21.6590 C   0  0  2  0  0  0  0  0  0  0  0  0
   19.2491   18.3640   20.6067 H   0  0  0  0  0  0  0  0  0  0  0  0
   20.7304   17.4936   21.8785 C   0  0  0  0  0  0  0  0  0  0  0  0
   21.0216   17.4466   22.9345 H   0  0  0  0  0  0  0  0  0  0  0  0
   21.6004   17.8200   21.2954 H   0  0  0  0  0  0  0  0  0  0  0  0
   20.4759   16.4769   21.5552 H   0  0  0  0  0  0  0  0  0  0  0  0
   19.9122   19.9268   21.9106 C   0  0  0  0  0  0  0  0  0  0  0  0
   20.5755   20.2454   21.0957 H   0  0  0  0  0  0  0  0  0  0  0  0
   19.0092   20.5426   21.8079 H   0  0  0  0  0  0  0  0  0  0  0  0
   20.6146   20.2674   23.2549 C   0  0  0  0  0  0  0  0  0  0  0  0
   20.8482   21.3413   23.2530 H   0  0  0  0  0  0  0  0  0  0  0  0
   21.5844   19.7555   23.3184 H   0  0  0  0  0  0  0  0  0  0  0  0
   19.7786   19.9555   24.5170 C   0  0  0  0  0  0  0  0  0  0  0  0
   18.7707   20.3841   24.4430 H   0  0  0  0  0  0  0  0  0  0  0  0
   20.2582   20.3855   25.4059 H   0  0  0  0  0  0  0  0  0  0  0  0
   19.6936   18.8763   24.6884 H   0  0  0  0  0  0  0  0  0  0  0  0
  1  2  1  0  0  0  0
  1  3  1  0  0  0  0
  1  4  1  0  0  0  0
  1  5  1  0  0  0  0
  5  6  1  0  0  0  0
  5  7  1  0  0  0  0
  7  8  1  0  0  0  0
  7  9  1  0  0  0  0
  7 10  1  0  0  0  0
  5 11  1  0  0  0  0
 11 12  1  0  0  0  0
 11 13  1  0  0  0  0
 11 14  1  0  0  0  0
 14 15  1  0  0  0  0
 14 16  1  0  0  0  0
 14 17  1  0  0  0  0
 17 18  1  0  0  0  0
 17 19  1  0  0  0  0
 17 20  1  0  0  0  0
M  END
> <VConfSearch Rank>
490

> <Conf_Id>
55

> <Delta U+W>
2.767

> <U+W>
-33.509

> <U>
24.552

> <W>
-58.061

> <W(PB)>
-59.930

> <W(SA)>
1.869

> <Valence>
3.726

> <Coulomb>
20.219

> <VdW>
0.606

> <VdW6>
-6.395

> <VdW12>
7.001

> <Bond>
0.241

> <Angle>
2.098

> <Pdih>
1.387

> <Idih>
0.000

> <Tether>
0.000

$$$$
VeraChem MOL file


 20 19  0  0  0  0  0  0  0  0999 V2000     
   20.3749   17.0869   22.7318 N   0  3  0  0  0  0  0  0  0  0  0  0
   21.0908   17.1817   22.0073 H   0  0  0  0  0  0  0  0  0  0  0  0
   20.0940   16.1030   22.7564 H   0  0  0  0  0  0  0  0  0  0  0  0
   20.8162   17.2992   23.6300 H   0  0  0  0  0  0  0  0  0  0  0  0
   19.1995   17.9888   22.4670 C   0  0  2  0  0  0  0  0  0  0  0  0
   18.4894   17.8288   23.2844 H   0  0  0  0  0  0  0  0  0  0  0  0
   18.5096   17.6036   21.1481 C   0  0  0  0  0  0  0  0  0  0  0  0
   18.1955   16.5527   21.1664 H   0  0  0  0  0  0  0  0  0  0  0  0
   19.1814   17.7446   20.2922 H   0  0  0  0  0  0  0  0  0  0  0  0
   17.6137   18.2150   20.9833 H   0  0  0  0  0  0  0  0  0  0  0  0
   19.5896   19.4834   22.4523 C   0  0  0  0  0  0  0  0  0  0  0  0
   20.3212   19.6667   21.6542 H   0  0  0  0  0  0  0  0  0  0  0  0
   18.7008   20.0790   22.2046 H   0  0  0  0  0  0  0  0  0  0  0  0
   20.1577   19.9744   23.8056 C   0  0  0  0  0  0  0  0  0  0  0  0
   21.0811   19.4318   24.0493 H   0  0  0  0  0  0  0  0  0  0  0  0
   19.4396   19.7578   24.6092 H   0  0  0  0  0  0  0  0  0  0  0  0
   20.4569   21.4888   23.7823 C   0  0  0  0  0  0  0  0  0  0  0  0
   21.1958   21.7335   23.0081 H   0  0  0  0  0  0  0  0  0  0  0  0
   20.8599   21.8193   24.7485 H   0  0  0  0  0  0  0  0  0  0  0  0
   19.5467   22.0689   23.5817 H   0  0  0  0  0  0  0  0  0  0  0  0
  1  2  1  0  0  0  0
  1  3  1  0  0  0  0
  1  4  1  0  0  0  0
  1  5  1  0  0  0  0
  5  6  1  0  0  0  0
  5  7  1  0  0  0  0
  7  8  1  0  0  0  0
  7  9  1  0  0  0  0
  7 10  1  0  0  0  0
  5 11  1  0  0  0  0
 11 12  1  0  0  0  0
 11 13  1  0  0  0  0
 11 14  1  0  0  0  0
 14 15  1  0  0  0  0
 14 16  1  0  0  0  0
 14 17  1  0  0  0  0
 17 18  1  0  0  0  0
 17 19  1  0  0  0  0
 17 20  1  0  0  0  0
M  END
> <VConfSearch Rank>
491

> <Conf_Id>
74

> <Delta U+W>
0.000

> <U+W>
-36.276

> <U>
22.080

> <W>
-58.356

> <W(PB)>
-60.289

> <W(SA)>
1.932

> <Valence>
1.885

> <Coulomb>
19.559

> <VdW>
0.637

> <VdW6>
-4.482

> <VdW12>
5.119

> <Bond>
0.136

> <Angle>
0.867

> <Pdih>
0.882

> <Idih>
0.000

> <Tether>
0.000

$$$$
VeraChem MOL file


 20 19  0  0  0  0  0  0  0  0999 V2000     
   19.0482   17.1294   21.3111 N   0  3  0  0  0  0  0  0  0  0  0  0
   19.4658   17.3931   20.4145 H   0  0  0  0  0  0  0  0  0  0  0  0
   18.0520   17.3577   21.2640 H   0  0  0  0  0  0  0  0  0  0  0  0
   19.1235   16.1118   21.3918 H   0  0  0  0  0  0  0  0  0  0  0  0
   19.7207   17.8245   22.4631 C   0  0  2  0  0  0  0  0  0  0  0  0
   20.7718   17.5209   22.4350 H   0  0  0  0  0  0  0  0  0  0  0  0
   19.1143   17.3542   23.7980 C   0  0  0  0  0  0  0  0  0  0  0  0
   19.1255   16.2592   23.8628 H   0  0  0  0  0  0  0  0  0  0  0  0
   18.0751   17.6901   23.9025 H   0  0  0  0  0  0  0  0  0  0  0  0
   19.6861   17.7341   24.6522 H   0  0  0  0  0  0  0  0  0  0  0  0
   19.6570   19.3614   22.3032 C   0  0  0  0  0  0  0  0  0  0  0  0
   20.0021   19.6201   21.2935 H   0  0  0  0  0  0  0  0  0  0  0  0
   18.6137   19.6972   22.3704 H   0  0  0  0  0  0  0  0  0  0  0  0
   20.5207   20.1334   23.3304 C   0  0  0  0  0  0  0  0  0  0  0  0
   21.5519   19.7534   23.3077 H   0  0  0  0  0  0  0  0  0  0  0  0
   20.1424   19.9675   24.3479 H   0  0  0  0  0  0  0  0  0  0  0  0
   20.5281   21.6503   23.0429 C   0  0  0  0  0  0  0  0  0  0  0  0
   20.9413   21.8627   22.0482 H   0  0  0  0  0  0  0  0  0  0  0  0
   21.1415   22.1820   23.7819 H   0  0  0  0  0  0  0  0  0  0  0  0
   19.5128   22.0654   23.0870 H   0  0  0  0  0  0  0  0  0  0  0  0
  1  2  1  0  0  0  0
  1  3  1  0  0  0  0
  1  4  1  0  0  0  0
  1  5  1  0  0  0  0
  5  6  1  0  0  0  0
  5  7  1  0  0  0  0
  7  8  1  0  0  0  0
  7  9  1  0  0  0  0
  7 10  1  0  0  0  0
  5 11  1  0  0  0  0
 11 12  1  0  0  0  0
 11 13  1  0  0  0  0
 11 14  1  0  0  0  0
 14 15  1  0  0  0  0
 14 16  1  0  0  0  0
 14 17  1  0  0  0  0
 17 18  1  0  0  0  0
 17 19  1  0  0  0  0
 17 20  1  0  0  0  0
M  END
> <VConfSearch Rank>
492

> <Conf_Id>
80

> <Delta U+W>
0.460

> <U+W>
-35.817

> <U>
22.495

> <W>
-58.311

> <W(PB)>
-60.259

> <W(SA)>
1.948

> <Valence>
2.419

> <Coulomb>
19.304

> <VdW>
0.772

> <VdW6>
-4.635

> <VdW12>
5.407

> <Bond>
0.149

> <Angle>
1.142

> <Pdih>
1.129

> <Idih>
0.000

> <Tether>
0.000

$$$$
VeraChem MOL file


 20 19  0  0  0  0  0  0  0  0999 V2000     
   20.3055   19.4922   20.4706 N   0  3  0  0  0  0  0  0  0  0  0  0
   21.2115   19.9666   20.4258 H   0  0  0  0  0  0  0  0  0  0  0  0
   19.5799   20.2093   20.3929 H   0  0  0  0  0  0  0  0  0  0  0  0
   20.2347   18.8967   19.6412 H   0  0  0  0  0  0  0  0  0  0  0  0
   20.1585   18.6930   21.7365 C   0  0  2  0  0  0  0  0  0  0  0  0
   20.9665   17.9549   21.7282 H   0  0  0  0  0  0  0  0  0  0  0  0
   18.8194   17.9359   21.7355 C   0  0  0  0  0  0  0  0  0  0  0  0
   18.6883   17.3817   20.7981 H   0  0  0  0  0  0  0  0  0  0  0  0
   17.9725   18.6244   21.8458 H   0  0  0  0  0  0  0  0  0  0  0  0
   18.7822   17.2031   22.5495 H   0  0  0  0  0  0  0  0  0  0  0  0
   20.3411   19.5907   22.9848 C   0  0  0  0  0  0  0  0  0  0  0  0
   21.3007   20.1134   22.8769 H   0  0  0  0  0  0  0  0  0  0  0  0
   19.5740   20.3762   23.0028 H   0  0  0  0  0  0  0  0  0  0  0  0
   20.3657   18.8335   24.3389 C   0  0  0  0  0  0  0  0  0  0  0  0
   21.0958   19.3215   24.9999 H   0  0  0  0  0  0  0  0  0  0  0  0
   20.7293   17.8062   24.1958 H   0  0  0  0  0  0  0  0  0  0  0  0
   18.9992   18.8254   25.0639 C   0  0  0  0  0  0  0  0  0  0  0  0
   18.6636   19.8483   25.2789 H   0  0  0  0  0  0  0  0  0  0  0  0
   19.0755   18.2931   26.0209 H   0  0  0  0  0  0  0  0  0  0  0  0
   18.2199   18.3328   24.4718 H   0  0  0  0  0  0  0  0  0  0  0  0
  1  2  1  0  0  0  0
  1  3  1  0  0  0  0
  1  4  1  0  0  0  0
  1  5  1  0  0  0  0
  5  6  1  0  0  0  0
  5  7  1  0  0  0  0
  7  8  1  0  0  0  0
  7  9  1  0  0  0  0
  7 10  1  0  0  0  0
  5 11  1  0  0  0  0
 11 12  1  0  0  0  0
 11 13  1  0  0  0  0
 11 14  1  0  0  0  0
 14 15  1  0  0  0  0
 14 16  1  0  0  0  0
 14 17  1  0  0  0  0
 17 18  1  0  0  0  0
 17 19  1  0  0  0  0
 17 20  1  0  0  0  0
M  END
> <VConfSearch Rank>
493

> <Conf_Id>
52

> <Delta U+W>
2.995

> <U+W>
-33.282

> <U>
25.224

> <W>
-58.506

> <W(PB)>
-60.411

> <W(SA)>
1.905

> <Valence>
4.945

> <Coulomb>
19.467

> <VdW>
0.813

> <VdW6>
-5.458

> <VdW12>
6.270

> <Bond>
0.200

> <Angle>
1.675

> <Pdih>
3.070

> <Idih>
0.000

> <Tether>
0.000

$$$$
VeraChem MOL file


 20 19  0  0  0  0  0  0  0  0999 V2000     
   19.7672   19.0646   24.3652 N   0  3  0  0  0  0  0  0  0  0  0  0
   20.4904   18.3952   24.6396 H   0  0  0  0  0  0  0  0  0  0  0  0
   19.1501   19.1959   25.1712 H   0  0  0  0  0  0  0  0  0  0  0  0
   20.2304   19.9573   24.1820 H   0  0  0  0  0  0  0  0  0  0  0  0
   19.0064   18.5863   23.1587 C   0  0  2  0  0  0  0  0  0  0  0  0
   18.2249   19.3253   22.9568 H   0  0  0  0  0  0  0  0  0  0  0  0
   18.3276   17.2415   23.4696 C   0  0  0  0  0  0  0  0  0  0  0  0
   19.0701   16.4577   23.6650 H   0  0  0  0  0  0  0  0  0  0  0  0
   17.7004   16.9166   22.6302 H   0  0  0  0  0  0  0  0  0  0  0  0
   17.6808   17.3272   24.3514 H   0  0  0  0  0  0  0  0  0  0  0  0
   19.8960   18.4629   21.8987 C   0  0  0  0  0  0  0  0  0  0  0  0
   20.8249   17.9327   22.1466 H   0  0  0  0  0  0  0  0  0  0  0  0
   19.3775   17.8317   21.1647 H   0  0  0  0  0  0  0  0  0  0  0  0
   20.2195   19.8081   21.1969 C   0  0  0  0  0  0  0  0  0  0  0  0
   19.2849   20.3101   20.9099 H   0  0  0  0  0  0  0  0  0  0  0  0
   20.7443   19.5860   20.2570 H   0  0  0  0  0  0  0  0  0  0  0  0
   21.0932   20.7784   22.0241 C   0  0  0  0  0  0  0  0  0  0  0  0
   21.4427   21.6056   21.3925 H   0  0  0  0  0  0  0  0  0  0  0  0
   21.9796   20.2723   22.4284 H   0  0  0  0  0  0  0  0  0  0  0  0
   20.5294   21.2251   22.8512 H   0  0  0  0  0  0  0  0  0  0  0  0
  1  2  1  0  0  0  0
  1  3  1  0  0  0  0
  1  4  1  0  0  0  0
  1  5  1  0  0  0  0
  5  6  1  0  0  0  0
  5  7  1  0  0  0  0
  7  8  1  0  0  0  0
  7  9  1  0  0  0  0
  7 10  1  0  0  0  0
  5 11  1  0  0  0  0
 11 12  1  0  0  0  0
 11 13  1  0  0  0  0
 11 14  1  0  0  0  0
 14 15  1  0  0  0  0
 14 16  1  0  0  0  0
 14 17  1  0  0  0  0
 17 18  1  0  0  0  0
 17 19  1  0  0  0  0
 17 20  1  0  0  0  0
M  END
> <VConfSearch Rank>
494

> <Conf_Id>
54

> <Delta U+W>
2.752

> <U+W>
-33.525

> <U>
24.337

> <W>
-57.862

> <W(PB)>
-59.764

> <W(SA)>
1.901

> <Valence>
3.593

> <Coulomb>
20.067

> <VdW>
0.677

> <VdW6>
-5.466

> <VdW12>
6.144

> <Bond>
0.191

> <Angle>
1.557

> <Pdih>
1.845

> <Idih>
0.000

> <Tether>
0.000

$$$$
VeraChem MOL file


 20 19  0  0  0  0  0  0  0  0999 V2000     
   20.6981   17.8975   21.1925 N   0  3  0  0  0  0  0  0  0  0  0  0
   21.5344   17.3574   20.9551 H   0  0  0  0  0  0  0  0  0  0  0  0
   20.3717   18.3457   20.3320 H   0  0  0  0  0  0  0  0  0  0  0  0
   19.9782   17.2329   21.4849 H   0  0  0  0  0  0  0  0  0  0  0  0
   20.9831   18.9090   22.2693 C   0  0  2  0  0  0  0  0  0  0  0  0
   21.7701   19.5587   21.8737 H   0  0  0  0  0  0  0  0  0  0  0  0
   21.5360   18.2288   23.5345 C   0  0  0  0  0  0  0  0  0  0  0  0
   21.7407   18.9692   24.3176 H   0  0  0  0  0  0  0  0  0  0  0  0
   22.4776   17.7123   23.3118 H   0  0  0  0  0  0  0  0  0  0  0  0
   20.8351   17.4878   23.9365 H   0  0  0  0  0  0  0  0  0  0  0  0
   19.7608   19.8065   22.5782 C   0  0  0  0  0  0  0  0  0  0  0  0
   20.0615   20.5755   23.3020 H   0  0  0  0  0  0  0  0  0  0  0  0
   19.4864   20.3463   21.6623 H   0  0  0  0  0  0  0  0  0  0  0  0
   18.5164   19.0549   23.1176 C   0  0  0  0  0  0  0  0  0  0  0  0
   18.7573   18.5501   24.0626 H   0  0  0  0  0  0  0  0  0  0  0  0
   18.2077   18.2748   22.4089 H   0  0  0  0  0  0  0  0  0  0  0  0
   17.3321   20.0168   23.3537 C   0  0  0  0  0  0  0  0  0  0  0  0
   16.4601   19.4713   23.7372 H   0  0  0  0  0  0  0  0  0  0  0  0
   17.0343   20.5138   22.4213 H   0  0  0  0  0  0  0  0  0  0  0  0
   17.5926   20.7920   24.0861 H   0  0  0  0  0  0  0  0  0  0  0  0
  1  2  1  0  0  0  0
  1  3  1  0  0  0  0
  1  4  1  0  0  0  0
  1  5  1  0  0  0  0
  5  6  1  0  0  0  0
  5  7  1  0  0  0  0
  7  8  1  0  0  0  0
  7  9  1  0  0  0  0
  7 10  1  0  0  0  0
  5 11  1  0  0  0  0
 11 12  1  0  0  0  0
 11 13  1  0  0  0  0
 11 14  1  0  0  0  0
 14 15  1  0  0  0  0
 14 16  1  0  0  0  0
 14 17  1  0  0  0  0
 17 18  1  0  0  0  0
 17 19  1  0  0  0  0
 17 20  1  0  0  0  0
M  END
> <VConfSearch Rank>
495

> <Conf_Id>
63

> <Delta U+W>
0.420

> <U+W>
-35.856

> <U>
22.625

> <W>
-58.481

> <W(PB)>
-60.400

> <W(SA)>
1.919

> <Valence>
2.404

> <Coulomb>
19.464

> <VdW>
0.757

> <VdW6>
-5.074

> <VdW12>
5.830

> <Bond>
0.172

> <Angle>
1.207

> <Pdih>
1.025

> <Idih>
0.000

> <Tether>
0.000

$$$$
VeraChem MOL file


 20 19  0  0  0  0  0  0  0  0999 V2000     
   19.2537   17.3137   23.1869 N   0  3  0  0  0  0  0  0  0  0  0  0
   19.8134   17.4814   24.0268 H   0  0  0  0  0  0  0  0  0  0  0  0
   19.7681   16.6514   22.6010 H   0  0  0  0  0  0  0  0  0  0  0  0
   18.3890   16.8529   23.4827 H   0  0  0  0  0  0  0  0  0  0  0  0
   18.9722   18.5963   22.4522 C   0  0  2  0  0  0  0  0  0  0  0  0
   18.4216   19.2409   23.1439 H   0  0  0  0  0  0  0  0  0  0  0  0
   18.0797   18.3363   21.2278 C   0  0  0  0  0  0  0  0  0  0  0  0
   17.1423   17.8511   21.5264 H   0  0  0  0  0  0  0  0  0  0  0  0
   18.5828   17.6883   20.4993 H   0  0  0  0  0  0  0  0  0  0  0  0
   17.8216   19.2775   20.7267 H   0  0  0  0  0  0  0  0  0  0  0  0
   20.2646   19.3313   22.0296 C   0  0  0  0  0  0  0  0  0  0  0  0
   20.8241   18.7061   21.3212 H   0  0  0  0  0  0  0  0  0  0  0  0
   19.9938   20.2452   21.4843 H   0  0  0  0  0  0  0  0  0  0  0  0
   21.1927   19.7140   23.2104 C   0  0  0  0  0  0  0  0  0  0  0  0
   22.0800   20.2243   22.8103 H   0  0  0  0  0  0  0  0  0  0  0  0
   21.5648   18.8093   23.7099 H   0  0  0  0  0  0  0  0  0  0  0  0
   20.5082   20.6367   24.2445 C   0  0  0  0  0  0  0  0  0  0  0  0
   20.1275   21.5494   23.7678 H   0  0  0  0  0  0  0  0  0  0  0  0
   21.2218   20.9385   25.0222 H   0  0  0  0  0  0  0  0  0  0  0  0
   19.6694   20.1347   24.7427 H   0  0  0  0  0  0  0  0  0  0  0  0
  1  2  1  0  0  0  0
  1  3  1  0  0  0  0
  1  4  1  0  0  0  0
  1  5  1  0  0  0  0
  5  6  1  0  0  0  0
  5  7  1  0  0  0  0
  7  8  1  0  0  0  0
  7  9  1  0  0  0  0
  7 10  1  0  0  0  0
  5 11  1  0  0  0  0
 11 12  1  0  0  0  0
 11 13  1  0  0  0  0
 11 14  1  0  0  0  0
 14 15  1  0  0  0  0
 14 16  1  0  0  0  0
 14 17  1  0  0  0  0
 17 18  1  0  0  0  0
 17 19  1  0  0  0  0
 17 20  1  0  0  0  0
M  END
> <VConfSearch Rank>
496

> <Conf_Id>
50

> <Delta U+W>
0.466

> <U+W>
-35.811

> <U>
22.369

> <W>
-58.180

> <W(PB)>
-60.103

> <W(SA)>
1.923

> <Valence>
2.168

> <Coulomb>
19.636

> <VdW>
0.566

> <VdW6>
-5.263

> <VdW12>
5.829

> <Bond>
0.162

> <Angle>
1.066

> <Pdih>
0.939

> <Idih>
0.000

> <Tether>
0.000

$$$$
VeraChem MOL file


 20 19  0  0  0  0  0  0  0  0999 V2000     
   19.6215   17.1306   24.2509 N   0  3  0  0  0  0  0  0  0  0  0  0
   19.9010   17.5374   25.1477 H   0  0  0  0  0  0  0  0  0  0  0  0
   20.3554   16.4760   23.9684 H   0  0  0  0  0  0  0  0  0  0  0  0
   18.7734   16.5827   24.4189 H   0  0  0  0  0  0  0  0  0  0  0  0
   19.3946   18.1906   23.2072 C   0  0  2  0  0  0  0  0  0  0  0  0
   18.6029   18.8378   23.5973 H   0  0  0  0  0  0  0  0  0  0  0  0
   18.9038   17.5446   21.8981 C   0  0  0  0  0  0  0  0  0  0  0  0
   19.6512   16.8491   21.4962 H   0  0  0  0  0  0  0  0  0  0  0  0
   18.6979   18.2975   21.1297 H   0  0  0  0  0  0  0  0  0  0  0  0
   17.9765   16.9839   22.0680 H   0  0  0  0  0  0  0  0  0  0  0  0
   20.6573   19.0578   22.9797 C   0  0  0  0  0  0  0  0  0  0  0  0
   21.3435   18.9225   23.8263 H   0  0  0  0  0  0  0  0  0  0  0  0
   21.2074   18.7099   22.0952 H   0  0  0  0  0  0  0  0  0  0  0  0
   20.3639   20.5749   22.8621 C   0  0  0  0  0  0  0  0  0  0  0  0
   21.3195   21.1119   22.7819 H   0  0  0  0  0  0  0  0  0  0  0  0
   19.8911   20.9305   23.7885 H   0  0  0  0  0  0  0  0  0  0  0  0
   19.4774   20.9557   21.6557 C   0  0  0  0  0  0  0  0  0  0  0  0
   19.9015   20.5767   20.7168 H   0  0  0  0  0  0  0  0  0  0  0  0
   19.3957   22.0470   21.5694 H   0  0  0  0  0  0  0  0  0  0  0  0
   18.4603   20.5590   21.7644 H   0  0  0  0  0  0  0  0  0  0  0  0
  1  2  1  0  0  0  0
  1  3  1  0  0  0  0
  1  4  1  0  0  0  0
  1  5  1  0  0  0  0
  5  6  1  0  0  0  0
  5  7  1  0  0  0  0
  7  8  1  0  0  0  0
  7  9  1  0  0  0  0
  7 10  1  0  0  0  0
  5 11  1  0  0  0  0
 11 12  1  0  0  0  0
 11 13  1  0  0  0  0
 11 14  1  0  0  0  0
 14 15  1  0  0  0  0
 14 16  1  0  0  0  0
 14 17  1  0  0  0  0
 17 18  1  0  0  0  0
 17 19  1  0  0  0  0
 17 20  1  0  0  0  0
M  END
> <VConfSearch Rank>
497

> <Conf_Id>
3

> <Delta U+W>
3.093

> <U+W>
-33.184

> <U>
25.256

> <W>
-58.439

> <W(PB)>
-60.337

> <W(SA)>
1.898

> <Valence>
4.963

> <Coulomb>
19.511

> <VdW>
0.782

> <VdW6>
-5.429

> <VdW12>
6.211

> <Bond>
0.174

> <Angle>
1.377

> <Pdih>
3.412

> <Idih>
0.000

> <Tether>
0.000

$$$$
VeraChem MOL file


 20 19  0  0  0  0  0  0  0  0999 V2000     
   18.0399   19.3711   21.2349 N   0  3  0  0  0  0  0  0  0  0  0  0
   18.2298   19.7710   20.3120 H   0  0  0  0  0  0  0  0  0  0  0  0
   17.4237   20.0242   21.7264 H   0  0  0  0  0  0  0  0  0  0  0  0
   17.5148   18.5054   21.0888 H   0  0  0  0  0  0  0  0  0  0  0  0
   19.3110   19.1241   22.0003 C   0  0  2  0  0  0  0  0  0  0  0  0
   19.8010   20.0969   22.1029 H   0  0  0  0  0  0  0  0  0  0  0  0
   20.2426   18.1919   21.2045 C   0  0  0  0  0  0  0  0  0  0  0  0
   21.2269   18.1127   21.6803 H   0  0  0  0  0  0  0  0  0  0  0  0
   20.4027   18.5786   20.1907 H   0  0  0  0  0  0  0  0  0  0  0  0
   19.8187   17.1835   21.1212 H   0  0  0  0  0  0  0  0  0  0  0  0
   19.0142   18.5775   23.4172 C   0  0  0  0  0  0  0  0  0  0  0  0
   18.2853   19.2392   23.9034 H   0  0  0  0  0  0  0  0  0  0  0  0
   18.5268   17.5971   23.3338 H   0  0  0  0  0  0  0  0  0  0  0  0
   20.2511   18.4508   24.3430 C   0  0  0  0  0  0  0  0  0  0  0  0
   20.9439   17.6932   23.9527 H   0  0  0  0  0  0  0  0  0  0  0  0
   19.9205   18.0785   25.3228 H   0  0  0  0  0  0  0  0  0  0  0  0
   20.9984   19.7891   24.5422 C   0  0  0  0  0  0  0  0  0  0  0  0
   20.3243   20.5640   24.9298 H   0  0  0  0  0  0  0  0  0  0  0  0
   21.4342   20.1514   23.6026 H   0  0  0  0  0  0  0  0  0  0  0  0
   21.8185   19.6682   25.2619 H   0  0  0  0  0  0  0  0  0  0  0  0
  1  2  1  0  0  0  0
  1  3  1  0  0  0  0
  1  4  1  0  0  0  0
  1  5  1  0  0  0  0
  5  6  1  0  0  0  0
  5  7  1  0  0  0  0
  7  8  1  0  0  0  0
  7  9  1  0  0  0  0
  7 10  1  0  0  0  0
  5 11  1  0  0  0  0
 11 12  1  0  0  0  0
 11 13  1  0  0  0  0
 11 14  1  0  0  0  0
 14 15  1  0  0  0  0
 14 16  1  0  0  0  0
 14 17  1  0  0  0  0
 17 18  1  0  0  0  0
 17 19  1  0  0  0  0
 17 20  1  0  0  0  0
M  END
> <VConfSearch Rank>
498

> <Conf_Id>
64

> <Delta U+W>
0.544

> <U+W>
-35.732

> <U>
22.800

> <W>
-58.532

> <W(PB)>
-60.437

> <W(SA)>
1.905

> <Valence>
2.662

> <Coulomb>
19.485

> <VdW>
0.653

> <VdW6>
-5.460

> <VdW12>
6.113

> <Bond>
0.174

> <Angle>
1.378

> <Pdih>
1.109

> <Idih>
0.000

> <Tether>
0.000

$$$$
VeraChem MOL file


 20 19  0  0  0  0  0  0  0  0999 V2000     
   21.8598   19.2291   22.4534 N   0  3  0  0  0  0  0  0  0  0  0  0
   21.5452   19.1368   21.4850 H   0  0  0  0  0  0  0  0  0  0  0  0
   22.6846   18.6334   22.5648 H   0  0  0  0  0  0  0  0  0  0  0  0
   22.1644   20.1971   22.5865 H   0  0  0  0  0  0  0  0  0  0  0  0
   20.7733   18.8519   23.4240 C   0  0  2  0  0  0  0  0  0  0  0  0
   21.2082   18.9720   24.4212 H   0  0  0  0  0  0  0  0  0  0  0  0
   20.3872   17.3721   23.2667 C   0  0  0  0  0  0  0  0  0  0  0  0
   20.0673   17.1473   22.2425 H   0  0  0  0  0  0  0  0  0  0  0  0
   19.5747   17.1048   23.9535 H   0  0  0  0  0  0  0  0  0  0  0  0
   21.2434   16.7265   23.4973 H   0  0  0  0  0  0  0  0  0  0  0  0
   19.5550   19.8060   23.3449 C   0  0  0  0  0  0  0  0  0  0  0  0
   18.8752   19.5988   24.1818 H   0  0  0  0  0  0  0  0  0  0  0  0
   19.9247   20.8250   23.5199 H   0  0  0  0  0  0  0  0  0  0  0  0
   18.7624   19.7987   22.0081 C   0  0  0  0  0  0  0  0  0  0  0  0
   19.4236   19.5709   21.1618 H   0  0  0  0  0  0  0  0  0  0  0  0
   18.3823   20.8137   21.8258 H   0  0  0  0  0  0  0  0  0  0  0  0
   17.5521   18.8355   22.0124 C   0  0  0  0  0  0  0  0  0  0  0  0
   17.8550   17.7911   22.1452 H   0  0  0  0  0  0  0  0  0  0  0  0
   17.0056   18.9026   21.0628 H   0  0  0  0  0  0  0  0  0  0  0  0
   16.8505   19.0896   22.8175 H   0  0  0  0  0  0  0  0  0  0  0  0
  1  2  1  0  0  0  0
  1  3  1  0  0  0  0
  1  4  1  0  0  0  0
  1  5  1  0  0  0  0
  5  6  1  0  0  0  0
  5  7  1  0  0  0  0
  7  8  1  0  0  0  0
  7  9  1  0  0  0  0
  7 10  1  0  0  0  0
  5 11  1  0  0  0  0
 11 12  1  0  0  0  0
 11 13  1  0  0  0  0
 11 14  1  0  0  0  0
 14 15  1  0  0  0  0
 14 16  1  0  0  0  0
 14 17  1  0  0  0  0
 17 18  1  0  0  0  0
 17 19  1  0  0  0  0
 17 20  1  0  0  0  0
M  END
> <VConfSearch Rank>
499

> <Conf_Id>
35

> <Delta U+W>
3.004

> <U+W>
-33.272

> <U>
25.367

> <W>
-58.639

> <W(PB)>
-60.512

> <W(SA)>
1.873

> <Valence>
4.943

> <Coulomb>
19.661

> <VdW>
0.764

> <VdW6>
-5.871

> <VdW12>
6.636

> <Bond>
0.230

> <Angle>
1.857

> <Pdih>
2.855

> <Idih>
0.000

> <Tether>
0.000

$$$$
VeraChem MOL file


 20 19  0  0  0  0  0  0  0  0999 V2000     
   21.1446   19.3459   23.8115 N   0  3  0  0  0  0  0  0  0  0  0  0
   22.1576   19.4865   23.7701 H   0  0  0  0  0  0  0  0  0  0  0  0
   20.9019   19.1647   24.7892 H   0  0  0  0  0  0  0  0  0  0  0  0
   20.6983   20.2251   23.5434 H   0  0  0  0  0  0  0  0  0  0  0  0
   20.7069   18.2183   22.9174 C   0  0  2  0  0  0  0  0  0  0  0  0
   21.2163   17.3294   23.3024 H   0  0  0  0  0  0  0  0  0  0  0  0
   21.1865   18.4304   21.4705 C   0  0  0  0  0  0  0  0  0  0  0  0
   20.7895   19.3595   21.0444 H   0  0  0  0  0  0  0  0  0  0  0  0
   20.8729   17.5964   20.8306 H   0  0  0  0  0  0  0  0  0  0  0  0
   22.2813   18.4851   21.4327 H   0  0  0  0  0  0  0  0  0  0  0  0
   19.1852   17.9337   22.9997 C   0  0  0  0  0  0  0  0  0  0  0  0
   19.0112   16.9332   22.5821 H   0  0  0  0  0  0  0  0  0  0  0  0
   18.8935   17.8625   24.0557 H   0  0  0  0  0  0  0  0  0  0  0  0
   18.2340   18.9241   22.2711 C   0  0  0  0  0  0  0  0  0  0  0  0
   17.2055   18.5553   22.3889 H   0  0  0  0  0  0  0  0  0  0  0  0
   18.4285   18.9134   21.1900 H   0  0  0  0  0  0  0  0  0  0  0  0
   18.2909   20.3771   22.7950 C   0  0  0  0  0  0  0  0  0  0  0  0
   18.1850   20.4111   23.8872 H   0  0  0  0  0  0  0  0  0  0  0  0
   17.4731   20.9687   22.3633 H   0  0  0  0  0  0  0  0  0  0  0  0
   19.2278   20.8713   22.5138 H   0  0  0  0  0  0  0  0  0  0  0  0
  1  2  1  0  0  0  0
  1  3  1  0  0  0  0
  1  4  1  0  0  0  0
  1  5  1  0  0  0  0
  5  6  1  0  0  0  0
  5  7  1  0  0  0  0
  7  8  1  0  0  0  0
  7  9  1  0  0  0  0
  7 10  1  0  0  0  0
  5 11  1  0  0  0  0
 11 12  1  0  0  0  0
 11 13  1  0  0  0  0
 11 14  1  0  0  0  0
 14 15  1  0  0  0  0
 14 16  1  0  0  0  0
 14 17  1  0  0  0  0
 17 18  1  0  0  0  0
 17 19  1  0  0  0  0
 17 20  1  0  0  0  0
M  END
> <VConfSearch Rank>
500

> <Conf_Id>
55

> <Delta U+W>
2.767

> <U+W>
-33.509

> <U>
24.552

> <W>
-58.061

> <W(PB)>
-59.930

> <W(SA)>
1.869

> <Valence>
3.726

> <Coulomb>
20.219

> <VdW>
0.606

> <VdW6>
-6.395

> <VdW12>
7.001

> <Bond>
0.241

> <Angle>
2.098

> <Pdih>
1.387

> <Idih>
0.000

> <Tether>
0.000

$$$$
VeraChem MOL file


 20 19  0  0  0  0  0  0  0  0999 V2000     
   19.7249   20.6458   21.7036 N   0  3  0  0  0  0  0  0  0  0  0  0
   20.6536   20.5607   21.2832 H   0  0  0  0  0  0  0  0  0  0  0  0
   19.4922   21.6422   21.7303 H   0  0  0  0  0  0  0  0  0  0  0  0
   19.0586   20.1952   21.0716 H   0  0  0  0  0  0  0  0  0  0  0  0
   19.6835   20.0336   23.0779 C   0  0  2  0  0  0  0  0  0  0  0  0
   18.6624   20.1635   23.4498 H   0  0  0  0  0  0  0  0  0  0  0  0
   20.6393   20.7738   24.0279 C   0  0  0  0  0  0  0  0  0  0  0  0
   20.3934   21.8419   24.0718 H   0  0  0  0  0  0  0  0  0  0  0  0
   21.6814   20.6763   23.6987 H   0  0  0  0  0  0  0  0  0  0  0  0
   20.5642   20.3737   25.0466 H   0  0  0  0  0  0  0  0  0  0  0  0
   20.0037   18.5225   23.0643 C   0  0  0  0  0  0  0  0  0  0  0  0
   21.0168   18.3626   22.6720 H   0  0  0  0  0  0  0  0  0  0  0  0
   20.0065   18.1518   24.0980 H   0  0  0  0  0  0  0  0  0  0  0  0
   18.9873   17.6953   22.2407 C   0  0  0  0  0  0  0  0  0  0  0  0
   19.0059   18.0095   21.1884 H   0  0  0  0  0  0  0  0  0  0  0  0
   17.9697   17.8839   22.6113 H   0  0  0  0  0  0  0  0  0  0  0  0
   19.2872   16.1830   22.3184 C   0  0  0  0  0  0  0  0  0  0  0  0
   20.2877   15.9581   21.9262 H   0  0  0  0  0  0  0  0  0  0  0  0
   18.5584   15.6123   21.7282 H   0  0  0  0  0  0  0  0  0  0  0  0
   19.2372   15.8223   23.3541 H   0  0  0  0  0  0  0  0  0  0  0  0
  1  2  1  0  0  0  0
  1  3  1  0  0  0  0
  1  4  1  0  0  0  0
  1  5  1  0  0  0  0
  5  6  1  0  0  0  0
  5  7  1  0  0  0  0
  7  8  1  0  0  0  0
  7  9  1  0  0  0  0
  7 10  1  0  0  0  0
  5 11  1  0  0  0  0
 11 12  1  0  0  0  0
 11 13  1  0  0  0  0
 11 14  1  0  0  0  0
 14 15  1  0  0  0  0
 14 16  1  0  0  0  0
 14 17  1  0  0  0  0
 17 18  1  0  0  0  0
 17 19  1  0  0  0  0
 17 20  1  0  0  0  0
M  END
> <VConfSearch Rank>
501

> <Conf_Id>
74

> <Delta U+W>
0.000

> <U+W>
-36.276

> <U>
22.080

> <W>
-58.356

> <W(PB)>
-60.289

> <W(SA)>
1.932

> <Valence>
1.885

> <Coulomb>
19.559

> <VdW>
0.637

> <VdW6>
-4.482

> <VdW12>
5.119

> <Bond>
0.136

> <Angle>
0.867

> <Pdih>
0.882

> <Idih>
0.000

> <Tether>
0.000

$$$$
VeraChem MOL file


 20 19  0  0  0  0  0  0  0  0999 V2000     
   19.4072   17.7218   24.7551 N   0  3  0  0  0  0  0  0  0  0  0  0
   18.6358   17.0980   24.5029 H   0  0  0  0  0  0  0  0  0  0  0  0
   19.0147   18.4839   25.3136 H   0  0  0  0  0  0  0  0  0  0  0  0
   20.0374   17.1922   25.3635 H   0  0  0  0  0  0  0  0  0  0  0  0
   20.1232   18.2403   23.5382 C   0  0  2  0  0  0  0  0  0  0  0  0
   20.5080   17.3624   23.0098 H   0  0  0  0  0  0  0  0  0  0  0  0
   21.3170   19.1188   23.9550 C   0  0  0  0  0  0  0  0  0  0  0  0
   21.9611   18.5842   24.6640 H   0  0  0  0  0  0  0  0  0  0  0  0
   20.9796   20.0459   24.4348 H   0  0  0  0  0  0  0  0  0  0  0  0
   21.9379   19.3845   23.0917 H   0  0  0  0  0  0  0  0  0  0  0  0
   19.1523   18.9861   22.5934 C   0  0  0  0  0  0  0  0  0  0  0  0
   18.2749   18.3482   22.4229 H   0  0  0  0  0  0  0  0  0  0  0  0
   18.7836   19.8961   23.0853 H   0  0  0  0  0  0  0  0  0  0  0  0
   19.7702   19.3488   21.2209 C   0  0  0  0  0  0  0  0  0  0  0  0
   20.1957   18.4481   20.7563 H   0  0  0  0  0  0  0  0  0  0  0  0
   20.5961   20.0608   21.3508 H   0  0  0  0  0  0  0  0  0  0  0  0
   18.7231   19.9685   20.2705 C   0  0  0  0  0  0  0  0  0  0  0  0
   17.8987   19.2690   20.0796 H   0  0  0  0  0  0  0  0  0  0  0  0
   19.1785   20.2227   19.3046 H   0  0  0  0  0  0  0  0  0  0  0  0
   18.2996   20.8880   20.6953 H   0  0  0  0  0  0  0  0  0  0  0  0
  1  2  1  0  0  0  0
  1  3  1  0  0  0  0
  1  4  1  0  0  0  0
  1  5  1  0  0  0  0
  5  6  1  0  0  0  0
  5  7  1  0  0  0  0
  7  8  1  0  0  0  0
  7  9  1  0  0  0  0
  7 10  1  0  0  0  0
  5 11  1  0  0  0  0
 11 12  1  0  0  0  0
 11 13  1  0  0  0  0
 11 14  1  0  0  0  0
 14 15  1  0  0  0  0
 14 16  1  0  0  0  0
 14 17  1  0  0  0  0
 17 18  1  0  0  0  0
 17 19  1  0  0  0  0
 17 20  1  0  0  0  0
M  END
> <VConfSearch Rank>
502

> <Conf_Id>
80

> <Delta U+W>
0.460

> <U+W>
-35.817

> <U>
22.495

> <W>
-58.311

> <W(PB)>
-60.259

> <W(SA)>
1.948

> <Valence>
2.419

> <Coulomb>
19.304

> <VdW>
0.772

> <VdW6>
-4.635

> <VdW12>
5.407

> <Bond>
0.149

> <Angle>
1.142

> <Pdih>
1.129

> <Idih>
0.000

> <Tether>
0.000

$$$$
VeraChem MOL file


 20 19  0  0  0  0  0  0  0  0999 V2000     
   20.8569   17.0150   23.7552 N   0  3  0  0  0  0  0  0  0  0  0  0
   21.8071   16.9005   23.3922 H   0  0  0  0  0  0  0  0  0  0  0  0
   20.2696   16.3085   23.3050 H   0  0  0  0  0  0  0  0  0  0  0  0
   20.8864   16.7942   24.7542 H   0  0  0  0  0  0  0  0  0  0  0  0
   20.3329   18.4041   23.5135 C   0  0  2  0  0  0  0  0  0  0  0  0
   21.0156   19.0836   24.0331 H   0  0  0  0  0  0  0  0  0  0  0  0
   18.9354   18.5618   24.1366 C   0  0  0  0  0  0  0  0  0  0  0  0
   18.9355   18.2218   25.1795 H   0  0  0  0  0  0  0  0  0  0  0  0
   18.1863   17.9778   23.5877 H   0  0  0  0  0  0  0  0  0  0  0  0
   18.6241   19.6126   24.1417 H   0  0  0  0  0  0  0  0  0  0  0  0
   20.3622   18.7545   22.0056 C   0  0  0  0  0  0  0  0  0  0  0  0
   21.3845   18.5770   21.6462 H   0  0  0  0  0  0  0  0  0  0  0  0
   19.7235   18.0612   21.4425 H   0  0  0  0  0  0  0  0  0  0  0  0
   19.9909   20.2224   21.6663 C   0  0  0  0  0  0  0  0  0  0  0  0
   20.6207   20.5588   20.8306 H   0  0  0  0  0  0  0  0  0  0  0  0
   20.2336   20.8829   22.5105 H   0  0  0  0  0  0  0  0  0  0  0  0
   18.5121   20.4020   21.2493 C   0  0  0  0  0  0  0  0  0  0  0  0
   18.2803   19.8026   20.3593 H   0  0  0  0  0  0  0  0  0  0  0  0
   18.3069   21.4523   21.0048 H   0  0  0  0  0  0  0  0  0  0  0  0
   17.8193   20.1054   22.0447 H   0  0  0  0  0  0  0  0  0  0  0  0
  1  2  1  0  0  0  0
  1  3  1  0  0  0  0
  1  4  1  0  0  0  0
  1  5  1  0  0  0  0
  5  6  1  0  0  0  0
  5  7  1  0  0  0  0
  7  8  1  0  0  0  0
  7  9  1  0  0  0  0
  7 10  1  0  0  0  0
  5 11  1  0  0  0  0
 11 12  1  0  0  0  0
 11 13  1  0  0  0  0
 11 14  1  0  0  0  0
 14 15  1  0  0  0  0
 14 16  1  0  0  0  0
 14 17  1  0  0  0  0
 17 18  1  0  0  0  0
 17 19  1  0  0  0  0
 17 20  1  0  0  0  0
M  END
> <VConfSearch Rank>
503

> <Conf_Id>
52

> <Delta U+W>
2.995

> <U+W>
-33.282

> <U>
25.224

> <W>
-58.506

> <W(PB)>
-60.411

> <W(SA)>
1.905

> <Valence>
4.945

> <Coulomb>
19.467

> <VdW>
0.813

> <VdW6>
-5.458

> <VdW12>
6.270

> <Bond>
0.200

> <Angle>
1.675

> <Pdih>
3.070

> <Idih>
0.000

> <Tether>
0.000

$$$$
VeraChem MOL file


 20 19  0  0  0  0  0  0  0  0999 V2000     
   18.9519   20.2697   22.0969 N   0  3  0  0  0  0  0  0  0  0  0  0
   18.4004   19.8636   21.3371 H   0  0  0  0  0  0  0  0  0  0  0  0
   19.0470   21.2706   21.9050 H   0  0  0  0  0  0  0  0  0  0  0  0
   18.4079   20.1703   22.9567 H   0  0  0  0  0  0  0  0  0  0  0  0
   20.2937   19.6005   22.2191 C   0  0  2  0  0  0  0  0  0  0  0  0
   20.8403   20.1172   23.0141 H   0  0  0  0  0  0  0  0  0  0  0  0
   21.0807   19.7667   20.9081 C   0  0  0  0  0  0  0  0  0  0  0  0
   20.5820   19.2516   20.0776 H   0  0  0  0  0  0  0  0  0  0  0  0
   22.0939   19.3573   21.0054 H   0  0  0  0  0  0  0  0  0  0  0  0
   21.1770   20.8271   20.6443 H   0  0  0  0  0  0  0  0  0  0  0  0
   20.1853   18.1040   22.5972 C   0  0  0  0  0  0  0  0  0  0  0  0
   19.4365   17.6109   21.9634 H   0  0  0  0  0  0  0  0  0  0  0  0
   21.1413   17.6148   22.3672 H   0  0  0  0  0  0  0  0  0  0  0  0
   19.8813   17.8317   24.0938 C   0  0  0  0  0  0  0  0  0  0  0  0
   20.6613   18.2885   24.7191 H   0  0  0  0  0  0  0  0  0  0  0  0
   19.9521   16.7484   24.2658 H   0  0  0  0  0  0  0  0  0  0  0  0
   18.4913   18.3101   24.5716 C   0  0  0  0  0  0  0  0  0  0  0  0
   18.2741   17.9065   25.5692 H   0  0  0  0  0  0  0  0  0  0  0  0
   17.6969   17.9685   23.8953 H   0  0  0  0  0  0  0  0  0  0  0  0
   18.4455   19.4022   24.6528 H   0  0  0  0  0  0  0  0  0  0  0  0
  1  2  1  0  0  0  0
  1  3  1  0  0  0  0
  1  4  1  0  0  0  0
  1  5  1  0  0  0  0
  5  6  1  0  0  0  0
  5  7  1  0  0  0  0
  7  8  1  0  0  0  0
  7  9  1  0  0  0  0
  7 10  1  0  0  0  0
  5 11  1  0  0  0  0
 11 12  1  0  0  0  0
 11 13  1  0  0  0  0
 11 14  1  0  0  0  0
 14 15  1  0  0  0  0
 14 16  1  0  0  0  0
 14 17  1  0  0  0  0
 17 18  1  0  0  0  0
 17 19  1  0  0  0  0
 17 20  1  0  0  0  0
M  END
> <VConfSearch Rank>
504

> <Conf_Id>
54

> <Delta U+W>
2.752

> <U+W>
-33.525

> <U>
24.337

> <W>
-57.862

> <W(PB)>
-59.764

> <W(SA)>
1.901

> <Valence>
3.593

> <Coulomb>
20.067

> <VdW>
0.677

> <VdW6>
-5.466

> <VdW12>
6.144

> <Bond>
0.191

> <Angle>
1.557

> <Pdih>
1.845

> <Idih>
0.000

> <Tether>
0.000

$$$$
VeraChem MOL file


 20 19  0  0  0  0  0  0  0  0999 V2000     
   18.0932   18.0095   21.9182 N   0  3  0  0  0  0  0  0  0  0  0  0
   17.0769   17.9173   21.9978 H   0  0  0  0  0  0  0  0  0  0  0  0
   18.4534   17.1143   21.5765 H   0  0  0  0  0  0  0  0  0  0  0  0
   18.2807   18.7111   21.1984 H   0  0  0  0  0  0  0  0  0  0  0  0
   18.7163   18.3908   23.2336 C   0  0  2  0  0  0  0  0  0  0  0  0
   18.4487   17.5959   23.9369 H   0  0  0  0  0  0  0  0  0  0  0  0
   18.1181   19.7040   23.7687 C   0  0  0  0  0  0  0  0  0  0  0  0
   18.5762   19.9795   24.7268 H   0  0  0  0  0  0  0  0  0  0  0  0
   17.0397   19.5941   23.9360 H   0  0  0  0  0  0  0  0  0  0  0  0
   18.2647   20.5331   23.0664 H   0  0  0  0  0  0  0  0  0  0  0  0
   20.2616   18.4405   23.1653 C   0  0  0  0  0  0  0  0  0  0  0  0
   20.6532   18.6340   24.1727 H   0  0  0  0  0  0  0  0  0  0  0  0
   20.6288   17.4442   22.8859 H   0  0  0  0  0  0  0  0  0  0  0  0
   20.8399   19.4900   22.1812 C   0  0  0  0  0  0  0  0  0  0  0  0
   20.5255   20.5003   22.4750 H   0  0  0  0  0  0  0  0  0  0  0  0
   20.4502   19.3162   21.1692 H   0  0  0  0  0  0  0  0  0  0  0  0
   22.3824   19.4395   22.1415 C   0  0  0  0  0  0  0  0  0  0  0  0
   22.7770   20.1887   21.4429 H   0  0  0  0  0  0  0  0  0  0  0  0
   22.7375   18.4539   21.8133 H   0  0  0  0  0  0  0  0  0  0  0  0
   22.8101   19.6445   23.1316 H   0  0  0  0  0  0  0  0  0  0  0  0
  1  2  1  0  0  0  0
  1  3  1  0  0  0  0
  1  4  1  0  0  0  0
  1  5  1  0  0  0  0
  5  6  1  0  0  0  0
  5  7  1  0  0  0  0
  7  8  1  0  0  0  0
  7  9  1  0  0  0  0
  7 10  1  0  0  0  0
  5 11  1  0  0  0  0
 11 12  1  0  0  0  0
 11 13  1  0  0  0  0
 11 14  1  0  0  0  0
 14 15  1  0  0  0  0
 14 16  1  0  0  0  0
 14 17  1  0  0  0  0
 17 18  1  0  0  0  0
 17 19  1  0  0  0  0
 17 20  1  0  0  0  0
M  END
> <VConfSearch Rank>
505

> <Conf_Id>
63

> <Delta U+W>
0.420

> <U+W>
-35.856

> <U>
22.625

> <W>
-58.481

> <W(PB)>
-60.400

> <W(SA)>
1.919

> <Valence>
2.404

> <Coulomb>
19.464

> <VdW>
0.757

> <VdW6>
-5.074

> <VdW12>
5.830

> <Bond>
0.172

> <Angle>
1.207

> <Pdih>
1.025

> <Idih>
0.000

> <Tether>
0.000

$$$$
VeraChem MOL file


 20 19  0  0  0  0  0  0  0  0999 V2000     
   20.2676   18.7515   24.4188 N   0  3  0  0  0  0  0  0  0  0  0  0
   19.2858   18.8682   24.6819 H   0  0  0  0  0  0  0  0  0  0  0  0
   20.7725   19.5826   24.7362 H   0  0  0  0  0  0  0  0  0  0  0  0
   20.6322   17.9527   24.9446 H   0  0  0  0  0  0  0  0  0  0  0  0
   20.4157   18.5498   22.9350 C   0  0  2  0  0  0  0  0  0  0  0  0
   19.8527   17.6463   22.6825 H   0  0  0  0  0  0  0  0  0  0  0  0
   21.8888   18.3147   22.5633 C   0  0  0  0  0  0  0  0  0  0  0  0
   22.2950   17.4550   23.1102 H   0  0  0  0  0  0  0  0  0  0  0  0
   22.5036   19.1920   22.8003 H   0  0  0  0  0  0  0  0  0  0  0  0
   21.9916   18.1052   21.4913 H   0  0  0  0  0  0  0  0  0  0  0  0
   19.8357   19.7265   22.1177 C   0  0  0  0  0  0  0  0  0  0  0  0
   20.3993   20.6410   22.3454 H   0  0  0  0  0  0  0  0  0  0  0  0
   19.9905   19.5294   21.0485 H   0  0  0  0  0  0  0  0  0  0  0  0
   18.3275   19.9867   22.3616 C   0  0  0  0  0  0  0  0  0  0  0  0
   18.0123   20.8389   21.7433 H   0  0  0  0  0  0  0  0  0  0  0  0
   18.1579   20.2910   23.4033 H   0  0  0  0  0  0  0  0  0  0  0  0
   17.4397   18.7673   22.0233 C   0  0  0  0  0  0  0  0  0  0  0  0
   17.5921   18.4444   20.9851 H   0  0  0  0  0  0  0  0  0  0  0  0
   16.3781   19.0198   22.1425 H   0  0  0  0  0  0  0  0  0  0  0  0
   17.6529   17.9160   22.6818 H   0  0  0  0  0  0  0  0  0  0  0  0
  1  2  1  0  0  0  0
  1  3  1  0  0  0  0
  1  4  1  0  0  0  0
  1  5  1  0  0  0  0
  5  6  1  0  0  0  0
  5  7  1  0  0  0  0
  7  8  1  0  0  0  0
  7  9  1  0  0  0  0
  7 10  1  0  0  0  0
  5 11  1  0  0  0  0
 11 12  1  0  0  0  0
 11 13  1  0  0  0  0
 11 14  1  0  0  0  0
 14 15  1  0  0  0  0
 14 16  1  0  0  0  0
 14 17  1  0  0  0  0
 17 18  1  0  0  0  0
 17 19  1  0  0  0  0
 17 20  1  0  0  0  0
M  END
> <VConfSearch Rank>
506

> <Conf_Id>
50

> <Delta U+W>
0.466

> <U+W>
-35.811

> <U>
22.369

> <W>
-58.180

> <W(PB)>
-60.103

> <W(SA)>
1.923

> <Valence>
2.168

> <Coulomb>
19.636

> <VdW>
0.566

> <VdW6>
-5.263

> <VdW12>
5.829

> <Bond>
0.162

> <Angle>
1.066

> <Pdih>
0.939

> <Idih>
0.000

> <Tether>
0.000

$$$$
VeraChem MOL file


 20 19  0  0  0  0  0  0  0  0999 V2000     
   17.9537   17.5639   23.4917 N   0  3  0  0  0  0  0  0  0  0  0  0
   18.0850   17.4988   24.5049 H   0  0  0  0  0  0  0  0  0  0  0  0
   18.1116   16.6315   23.1009 H   0  0  0  0  0  0  0  0  0  0  0  0
   16.9710   17.7996   23.3289 H   0  0  0  0  0  0  0  0  0  0  0  0
   18.8738   18.5839   22.8772 C   0  0  2  0  0  0  0  0  0  0  0  0
   18.6341   19.5382   23.3564 H   0  0  0  0  0  0  0  0  0  0  0  0
   18.5930   18.7051   21.3678 C   0  0  0  0  0  0  0  0  0  0  0  0
   18.7758   17.7530   20.8541 H   0  0  0  0  0  0  0  0  0  0  0  0
   19.2265   19.4664   20.8999 H   0  0  0  0  0  0  0  0  0  0  0  0
   17.5488   18.9903   21.1909 H   0  0  0  0  0  0  0  0  0  0  0  0
   20.3625   18.2638   23.1590 C   0  0  0  0  0  0  0  0  0  0  0  0
   20.4253   17.5478   23.9892 H   0  0  0  0  0  0  0  0  0  0  0  0
   20.8157   17.7566   22.2968 H   0  0  0  0  0  0  0  0  0  0  0  0
   21.2069   19.5020   23.5533 C   0  0  0  0  0  0  0  0  0  0  0  0
   22.2222   19.1674   23.8085 H   0  0  0  0  0  0  0  0  0  0  0  0
   20.7950   19.9514   24.4680 H   0  0  0  0  0  0  0  0  0  0  0  0
   21.3016   20.5798   22.4508 C   0  0  0  0  0  0  0  0  0  0  0  0
   21.6703   20.1525   21.5093 H   0  0  0  0  0  0  0  0  0  0  0  0
   21.9954   21.3756   22.7513 H   0  0  0  0  0  0  0  0  0  0  0  0
   20.3274   21.0484   22.2634 H   0  0  0  0  0  0  0  0  0  0  0  0
  1  2  1  0  0  0  0
  1  3  1  0  0  0  0
  1  4  1  0  0  0  0
  1  5  1  0  0  0  0
  5  6  1  0  0  0  0
  5  7  1  0  0  0  0
  7  8  1  0  0  0  0
  7  9  1  0  0  0  0
  7 10  1  0  0  0  0
  5 11  1  0  0  0  0
 11 12  1  0  0  0  0
 11 13  1  0  0  0  0
 11 14  1  0  0  0  0
 14 15  1  0  0  0  0
 14 16  1  0  0  0  0
 14 17  1  0  0  0  0
 17 18  1  0  0  0  0
 17 19  1  0  0  0  0
 17 20  1  0  0  0  0
M  END
> <VConfSearch Rank>
507

> <Conf_Id>
3

> <Delta U+W>
3.093

> <U+W>
-33.184

> <U>
25.256

> <W>
-58.439

> <W(PB)>
-60.337

> <W(SA)>
1.898

> <Valence>
4.963

> <Coulomb>
19.511

> <VdW>
0.782

> <VdW6>
-5.429

> <VdW12>
6.211

> <Bond>
0.174

> <Angle>
1.377

> <Pdih>
3.412

> <Idih>
0.000

> <Tether>
0.000

$$$$
VeraChem MOL file


 20 19  0  0  0  0  0  0  0  0999 V2000     
   19.3587   19.7383   20.6514 N   0  3  0  0  0  0  0  0  0  0  0  0
   18.4644   19.6717   20.1579 H   0  0  0  0  0  0  0  0  0  0  0  0
   20.0488   19.2241   20.0972 H   0  0  0  0  0  0  0  0  0  0  0  0
   19.6351   20.7233   20.6476 H   0  0  0  0  0  0  0  0  0  0  0  0
   19.2568   19.1983   22.0515 C   0  0  2  0  0  0  0  0  0  0  0  0
   18.9551   18.1511   21.9550 H   0  0  0  0  0  0  0  0  0  0  0  0
   18.1654   19.9483   22.8366 C   0  0  0  0  0  0  0  0  0  0  0  0
   17.9811   19.4781   23.8095 H   0  0  0  0  0  0  0  0  0  0  0  0
   17.2166   19.9376   22.2863 H   0  0  0  0  0  0  0  0  0  0  0  0
   18.4475   20.9945   23.0082 H   0  0  0  0  0  0  0  0  0  0  0  0
   20.6261   19.2452   22.7708 C   0  0  0  0  0  0  0  0  0  0  0  0
   21.3770   18.7668   22.1283 H   0  0  0  0  0  0  0  0  0  0  0  0
   20.9425   20.2908   22.8820 H   0  0  0  0  0  0  0  0  0  0  0  0
   20.6612   18.5553   24.1586 C   0  0  0  0  0  0  0  0  0  0  0  0
   20.0183   19.0929   24.8684 H   0  0  0  0  0  0  0  0  0  0  0  0
   21.6807   18.6289   24.5623 H   0  0  0  0  0  0  0  0  0  0  0  0
   20.2501   17.0663   24.1055 C   0  0  0  0  0  0  0  0  0  0  0  0
   20.8782   16.5080   23.3990 H   0  0  0  0  0  0  0  0  0  0  0  0
   19.2024   16.9477   23.8016 H   0  0  0  0  0  0  0  0  0  0  0  0
   20.3623   16.6009   25.0933 H   0  0  0  0  0  0  0  0  0  0  0  0
  1  2  1  0  0  0  0
  1  3  1  0  0  0  0
  1  4  1  0  0  0  0
  1  5  1  0  0  0  0
  5  6  1  0  0  0  0
  5  7  1  0  0  0  0
  7  8  1  0  0  0  0
  7  9  1  0  0  0  0
  7 10  1  0  0  0  0
  5 11  1  0  0  0  0
 11 12  1  0  0  0  0
 11 13  1  0  0  0  0
 11 14  1  0  0  0  0
 14 15  1  0  0  0  0
 14 16  1  0  0  0  0
 14 17  1  0  0  0  0
 17 18  1  0  0  0  0
 17 19  1  0  0  0  0
 17 20  1  0  0  0  0
M  END
> <VConfSearch Rank>
508

> <Conf_Id>
64

> <Delta U+W>
0.544

> <U+W>
-35.732

> <U>
22.800

> <W>
-58.532

> <W(PB)>
-60.437

> <W(SA)>
1.905

> <Valence>
2.662

> <Coulomb>
19.485

> <VdW>
0.653

> <VdW6>
-5.460

> <VdW12>
6.113

> <Bond>
0.174

> <Angle>
1.378

> <Pdih>
1.109

> <Idih>
0.000

> <Tether>
0.000

$$$$
VeraChem MOL file


 20 19  0  0  0  0  0  0  0  0999 V2000     
   20.1069   17.3103   24.0278 N   0  3  0  0  0  0  0  0  0  0  0  0
   21.0392   17.4442   23.6301 H   0  0  0  0  0  0  0  0  0  0  0  0
   19.9007   16.3084   23.9929 H   0  0  0  0  0  0  0  0  0  0  0  0
   20.1529   17.5765   25.0150 H   0  0  0  0  0  0  0  0  0  0  0  0
   19.0712   18.1114   23.2860 C   0  0  2  0  0  0  0  0  0  0  0  0
   18.1170   17.8932   23.7757 H   0  0  0  0  0  0  0  0  0  0  0  0
   18.9563   17.6414   21.8266 C   0  0  0  0  0  0  0  0  0  0  0  0
   19.9197   17.7049   21.3074 H   0  0  0  0  0  0  0  0  0  0  0  0
   18.2228   18.2450   21.2780 H   0  0  0  0  0  0  0  0  0  0  0  0
   18.6244   16.5968   21.7860 H   0  0  0  0  0  0  0  0  0  0  0  0
   19.3048   19.6380   23.4125 C   0  0  0  0  0  0  0  0  0  0  0  0
   18.4361   20.1741   23.0084 H   0  0  0  0  0  0  0  0  0  0  0  0
   19.3196   19.8797   24.4834 H   0  0  0  0  0  0  0  0  0  0  0  0
   20.6089   20.1888   22.7712 C   0  0  0  0  0  0  0  0  0  0  0  0
   21.4088   19.4375   22.8030 H   0  0  0  0  0  0  0  0  0  0  0  0
   20.9653   21.0309   23.3810 H   0  0  0  0  0  0  0  0  0  0  0  0
   20.4174   20.7018   21.3245 C   0  0  0  0  0  0  0  0  0  0  0  0
   20.1035   19.9051   20.6413 H   0  0  0  0  0  0  0  0  0  0  0  0
   21.3569   21.1174   20.9379 H   0  0  0  0  0  0  0  0  0  0  0  0
   19.6622   21.4976   21.2865 H   0  0  0  0  0  0  0  0  0  0  0  0
  1  2  1  0  0  0  0
  1  3  1  0  0  0  0
  1  4  1  0  0  0  0
  1  5  1  0  0  0  0
  5  6  1  0  0  0  0
  5  7  1  0  0  0  0
  7  8  1  0  0  0  0
  7  9  1  0  0  0  0
  7 10  1  0  0  0  0
  5 11  1  0  0  0  0
 11 12  1  0  0  0  0
 11 13  1  0  0  0  0
 11 14  1  0  0  0  0
 14 15  1  0  0  0  0
 14 16  1  0  0  0  0
 14 17  1  0  0  0  0
 17 18  1  0  0  0  0
 17 19  1  0  0  0  0
 17 20  1  0  0  0  0
M  END
> <VConfSearch Rank>
509

> <Conf_Id>
35

> <Delta U+W>
3.004

> <U+W>
-33.272

> <U>
25.367

> <W>
-58.639

> <W(PB)>
-60.512

> <W(SA)>
1.873

> <Valence>
4.943

> <Coulomb>
19.661

> <VdW>
0.764

> <VdW6>
-5.871

> <VdW12>
6.636

> <Bond>
0.230

> <Angle>
1.857

> <Pdih>
2.855

> <Idih>
0.000

> <Tether>
0.000

$$$$
VeraChem MOL file


 20 19  0  0  0  0  0  0  0  0999 V2000     
   18.4606   19.9169   23.3863 N   0  3  0  0  0  0  0  0  0  0  0  0
   17.8164   19.8664   24.1800 H   0  0  0  0  0  0  0  0  0  0  0  0
   18.0618   20.5753   22.7117 H   0  0  0  0  0  0  0  0  0  0  0  0
   19.3375   20.3184   23.7238 H   0  0  0  0  0  0  0  0  0  0  0  0
   18.6835   18.5634   22.7692 C   0  0  2  0  0  0  0  0  0  0  0  0
   17.6980   18.2384   22.4213 H   0  0  0  0  0  0  0  0  0  0  0  0
   19.1599   17.5407   23.8160 C   0  0  0  0  0  0  0  0  0  0  0  0
   20.1038   17.8478   24.2818 H   0  0  0  0  0  0  0  0  0  0  0  0
   19.3067   16.5549   23.3577 H   0  0  0  0  0  0  0  0  0  0  0  0
   18.4136   17.4295   24.6120 H   0  0  0  0  0  0  0  0  0  0  0  0
   19.6061   18.6081   21.5242 C   0  0  0  0  0  0  0  0  0  0  0  0
   19.4614   17.6715   20.9697 H   0  0  0  0  0  0  0  0  0  0  0  0
   19.2562   19.4014   20.8508 H   0  0  0  0  0  0  0  0  0  0  0  0
   21.1308   18.7821   21.7724 C   0  0  0  0  0  0  0  0  0  0  0  0
   21.6390   18.7477   20.7986 H   0  0  0  0  0  0  0  0  0  0  0  0
   21.5243   17.9279   22.3400 H   0  0  0  0  0  0  0  0  0  0  0  0
   21.5235   20.1002   22.4777 C   0  0  0  0  0  0  0  0  0  0  0  0
   21.0716   20.9682   21.9801 H   0  0  0  0  0  0  0  0  0  0  0  0
   22.6129   20.2335   22.4541 H   0  0  0  0  0  0  0  0  0  0  0  0
   21.2230   20.0991   23.5317 H   0  0  0  0  0  0  0  0  0  0  0  0
  1  2  1  0  0  0  0
  1  3  1  0  0  0  0
  1  4  1  0  0  0  0
  1  5  1  0  0  0  0
  5  6  1  0  0  0  0
  5  7  1  0  0  0  0
  7  8  1  0  0  0  0
  7  9  1  0  0  0  0
  7 10  1  0  0  0  0
  5 11  1  0  0  0  0
 11 12  1  0  0  0  0
 11 13  1  0  0  0  0
 11 14  1  0  0  0  0
 14 15  1  0  0  0  0
 14 16  1  0  0  0  0
 14 17  1  0  0  0  0
 17 18  1  0  0  0  0
 17 19  1  0  0  0  0
 17 20  1  0  0  0  0
M  END
> <VConfSearch Rank>
510

> <Conf_Id>
55

> <Delta U+W>
2.767

> <U+W>
-33.509

> <U>
24.552

> <W>
-58.061

> <W(PB)>
-59.930

> <W(SA)>
1.869

> <Valence>
3.726

> <Coulomb>
20.219

> <VdW>
0.606

> <VdW6>
-6.395

> <VdW12>
7.001

> <Bond>
0.241

> <Angle>
2.098

> <Pdih>
1.387

> <Idih>
0.000

> <Tether>
0.000

$$$$
VeraChem MOL file


 20 19  0  0  0  0  0  0  0  0999 V2000     
   21.2437   19.6851   23.7721 N   0  3  0  0  0  0  0  0  0  0  0  0
   20.8033   20.5702   24.0351 H   0  0  0  0  0  0  0  0  0  0  0  0
   22.2569   19.8245   23.8126 H   0  0  0  0  0  0  0  0  0  0  0  0
   21.0030   18.9966   24.4896 H   0  0  0  0  0  0  0  0  0  0  0  0
   20.8038   19.2351   22.4050 C   0  0  2  0  0  0  0  0  0  0  0  0
   21.3141   18.2875   22.2061 H   0  0  0  0  0  0  0  0  0  0  0  0
   21.2402   20.2502   21.3359 C   0  0  0  0  0  0  0  0  0  0  0  0
   22.3264   20.4008   21.3636 H   0  0  0  0  0  0  0  0  0  0  0  0
   20.7563   21.2227   21.4902 H   0  0  0  0  0  0  0  0  0  0  0  0
   20.9798   19.8949   20.3311 H   0  0  0  0  0  0  0  0  0  0  0  0
   19.2809   18.9896   22.3224 C   0  0  0  0  0  0  0  0  0  0  0  0
   18.7436   19.9219   22.5419 H   0  0  0  0  0  0  0  0  0  0  0  0
   19.0219   18.7147   21.2912 H   0  0  0  0  0  0  0  0  0  0  0  0
   18.7954   17.8696   23.2740 C   0  0  0  0  0  0  0  0  0  0  0  0
   18.9925   18.1466   24.3184 H   0  0  0  0  0  0  0  0  0  0  0  0
   19.3591   16.9467   23.0775 H   0  0  0  0  0  0  0  0  0  0  0  0
   17.2862   17.5924   23.1046 C   0  0  0  0  0  0  0  0  0  0  0  0
   16.6927   18.4895   23.3240 H   0  0  0  0  0  0  0  0  0  0  0  0
   16.9591   16.7973   23.7872 H   0  0  0  0  0  0  0  0  0  0  0  0
   17.0553   17.2720   22.0802 H   0  0  0  0  0  0  0  0  0  0  0  0
  1  2  1  0  0  0  0
  1  3  1  0  0  0  0
  1  4  1  0  0  0  0
  1  5  1  0  0  0  0
  5  6  1  0  0  0  0
  5  7  1  0  0  0  0
  7  8  1  0  0  0  0
  7  9  1  0  0  0  0
  7 10  1  0  0  0  0
  5 11  1  0  0  0  0
 11 12  1  0  0  0  0
 11 13  1  0  0  0  0
 11 14  1  0  0  0  0
 14 15  1  0  0  0  0
 14 16  1  0  0  0  0
 14 17  1  0  0  0  0
 17 18  1  0  0  0  0
 17 19  1  0  0  0  0
 17 20  1  0  0  0  0
M  END
> <VConfSearch Rank>
511

> <Conf_Id>
74

> <Delta U+W>
0.000

> <U+W>
-36.276

> <U>
22.080

> <W>
-58.356

> <W(PB)>
-60.289

> <W(SA)>
1.932

> <Valence>
1.885

> <Coulomb>
19.559

> <VdW>
0.637

> <VdW6>
-4.482

> <VdW12>
5.119

> <Bond>
0.136

> <Angle>
0.867

> <Pdih>
0.882

> <Idih>
0.000

> <Tether>
0.000

$$$$
VeraChem MOL file


 20 19  0  0  0  0  0  0  0  0999 V2000     
   21.7537   19.4967   21.5606 N   0  3  0  0  0  0  0  0  0  0  0  0
   22.0569   20.3350   22.0637 H   0  0  0  0  0  0  0  0  0  0  0  0
   21.3317   19.8034   20.6805 H   0  0  0  0  0  0  0  0  0  0  0  0
   22.5959   18.9648   21.3249 H   0  0  0  0  0  0  0  0  0  0  0  0
   20.7941   18.6752   22.3771 C   0  0  2  0  0  0  0  0  0  0  0  0
   21.3291   18.3926   23.2891 H   0  0  0  0  0  0  0  0  0  0  0  0
   20.4125   17.3902   21.6194 C   0  0  0  0  0  0  0  0  0  0  0  0
   21.3114   16.8488   21.2998 H   0  0  0  0  0  0  0  0  0  0  0  0
   19.8174   17.6176   20.7263 H   0  0  0  0  0  0  0  0  0  0  0  0
   19.8340   16.7093   22.2540 H   0  0  0  0  0  0  0  0  0  0  0  0
   19.5526   19.5037   22.7819 C   0  0  0  0  0  0  0  0  0  0  0  0
   19.8947   20.4518   23.2176 H   0  0  0  0  0  0  0  0  0  0  0  0
   18.9740   19.7647   21.8858 H   0  0  0  0  0  0  0  0  0  0  0  0
   18.6347   18.7946   23.8074 C   0  0  0  0  0  0  0  0  0  0  0  0
   19.2267   18.4770   24.6774 H   0  0  0  0  0  0  0  0  0  0  0  0
   18.2020   17.8862   23.3676 H   0  0  0  0  0  0  0  0  0  0  0  0
   17.4880   19.7153   24.2777 C   0  0  0  0  0  0  0  0  0  0  0  0
   17.8794   20.6184   24.7640 H   0  0  0  0  0  0  0  0  0  0  0  0
   16.8456   19.1960   25.0007 H   0  0  0  0  0  0  0  0  0  0  0  0
   16.8601   20.0269   23.4328 H   0  0  0  0  0  0  0  0  0  0  0  0
  1  2  1  0  0  0  0
  1  3  1  0  0  0  0
  1  4  1  0  0  0  0
  1  5  1  0  0  0  0
  5  6  1  0  0  0  0
  5  7  1  0  0  0  0
  7  8  1  0  0  0  0
  7  9  1  0  0  0  0
  7 10  1  0  0  0  0
  5 11  1  0  0  0  0
 11 12  1  0  0  0  0
 11 13  1  0  0  0  0
 11 14  1  0  0  0  0
 14 15  1  0  0  0  0
 14 16  1  0  0  0  0
 14 17  1  0  0  0  0
 17 18  1  0  0  0  0
 17 19  1  0  0  0  0
 17 20  1  0  0  0  0
M  END
> <VConfSearch Rank>
512

> <Conf_Id>
80

> <Delta U+W>
0.460

> <U+W>
-35.817

> <U>
22.495

> <W>
-58.311

> <W(PB)>
-60.259

> <W(SA)>
1.948

> <Valence>
2.419

> <Coulomb>
19.304

> <VdW>
0.772

> <VdW6>
-4.635

> <VdW12>
5.407

> <Bond>
0.149

> <Angle>
1.142

> <Pdih>
1.129

> <Idih>
0.000

> <Tether>
0.000

$$$$
VeraChem MOL file


 20 19  0  0  0  0  0  0  0  0999 V2000     
   17.6235   17.7787   22.6623 N   0  3  0  0  0  0  0  0  0  0  0  0
   17.3916   17.4782   21.7117 H   0  0  0  0  0  0  0  0  0  0  0  0
   17.0800   18.6232   22.8579 H   0  0  0  0  0  0  0  0  0  0  0  0
   17.2918   17.0493   23.2992 H   0  0  0  0  0  0  0  0  0  0  0  0
   19.0990   18.0220   22.8242 C   0  0  2  0  0  0  0  0  0  0  0  0
   19.5924   17.0705   22.6026 H   0  0  0  0  0  0  0  0  0  0  0  0
   19.4198   18.3988   24.2807 C   0  0  0  0  0  0  0  0  0  0  0  0
   18.9714   17.6778   24.9752 H   0  0  0  0  0  0  0  0  0  0  0  0
   19.0344   19.3956   24.5283 H   0  0  0  0  0  0  0  0  0  0  0  0
   20.5008   18.3877   24.4601 H   0  0  0  0  0  0  0  0  0  0  0  0
   19.6039   19.0732   21.8057 C   0  0  0  0  0  0  0  0  0  0  0  0
   19.2978   18.7369   20.8063 H   0  0  0  0  0  0  0  0  0  0  0  0
   19.0946   20.0326   21.9666 H   0  0  0  0  0  0  0  0  0  0  0  0
   21.1417   19.2791   21.7839 C   0  0  0  0  0  0  0  0  0  0  0  0
   21.4577   19.4492   20.7450 H   0  0  0  0  0  0  0  0  0  0  0  0
   21.6547   18.3626   22.1079 H   0  0  0  0  0  0  0  0  0  0  0  0
   21.6125   20.4871   22.6277 C   0  0  0  0  0  0  0  0  0  0  0  0
   21.1628   21.4195   22.2622 H   0  0  0  0  0  0  0  0  0  0  0  0
   22.7029   20.5977   22.5650 H   0  0  0  0  0  0  0  0  0  0  0  0
   21.3506   20.3793   23.6861 H   0  0  0  0  0  0  0  0  0  0  0  0
  1  2  1  0  0  0  0
  1  3  1  0  0  0  0
  1  4  1  0  0  0  0
  1  5  1  0  0  0  0
  5  6  1  0  0  0  0
  5  7  1  0  0  0  0
  7  8  1  0  0  0  0
  7  9  1  0  0  0  0
  7 10  1  0  0  0  0
  5 11  1  0  0  0  0
 11 12  1  0  0  0  0
 11 13  1  0  0  0  0
 11 14  1  0  0  0  0
 14 15  1  0  0  0  0
 14 16  1  0  0  0  0
 14 17  1  0  0  0  0
 17 18  1  0  0  0  0
 17 19  1  0  0  0  0
 17 20  1  0  0  0  0
M  END
> <VConfSearch Rank>
513

> <Conf_Id>
52

> <Delta U+W>
2.995

> <U+W>
-33.282

> <U>
25.224

> <W>
-58.506

> <W(PB)>
-60.411

> <W(SA)>
1.905

> <Valence>
4.945

> <Coulomb>
19.467

> <VdW>
0.813

> <VdW6>
-5.458

> <VdW12>
6.270

> <Bond>
0.200

> <Angle>
1.675

> <Pdih>
3.070

> <Idih>
0.000

> <Tether>
0.000

$$$$
VeraChem MOL file


 20 19  0  0  0  0  0  0  0  0999 V2000     
   18.9580   20.4176   22.9274 N   0  3  0  0  0  0  0  0  0  0  0  0
   19.5699   21.1201   22.5050 H   0  0  0  0  0  0  0  0  0  0  0  0
   18.3281   20.9065   23.5691 H   0  0  0  0  0  0  0  0  0  0  0  0
   18.3877   20.0187   22.1786 H   0  0  0  0  0  0  0  0  0  0  0  0
   19.7515   19.3535   23.6355 C   0  0  2  0  0  0  0  0  0  0  0  0
   19.0329   18.6707   24.0994 H   0  0  0  0  0  0  0  0  0  0  0  0
   20.5988   19.9899   24.7503 C   0  0  0  0  0  0  0  0  0  0  0  0
   21.3496   20.6747   24.3367 H   0  0  0  0  0  0  0  0  0  0  0  0
   21.1214   19.2204   25.3320 H   0  0  0  0  0  0  0  0  0  0  0  0
   19.9657   20.5558   25.4448 H   0  0  0  0  0  0  0  0  0  0  0  0
   20.6488   18.5361   22.6759 C   0  0  0  0  0  0  0  0  0  0  0  0
   21.2018   19.2136   22.0120 H   0  0  0  0  0  0  0  0  0  0  0  0
   21.4094   18.0116   23.2696 H   0  0  0  0  0  0  0  0  0  0  0  0
   19.9008   17.4633   21.8416 C   0  0  0  0  0  0  0  0  0  0  0  0
   19.3888   16.7614   22.5148 H   0  0  0  0  0  0  0  0  0  0  0  0
   20.6491   16.8694   21.2981 H   0  0  0  0  0  0  0  0  0  0  0  0
   18.8893   18.0262   20.8172 C   0  0  0  0  0  0  0  0  0  0  0  0
   18.5572   17.2312   20.1368 H   0  0  0  0  0  0  0  0  0  0  0  0
   19.3391   18.8196   20.2060 H   0  0  0  0  0  0  0  0  0  0  0  0
   17.9925   18.4201   21.3090 H   0  0  0  0  0  0  0  0  0  0  0  0
  1  2  1  0  0  0  0
  1  3  1  0  0  0  0
  1  4  1  0  0  0  0
  1  5  1  0  0  0  0
  5  6  1  0  0  0  0
  5  7  1  0  0  0  0
  7  8  1  0  0  0  0
  7  9  1  0  0  0  0
  7 10  1  0  0  0  0
  5 11  1  0  0  0  0
 11 12  1  0  0  0  0
 11 13  1  0  0  0  0
 11 14  1  0  0  0  0
 14 15  1  0  0  0  0
 14 16  1  0  0  0  0
 14 17  1  0  0  0  0
 17 18  1  0  0  0  0
 17 19  1  0  0  0  0
 17 20  1  0  0  0  0
M  END
> <VConfSearch Rank>
514

> <Conf_Id>
54

> <Delta U+W>
2.752

> <U+W>
-33.525

> <U>
24.337

> <W>
-57.862

> <W(PB)>
-59.764

> <W(SA)>
1.901

> <Valence>
3.593

> <Coulomb>
20.067

> <VdW>
0.677

> <VdW6>
-5.466

> <VdW12>
6.144

> <Bond>
0.191

> <Angle>
1.557

> <Pdih>
1.845

> <Idih>
0.000

> <Tether>
0.000

$$$$
VeraChem MOL file


 20 19  0  0  0  0  0  0  0  0999 V2000     
   19.2751   18.4293   24.6358 N   0  3  0  0  0  0  0  0  0  0  0  0
   19.2704   17.6600   25.3109 H   0  0  0  0  0  0  0  0  0  0  0  0
   18.4946   19.0472   24.8742 H   0  0  0  0  0  0  0  0  0  0  0  0
   20.1393   18.9564   24.7795 H   0  0  0  0  0  0  0  0  0  0  0  0
   19.1681   17.9228   23.2231 C   0  0  2  0  0  0  0  0  0  0  0  0
   18.2290   17.3628   23.1727 H   0  0  0  0  0  0  0  0  0  0  0  0
   20.3100   16.9432   22.8989 C   0  0  0  0  0  0  0  0  0  0  0  0
   20.2295   16.5776   21.8677 H   0  0  0  0  0  0  0  0  0  0  0  0
   20.2683   16.0720   23.5640 H   0  0  0  0  0  0  0  0  0  0  0  0
   21.2939   17.4110   23.0221 H   0  0  0  0  0  0  0  0  0  0  0  0
   19.0734   19.0692   22.1878 C   0  0  0  0  0  0  0  0  0  0  0  0
   18.9073   18.6340   21.1935 H   0  0  0  0  0  0  0  0  0  0  0  0
   18.1775   19.6639   22.4095 H   0  0  0  0  0  0  0  0  0  0  0  0
   20.3066   20.0078   22.1359 C   0  0  0  0  0  0  0  0  0  0  0  0
   21.2059   19.4391   21.8641 H   0  0  0  0  0  0  0  0  0  0  0  0
   20.4927   20.4448   23.1261 H   0  0  0  0  0  0  0  0  0  0  0  0
   20.1087   21.1469   21.1128 C   0  0  0  0  0  0  0  0  0  0  0  0
   20.9898   21.8011   21.0857 H   0  0  0  0  0  0  0  0  0  0  0  0
   19.2391   21.7647   21.3721 H   0  0  0  0  0  0  0  0  0  0  0  0
   19.9550   20.7476   20.1017 H   0  0  0  0  0  0  0  0  0  0  0  0
  1  2  1  0  0  0  0
  1  3  1  0  0  0  0
  1  4  1  0  0  0  0
  1  5  1  0  0  0  0
  5  6  1  0  0  0  0
  5  7  1  0  0  0  0
  7  8  1  0  0  0  0
  7  9  1  0  0  0  0
  7 10  1  0  0  0  0
  5 11  1  0  0  0  0
 11 12  1  0  0  0  0
 11 13  1  0  0  0  0
 11 14  1  0  0  0  0
 14 15  1  0  0  0  0
 14 16  1  0  0  0  0
 14 17  1  0  0  0  0
 17 18  1  0  0  0  0
 17 19  1  0  0  0  0
 17 20  1  0  0  0  0
M  END
> <VConfSearch Rank>
515

> <Conf_Id>
63

> <Delta U+W>
0.420

> <U+W>
-35.856

> <U>
22.625

> <W>
-58.481

> <W(PB)>
-60.400

> <W(SA)>
1.919

> <Valence>
2.404

> <Coulomb>
19.464

> <VdW>
0.757

> <VdW6>
-5.074

> <VdW12>
5.830

> <Bond>
0.172

> <Angle>
1.207

> <Pdih>
1.025

> <Idih>
0.000

> <Tether>
0.000

$$$$
VeraChem MOL file


 20 19  0  0  0  0  0  0  0  0999 V2000     
   20.8304   19.8915   23.7581 N   0  3  0  0  0  0  0  0  0  0  0  0
   21.1176   20.3189   22.8740 H   0  0  0  0  0  0  0  0  0  0  0  0
   21.5934   19.2854   24.0694 H   0  0  0  0  0  0  0  0  0  0  0  0
   20.7376   20.6441   24.4456 H   0  0  0  0  0  0  0  0  0  0  0  0
   19.5454   19.1243   23.6026 C   0  0  2  0  0  0  0  0  0  0  0  0
   18.7883   19.8420   23.2729 H   0  0  0  0  0  0  0  0  0  0  0  0
   19.0951   18.5400   24.9514 C   0  0  0  0  0  0  0  0  0  0  0  0
   18.9803   19.3339   25.6997 H   0  0  0  0  0  0  0  0  0  0  0  0
   19.8232   17.8134   25.3331 H   0  0  0  0  0  0  0  0  0  0  0  0
   18.1268   18.0337   24.8530 H   0  0  0  0  0  0  0  0  0  0  0  0
   19.6491   18.0068   22.5399 C   0  0  0  0  0  0  0  0  0  0  0  0
   20.3937   17.2664   22.8612 H   0  0  0  0  0  0  0  0  0  0  0  0
   18.6903   17.4740   22.4871 H   0  0  0  0  0  0  0  0  0  0  0  0
   20.0158   18.5115   21.1212 C   0  0  0  0  0  0  0  0  0  0  0  0
   20.0694   17.6484   20.4429 H   0  0  0  0  0  0  0  0  0  0  0  0
   21.0203   18.9558   21.1237 H   0  0  0  0  0  0  0  0  0  0  0  0
   18.9970   19.5284   20.5578 C   0  0  0  0  0  0  0  0  0  0  0  0
   17.9838   19.1061   20.5453 H   0  0  0  0  0  0  0  0  0  0  0  0
   19.2575   19.8029   19.5273 H   0  0  0  0  0  0  0  0  0  0  0  0
   18.9763   20.4516   21.1504 H   0  0  0  0  0  0  0  0  0  0  0  0
  1  2  1  0  0  0  0
  1  3  1  0  0  0  0
  1  4  1  0  0  0  0
  1  5  1  0  0  0  0
  5  6  1  0  0  0  0
  5  7  1  0  0  0  0
  7  8  1  0  0  0  0
  7  9  1  0  0  0  0
  7 10  1  0  0  0  0
  5 11  1  0  0  0  0
 11 12  1  0  0  0  0
 11 13  1  0  0  0  0
 11 14  1  0  0  0  0
 14 15  1  0  0  0  0
 14 16  1  0  0  0  0
 14 17  1  0  0  0  0
 17 18  1  0  0  0  0
 17 19  1  0  0  0  0
 17 20  1  0  0  0  0
M  END
> <VConfSearch Rank>
516

> <Conf_Id>
50

> <Delta U+W>
0.466

> <U+W>
-35.811

> <U>
22.369

> <W>
-58.180

> <W(PB)>
-60.103

> <W(SA)>
1.923

> <Valence>
2.168

> <Coulomb>
19.636

> <VdW>
0.566

> <VdW6>
-5.263

> <VdW12>
5.829

> <Bond>
0.162

> <Angle>
1.066

> <Pdih>
0.939

> <Idih>
0.000

> <Tether>
0.000

$$$$
VeraChem MOL file


 20 19  0  0  0  0  0  0  0  0999 V2000     
   21.7361   19.6949   22.0365 N   0  3  0  0  0  0  0  0  0  0  0  0
   21.8189   19.3591   21.0730 H   0  0  0  0  0  0  0  0  0  0  0  0
   22.4525   19.2187   22.5904 H   0  0  0  0  0  0  0  0  0  0  0  0
   21.9690   20.6916   22.0302 H   0  0  0  0  0  0  0  0  0  0  0  0
   20.3580   19.4549   22.5914 C   0  0  2  0  0  0  0  0  0  0  0  0
   19.6676   19.9958   21.9368 H   0  0  0  0  0  0  0  0  0  0  0  0
   20.2528   20.0406   24.0119 C   0  0  0  0  0  0  0  0  0  0  0  0
   20.9646   19.5571   24.6925 H   0  0  0  0  0  0  0  0  0  0  0  0
   19.2481   19.9099   24.4282 H   0  0  0  0  0  0  0  0  0  0  0  0
   20.4693   21.1158   24.0034 H   0  0  0  0  0  0  0  0  0  0  0  0
   19.9755   17.9546   22.5606 C   0  0  0  0  0  0  0  0  0  0  0  0
   20.6488   17.4261   21.8728 H   0  0  0  0  0  0  0  0  0  0  0  0
   20.1400   17.4965   23.5450 H   0  0  0  0  0  0  0  0  0  0  0  0
   18.5257   17.6863   22.0835 C   0  0  0  0  0  0  0  0  0  0  0  0
   18.3727   16.5998   22.0197 H   0  0  0  0  0  0  0  0  0  0  0  0
   18.3975   18.0727   21.0626 H   0  0  0  0  0  0  0  0  0  0  0  0
   17.4371   18.2882   22.9995 C   0  0  0  0  0  0  0  0  0  0  0  0
   17.5635   17.9544   24.0376 H   0  0  0  0  0  0  0  0  0  0  0  0
   16.4393   17.9743   22.6664 H   0  0  0  0  0  0  0  0  0  0  0  0
   17.4585   19.3849   22.9805 H   0  0  0  0  0  0  0  0  0  0  0  0
  1  2  1  0  0  0  0
  1  3  1  0  0  0  0
  1  4  1  0  0  0  0
  1  5  1  0  0  0  0
  5  6  1  0  0  0  0
  5  7  1  0  0  0  0
  7  8  1  0  0  0  0
  7  9  1  0  0  0  0
  7 10  1  0  0  0  0
  5 11  1  0  0  0  0
 11 12  1  0  0  0  0
 11 13  1  0  0  0  0
 11 14  1  0  0  0  0
 14 15  1  0  0  0  0
 14 16  1  0  0  0  0
 14 17  1  0  0  0  0
 17 18  1  0  0  0  0
 17 19  1  0  0  0  0
 17 20  1  0  0  0  0
M  END
> <VConfSearch Rank>
517

> <Conf_Id>
3

> <Delta U+W>
3.093

> <U+W>
-33.184

> <U>
25.256

> <W>
-58.439

> <W(PB)>
-60.337

> <W(SA)>
1.898

> <Valence>
4.963

> <Coulomb>
19.511

> <VdW>
0.782

> <VdW6>
-5.429

> <VdW12>
6.211

> <Bond>
0.174

> <Angle>
1.377

> <Pdih>
3.412

> <Idih>
0.000

> <Tether>
0.000

$$$$
VeraChem MOL file


 20 19  0  0  0  0  0  0  0  0999 V2000     
   17.4568   19.1508   22.2837 N   0  3  0  0  0  0  0  0  0  0  0  0
   16.9050   19.9719   22.5464 H   0  0  0  0  0  0  0  0  0  0  0  0
   17.0356   18.3421   22.7488 H   0  0  0  0  0  0  0  0  0  0  0  0
   17.3430   19.0181   21.2757 H   0  0  0  0  0  0  0  0  0  0  0  0
   18.9038   19.3163   22.6594 C   0  0  2  0  0  0  0  0  0  0  0  0
   18.9248   19.4550   23.7445 H   0  0  0  0  0  0  0  0  0  0  0  0
   19.4883   20.5771   21.9969 C   0  0  0  0  0  0  0  0  0  0  0  0
   20.4971   20.7904   22.3686 H   0  0  0  0  0  0  0  0  0  0  0  0
   18.8683   21.4540   22.2200 H   0  0  0  0  0  0  0  0  0  0  0  0
   19.5399   20.4652   20.9068 H   0  0  0  0  0  0  0  0  0  0  0  0
   19.7203   18.0476   22.3157 C   0  0  0  0  0  0  0  0  0  0  0  0
   19.2120   17.1752   22.7470 H   0  0  0  0  0  0  0  0  0  0  0  0
   19.7152   17.8958   21.2282 H   0  0  0  0  0  0  0  0  0  0  0  0
   21.1865   18.0557   22.8189 C   0  0  0  0  0  0  0  0  0  0  0  0
   21.7622   18.8370   22.3046 H   0  0  0  0  0  0  0  0  0  0  0  0
   21.6591   17.1032   22.5409 H   0  0  0  0  0  0  0  0  0  0  0  0
   21.3010   18.2437   24.3488 C   0  0  0  0  0  0  0  0  0  0  0  0
   20.7303   17.4744   24.8851 H   0  0  0  0  0  0  0  0  0  0  0  0
   20.9308   19.2277   24.6630 H   0  0  0  0  0  0  0  0  0  0  0  0
   22.3484   18.1672   24.6683 H   0  0  0  0  0  0  0  0  0  0  0  0
  1  2  1  0  0  0  0
  1  3  1  0  0  0  0
  1  4  1  0  0  0  0
  1  5  1  0  0  0  0
  5  6  1  0  0  0  0
  5  7  1  0  0  0  0
  7  8  1  0  0  0  0
  7  9  1  0  0  0  0
  7 10  1  0  0  0  0
  5 11  1  0  0  0  0
 11 12  1  0  0  0  0
 11 13  1  0  0  0  0
 11 14  1  0  0  0  0
 14 15  1  0  0  0  0
 14 16  1  0  0  0  0
 14 17  1  0  0  0  0
 17 18  1  0  0  0  0
 17 19  1  0  0  0  0
 17 20  1  0  0  0  0
M  END
> <VConfSearch Rank>
518

> <Conf_Id>
64

> <Delta U+W>
0.544

> <U+W>
-35.732

> <U>
22.800

> <W>
-58.532

> <W(PB)>
-60.437

> <W(SA)>
1.905

> <Valence>
2.662

> <Coulomb>
19.485

> <VdW>
0.653

> <VdW6>
-5.460

> <VdW12>
6.113

> <Bond>
0.174

> <Angle>
1.378

> <Pdih>
1.109

> <Idih>
0.000

> <Tether>
0.000

$$$$
VeraChem MOL file


 20 19  0  0  0  0  0  0  0  0999 V2000     
   18.5209   17.6898   23.8609 N   0  3  0  0  0  0  0  0  0  0  0  0
   18.8934   18.3319   24.5640 H   0  0  0  0  0  0  0  0  0  0  0  0
   18.6036   16.7420   24.2383 H   0  0  0  0  0  0  0  0  0  0  0  0
   17.5223   17.8902   23.7601 H   0  0  0  0  0  0  0  0  0  0  0  0
   19.2480   17.8257   22.5503 C   0  0  2  0  0  0  0  0  0  0  0  0
   18.7878   17.0967   21.8759 H   0  0  0  0  0  0  0  0  0  0  0  0
   20.7284   17.4398   22.7022 C   0  0  0  0  0  0  0  0  0  0  0  0
   21.2247   18.0460   23.4690 H   0  0  0  0  0  0  0  0  0  0  0  0
   21.2650   17.5674   21.7540 H   0  0  0  0  0  0  0  0  0  0  0  0
   20.8214   16.3877   22.9978 H   0  0  0  0  0  0  0  0  0  0  0  0
   19.0502   19.2221   21.9086 C   0  0  0  0  0  0  0  0  0  0  0  0
   19.4482   19.2123   20.8853 H   0  0  0  0  0  0  0  0  0  0  0  0
   17.9697   19.3810   21.7957 H   0  0  0  0  0  0  0  0  0  0  0  0
   19.6403   20.4278   22.6918 C   0  0  0  0  0  0  0  0  0  0  0  0
   19.6250   20.2380   23.7730 H   0  0  0  0  0  0  0  0  0  0  0  0
   18.9872   21.2972   22.5317 H   0  0  0  0  0  0  0  0  0  0  0  0
   21.0668   20.8198   22.2401 C   0  0  0  0  0  0  0  0  0  0  0  0
   21.7904   20.0152   22.4103 H   0  0  0  0  0  0  0  0  0  0  0  0
   21.4158   21.7006   22.7946 H   0  0  0  0  0  0  0  0  0  0  0  0
   21.0854   21.0717   21.1718 H   0  0  0  0  0  0  0  0  0  0  0  0
  1  2  1  0  0  0  0
  1  3  1  0  0  0  0
  1  4  1  0  0  0  0
  1  5  1  0  0  0  0
  5  6  1  0  0  0  0
  5  7  1  0  0  0  0
  7  8  1  0  0  0  0
  7  9  1  0  0  0  0
  7 10  1  0  0  0  0
  5 11  1  0  0  0  0
 11 12  1  0  0  0  0
 11 13  1  0  0  0  0
 11 14  1  0  0  0  0
 14 15  1  0  0  0  0
 14 16  1  0  0  0  0
 14 17  1  0  0  0  0
 17 18  1  0  0  0  0
 17 19  1  0  0  0  0
 17 20  1  0  0  0  0
M  END
> <VConfSearch Rank>
519

> <Conf_Id>
35

> <Delta U+W>
3.004

> <U+W>
-33.272

> <U>
25.367

> <W>
-58.639

> <W(PB)>
-60.512

> <W(SA)>
1.873

> <Valence>
4.943

> <Coulomb>
19.661

> <VdW>
0.764

> <VdW6>
-5.871

> <VdW12>
6.636

> <Bond>
0.230

> <Angle>
1.857

> <Pdih>
2.855

> <Idih>
0.000

> <Tether>
0.000

$$$$
VeraChem MOL file


 20 19  0  0  0  0  0  0  0  0999 V2000     
   18.2174   19.0530   23.5050 N   0  3  0  0  0  0  0  0  0  0  0  0
   17.7959   19.5070   24.3198 H   0  0  0  0  0  0  0  0  0  0  0  0
   17.5998   18.2840   23.2314 H   0  0  0  0  0  0  0  0  0  0  0  0
   18.2203   19.7301   22.7398 H   0  0  0  0  0  0  0  0  0  0  0  0
   19.6077   18.5630   23.8037 C   0  0  2  0  0  0  0  0  0  0  0  0
   19.4899   17.8326   24.6102 H   0  0  0  0  0  0  0  0  0  0  0  0
   20.4996   19.6970   24.3396 C   0  0  0  0  0  0  0  0  0  0  0  0
   20.5894   20.5172   23.6174 H   0  0  0  0  0  0  0  0  0  0  0  0
   21.5067   19.3257   24.5660 H   0  0  0  0  0  0  0  0  0  0  0  0
   20.0814   20.1098   25.2656 H   0  0  0  0  0  0  0  0  0  0  0  0
   20.2568   17.8138   22.6118 C   0  0  0  0  0  0  0  0  0  0  0  0
   21.1030   17.2348   23.0044 H   0  0  0  0  0  0  0  0  0  0  0  0
   19.5463   17.0684   22.2312 H   0  0  0  0  0  0  0  0  0  0  0  0
   20.7794   18.6748   21.4278 C   0  0  0  0  0  0  0  0  0  0  0  0
   21.2456   17.9992   20.6969 H   0  0  0  0  0  0  0  0  0  0  0  0
   21.5840   19.3412   21.7673 H   0  0  0  0  0  0  0  0  0  0  0  0
   19.6932   19.4999   20.7010 C   0  0  0  0  0  0  0  0  0  0  0  0
   18.8350   18.8733   20.4251 H   0  0  0  0  0  0  0  0  0  0  0  0
   20.0994   19.9325   19.7774 H   0  0  0  0  0  0  0  0  0  0  0  0
   19.3397   20.3341   21.3177 H   0  0  0  0  0  0  0  0  0  0  0  0
  1  2  1  0  0  0  0
  1  3  1  0  0  0  0
  1  4  1  0  0  0  0
  1  5  1  0  0  0  0
  5  6  1  0  0  0  0
  5  7  1  0  0  0  0
  7  8  1  0  0  0  0
  7  9  1  0  0  0  0
  7 10  1  0  0  0  0
  5 11  1  0  0  0  0
 11 12  1  0  0  0  0
 11 13  1  0  0  0  0
 11 14  1  0  0  0  0
 14 15  1  0  0  0  0
 14 16  1  0  0  0  0
 14 17  1  0  0  0  0
 17 18  1  0  0  0  0
 17 19  1  0  0  0  0
 17 20  1  0  0  0  0
M  END
> <VConfSearch Rank>
520

> <Conf_Id>
55

> <Delta U+W>
2.767

> <U+W>
-33.509

> <U>
24.552

> <W>
-58.061

> <W(PB)>
-59.930

> <W(SA)>
1.869

> <Valence>
3.726

> <Coulomb>
20.219

> <VdW>
0.606

> <VdW6>
-6.395

> <VdW12>
7.001

> <Bond>
0.241

> <Angle>
2.098

> <Pdih>
1.387

> <Idih>
0.000

> <Tether>
0.000

$$$$
VeraChem MOL file


 20 19  0  0  0  0  0  0  0  0999 V2000     
   21.0532   20.0905   23.6611 N   0  3  0  0  0  0  0  0  0  0  0  0
   21.1577   19.5086   24.4960 H   0  0  0  0  0  0  0  0  0  0  0  0
   21.3049   21.0475   23.9227 H   0  0  0  0  0  0  0  0  0  0  0  0
   21.7426   19.7718   22.9758 H   0  0  0  0  0  0  0  0  0  0  0  0
   19.6540   20.0197   23.1112 C   0  0  2  0  0  0  0  0  0  0  0  0
   19.6311   20.6619   22.2252 H   0  0  0  0  0  0  0  0  0  0  0  0
   18.6443   20.5712   24.1312 C   0  0  0  0  0  0  0  0  0  0  0  0
   18.8988   21.6005   24.4122 H   0  0  0  0  0  0  0  0  0  0  0  0
   18.6280   19.9620   25.0435 H   0  0  0  0  0  0  0  0  0  0  0  0
   17.6313   20.5828   23.7102 H   0  0  0  0  0  0  0  0  0  0  0  0
   19.2568   18.5901   22.6816 C   0  0  0  0  0  0  0  0  0  0  0  0
   19.2948   17.9190   23.5499 H   0  0  0  0  0  0  0  0  0  0  0  0
   18.2132   18.6003   22.3396 H   0  0  0  0  0  0  0  0  0  0  0  0
   20.1478   18.0289   21.5473 C   0  0  0  0  0  0  0  0  0  0  0  0
   21.1906   17.9557   21.8845 H   0  0  0  0  0  0  0  0  0  0  0  0
   20.1375   18.7195   20.6922 H   0  0  0  0  0  0  0  0  0  0  0  0
   19.6710   16.6355   21.0845 C   0  0  0  0  0  0  0  0  0  0  0  0
   19.6990   15.9137   21.9113 H   0  0  0  0  0  0  0  0  0  0  0  0
   20.3143   16.2524   20.2817 H   0  0  0  0  0  0  0  0  0  0  0  0
   18.6432   16.6761   20.7010 H   0  0  0  0  0  0  0  0  0  0  0  0
  1  2  1  0  0  0  0
  1  3  1  0  0  0  0
  1  4  1  0  0  0  0
  1  5  1  0  0  0  0
  5  6  1  0  0  0  0
  5  7  1  0  0  0  0
  7  8  1  0  0  0  0
  7  9  1  0  0  0  0
  7 10  1  0  0  0  0
  5 11  1  0  0  0  0
 11 12  1  0  0  0  0
 11 13  1  0  0  0  0
 11 14  1  0  0  0  0
 14 15  1  0  0  0  0
 14 16  1  0  0  0  0
 14 17  1  0  0  0  0
 17 18  1  0  0  0  0
 17 19  1  0  0  0  0
 17 20  1  0  0  0  0
M  END
> <VConfSearch Rank>
521

> <Conf_Id>
74

> <Delta U+W>
0.000

> <U+W>
-36.276

> <U>
22.080

> <W>
-58.356

> <W(PB)>
-60.289

> <W(SA)>
1.932

> <Valence>
1.885

> <Coulomb>
19.559

> <VdW>
0.637

> <VdW6>
-4.482

> <VdW12>
5.119

> <Bond>
0.136

> <Angle>
0.867

> <Pdih>
0.882

> <Idih>
0.000

> <Tether>
0.000

$$$$
VeraChem MOL file


 20 19  0  0  0  0  0  0  0  0999 V2000     
   19.5233   17.5922   20.7524 N   0  3  0  0  0  0  0  0  0  0  0  0
   19.0643   18.2408   20.1071 H   0  0  0  0  0  0  0  0  0  0  0  0
   18.8088   16.9459   21.0969 H   0  0  0  0  0  0  0  0  0  0  0  0
   20.1912   17.0432   20.2046 H   0  0  0  0  0  0  0  0  0  0  0  0
   20.2021   18.3185   21.8812 C   0  0  2  0  0  0  0  0  0  0  0  0
   20.9444   18.9780   21.4209 H   0  0  0  0  0  0  0  0  0  0  0  0
   20.9382   17.3194   22.7928 C   0  0  0  0  0  0  0  0  0  0  0  0
   21.6046   16.6775   22.2037 H   0  0  0  0  0  0  0  0  0  0  0  0
   20.2305   16.6742   23.3280 H   0  0  0  0  0  0  0  0  0  0  0  0
   21.5593   17.8369   23.5328 H   0  0  0  0  0  0  0  0  0  0  0  0
   19.1983   19.1942   22.6667 C   0  0  0  0  0  0  0  0  0  0  0  0
   18.6330   19.8034   21.9490 H   0  0  0  0  0  0  0  0  0  0  0  0
   18.4657   18.5525   23.1740 H   0  0  0  0  0  0  0  0  0  0  0  0
   19.8649   20.1396   23.6958 C   0  0  0  0  0  0  0  0  0  0  0  0
   20.6425   20.7378   23.2003 H   0  0  0  0  0  0  0  0  0  0  0  0
   20.3635   19.5569   24.4817 H   0  0  0  0  0  0  0  0  0  0  0  0
   18.8348   21.0833   24.3531 C   0  0  0  0  0  0  0  0  0  0  0  0
   18.3430   21.7165   23.6032 H   0  0  0  0  0  0  0  0  0  0  0  0
   19.3233   21.7432   25.0818 H   0  0  0  0  0  0  0  0  0  0  0  0
   18.0589   20.5142   24.8817 H   0  0  0  0  0  0  0  0  0  0  0  0
  1  2  1  0  0  0  0
  1  3  1  0  0  0  0
  1  4  1  0  0  0  0
  1  5  1  0  0  0  0
  5  6  1  0  0  0  0
  5  7  1  0  0  0  0
  7  8  1  0  0  0  0
  7  9  1  0  0  0  0
  7 10  1  0  0  0  0
  5 11  1  0  0  0  0
 11 12  1  0  0  0  0
 11 13  1  0  0  0  0
 11 14  1  0  0  0  0
 14 15  1  0  0  0  0
 14 16  1  0  0  0  0
 14 17  1  0  0  0  0
 17 18  1  0  0  0  0
 17 19  1  0  0  0  0
 17 20  1  0  0  0  0
M  END
> <VConfSearch Rank>
522

> <Conf_Id>
80

> <Delta U+W>
0.460

> <U+W>
-35.817

> <U>
22.495

> <W>
-58.311

> <W(PB)>
-60.259

> <W(SA)>
1.948

> <Valence>
2.419

> <Coulomb>
19.304

> <VdW>
0.772

> <VdW6>
-4.635

> <VdW12>
5.407

> <Bond>
0.149

> <Angle>
1.142

> <Pdih>
1.129

> <Idih>
0.000

> <Tether>
0.000

$$$$
VeraChem MOL file


 20 19  0  0  0  0  0  0  0  0999 V2000     
   19.3939   16.7298   23.7247 N   0  3  0  0  0  0  0  0  0  0  0  0
   19.8588   16.6602   24.6340 H   0  0  0  0  0  0  0  0  0  0  0  0
   19.9684   16.2224   23.0471 H   0  0  0  0  0  0  0  0  0  0  0  0
   18.5032   16.2315   23.8018 H   0  0  0  0  0  0  0  0  0  0  0  0
   19.1898   18.1621   23.3128 C   0  0  2  0  0  0  0  0  0  0  0  0
   18.5651   18.6174   24.0875 H   0  0  0  0  0  0  0  0  0  0  0  0
   18.4237   18.2288   21.9806 C   0  0  0  0  0  0  0  0  0  0  0  0
   17.5217   17.6060   22.0207 H   0  0  0  0  0  0  0  0  0  0  0  0
   19.0437   17.8776   21.1466 H   0  0  0  0  0  0  0  0  0  0  0  0
   18.0974   19.2528   21.7663 H   0  0  0  0  0  0  0  0  0  0  0  0
   20.5361   18.9256   23.2714 C   0  0  0  0  0  0  0  0  0  0  0  0
   21.0218   18.7899   24.2468 H   0  0  0  0  0  0  0  0  0  0  0  0
   21.2102   18.4666   22.5362 H   0  0  0  0  0  0  0  0  0  0  0  0
   20.4171   20.4508   23.0117 C   0  0  0  0  0  0  0  0  0  0  0  0
   21.1790   20.9687   23.6112 H   0  0  0  0  0  0  0  0  0  0  0  0
   19.4476   20.8249   23.3696 H   0  0  0  0  0  0  0  0  0  0  0  0
   20.6318   20.8409   21.5303 C   0  0  0  0  0  0  0  0  0  0  0  0
   21.6290   20.5376   21.1857 H   0  0  0  0  0  0  0  0  0  0  0  0
   20.5538   21.9286   21.4045 H   0  0  0  0  0  0  0  0  0  0  0  0
   19.8916   20.3768   20.8690 H   0  0  0  0  0  0  0  0  0  0  0  0
  1  2  1  0  0  0  0
  1  3  1  0  0  0  0
  1  4  1  0  0  0  0
  1  5  1  0  0  0  0
  5  6  1  0  0  0  0
  5  7  1  0  0  0  0
  7  8  1  0  0  0  0
  7  9  1  0  0  0  0
  7 10  1  0  0  0  0
  5 11  1  0  0  0  0
 11 12  1  0  0  0  0
 11 13  1  0  0  0  0
 11 14  1  0  0  0  0
 14 15  1  0  0  0  0
 14 16  1  0  0  0  0
 14 17  1  0  0  0  0
 17 18  1  0  0  0  0
 17 19  1  0  0  0  0
 17 20  1  0  0  0  0
M  END
> <VConfSearch Rank>
523

> <Conf_Id>
52

> <Delta U+W>
2.995

> <U+W>
-33.282

> <U>
25.224

> <W>
-58.506

> <W(PB)>
-60.411

> <W(SA)>
1.905

> <Valence>
4.945

> <Coulomb>
19.467

> <VdW>
0.813

> <VdW6>
-5.458

> <VdW12>
6.270

> <Bond>
0.200

> <Angle>
1.675

> <Pdih>
3.070

> <Idih>
0.000

> <Tether>
0.000

$$$$
VeraChem MOL file


 20 19  0  0  0  0  0  0  0  0999 V2000     
   19.2463   20.1028   21.6506 N   0  3  0  0  0  0  0  0  0  0  0  0
   20.1013   20.5581   21.3221 H   0  0  0  0  0  0  0  0  0  0  0  0
   18.4659   20.7323   21.4450 H   0  0  0  0  0  0  0  0  0  0  0  0
   19.1162   19.2567   21.0919 H   0  0  0  0  0  0  0  0  0  0  0  0
   19.3252   19.7814   23.1182 C   0  0  2  0  0  0  0  0  0  0  0  0
   18.3635   19.3444   23.4045 H   0  0  0  0  0  0  0  0  0  0  0  0
   19.5247   21.0753   23.9254 C   0  0  0  0  0  0  0  0  0  0  0  0
   20.4859   21.5478   23.6871 H   0  0  0  0  0  0  0  0  0  0  0  0
   19.5019   20.8714   25.0032 H   0  0  0  0  0  0  0  0  0  0  0  0
   18.7265   21.7958   23.7087 H   0  0  0  0  0  0  0  0  0  0  0  0
   20.4404   18.7613   23.4497 C   0  0  0  0  0  0  0  0  0  0  0  0
   21.3742   19.0520   22.9505 H   0  0  0  0  0  0  0  0  0  0  0  0
   20.6492   18.8088   24.5268 H   0  0  0  0  0  0  0  0  0  0  0  0
   20.0930   17.2866   23.1162 C   0  0  0  0  0  0  0  0  0  0  0  0
   19.1835   16.9891   23.6568 H   0  0  0  0  0  0  0  0  0  0  0  0
   20.8987   16.6487   23.5062 H   0  0  0  0  0  0  0  0  0  0  0  0
   19.9197   16.9849   21.6102 C   0  0  0  0  0  0  0  0  0  0  0  0
   19.8784   15.9006   21.4434 H   0  0  0  0  0  0  0  0  0  0  0  0
   20.7605   17.3789   21.0243 H   0  0  0  0  0  0  0  0  0  0  0  0
   18.9853   17.4034   21.2188 H   0  0  0  0  0  0  0  0  0  0  0  0
  1  2  1  0  0  0  0
  1  3  1  0  0  0  0
  1  4  1  0  0  0  0
  1  5  1  0  0  0  0
  5  6  1  0  0  0  0
  5  7  1  0  0  0  0
  7  8  1  0  0  0  0
  7  9  1  0  0  0  0
  7 10  1  0  0  0  0
  5 11  1  0  0  0  0
 11 12  1  0  0  0  0
 11 13  1  0  0  0  0
 11 14  1  0  0  0  0
 14 15  1  0  0  0  0
 14 16  1  0  0  0  0
 14 17  1  0  0  0  0
 17 18  1  0  0  0  0
 17 19  1  0  0  0  0
 17 20  1  0  0  0  0
M  END
> <VConfSearch Rank>
524

> <Conf_Id>
54

> <Delta U+W>
2.752

> <U+W>
-33.525

> <U>
24.337

> <W>
-57.862

> <W(PB)>
-59.764

> <W(SA)>
1.901

> <Valence>
3.593

> <Coulomb>
20.067

> <VdW>
0.677

> <VdW6>
-5.466

> <VdW12>
6.144

> <Bond>
0.191

> <Angle>
1.557

> <Pdih>
1.845

> <Idih>
0.000

> <Tether>
0.000

$$$$
VeraChem MOL file


 20 19  0  0  0  0  0  0  0  0999 V2000     
   18.5711   20.2577   23.7764 N   0  3  0  0  0  0  0  0  0  0  0  0
   17.9507   20.3388   24.5865 H   0  0  0  0  0  0  0  0  0  0  0  0
   18.2536   20.9387   23.0813 H   0  0  0  0  0  0  0  0  0  0  0  0
   19.5062   20.5400   24.0785 H   0  0  0  0  0  0  0  0  0  0  0  0
   18.5713   18.8594   23.2209 C   0  0  2  0  0  0  0  0  0  0  0  0
   17.5346   18.6437   22.9438 H   0  0  0  0  0  0  0  0  0  0  0  0
   18.9863   17.8378   24.2946 C   0  0  0  0  0  0  0  0  0  0  0  0
   18.9869   16.8200   23.8853 H   0  0  0  0  0  0  0  0  0  0  0  0
   18.2816   17.8571   25.1349 H   0  0  0  0  0  0  0  0  0  0  0  0
   19.9860   18.0494   24.6918 H   0  0  0  0  0  0  0  0  0  0  0  0
   19.4245   18.7320   21.9360 C   0  0  0  0  0  0  0  0  0  0  0  0
   19.3090   17.7164   21.5349 H   0  0  0  0  0  0  0  0  0  0  0  0
   19.0083   19.4051   21.1750 H   0  0  0  0  0  0  0  0  0  0  0  0
   20.9329   19.0416   22.1185 C   0  0  0  0  0  0  0  0  0  0  0  0
   21.3797   18.3437   22.8390 H   0  0  0  0  0  0  0  0  0  0  0  0
   21.0659   20.0518   22.5283 H   0  0  0  0  0  0  0  0  0  0  0  0
   21.6983   18.9365   20.7819 C   0  0  0  0  0  0  0  0  0  0  0  0
   22.7640   19.1560   20.9271 H   0  0  0  0  0  0  0  0  0  0  0  0
   21.3059   19.6488   20.0444 H   0  0  0  0  0  0  0  0  0  0  0  0
   21.6175   17.9269   20.3586 H   0  0  0  0  0  0  0  0  0  0  0  0
  1  2  1  0  0  0  0
  1  3  1  0  0  0  0
  1  4  1  0  0  0  0
  1  5  1  0  0  0  0
  5  6  1  0  0  0  0
  5  7  1  0  0  0  0
  7  8  1  0  0  0  0
  7  9  1  0  0  0  0
  7 10  1  0  0  0  0
  5 11  1  0  0  0  0
 11 12  1  0  0  0  0
 11 13  1  0  0  0  0
 11 14  1  0  0  0  0
 14 15  1  0  0  0  0
 14 16  1  0  0  0  0
 14 17  1  0  0  0  0
 17 18  1  0  0  0  0
 17 19  1  0  0  0  0
 17 20  1  0  0  0  0
M  END
> <VConfSearch Rank>
525

> <Conf_Id>
63

> <Delta U+W>
0.420

> <U+W>
-35.856

> <U>
22.625

> <W>
-58.481

> <W(PB)>
-60.400

> <W(SA)>
1.919

> <Valence>
2.404

> <Coulomb>
19.464

> <VdW>
0.757

> <VdW6>
-5.074

> <VdW12>
5.830

> <Bond>
0.172

> <Angle>
1.207

> <Pdih>
1.025

> <Idih>
0.000

> <Tether>
0.000

$$$$
VeraChem MOL file


 20 19  0  0  0  0  0  0  0  0999 V2000     
   20.9170   19.5762   23.8855 N   0  3  0  0  0  0  0  0  0  0  0  0
   21.1450   18.5873   24.0161 H   0  0  0  0  0  0  0  0  0  0  0  0
   20.4806   19.9083   24.7490 H   0  0  0  0  0  0  0  0  0  0  0  0
   21.8001   20.0815   23.7750 H   0  0  0  0  0  0  0  0  0  0  0  0
   20.0139   19.7770   22.6988 C   0  0  2  0  0  0  0  0  0  0  0  0
   20.5543   19.4010   21.8249 H   0  0  0  0  0  0  0  0  0  0  0  0
   19.7303   21.2719   22.4789 C   0  0  0  0  0  0  0  0  0  0  0  0
   20.6658   21.8295   22.3484 H   0  0  0  0  0  0  0  0  0  0  0  0
   19.1911   21.7039   23.3312 H   0  0  0  0  0  0  0  0  0  0  0  0
   19.1236   21.4250   21.5778 H   0  0  0  0  0  0  0  0  0  0  0  0
   18.6891   18.9908   22.8245 C   0  0  0  0  0  0  0  0  0  0  0  0
   18.1236   19.3655   23.6881 H   0  0  0  0  0  0  0  0  0  0  0  0
   18.0687   19.1926   21.9411 H   0  0  0  0  0  0  0  0  0  0  0  0
   18.8709   17.4580   22.9642 C   0  0  0  0  0  0  0  0  0  0  0  0
   17.8794   16.9919   23.0511 H   0  0  0  0  0  0  0  0  0  0  0  0
   19.3981   17.2214   23.8984 H   0  0  0  0  0  0  0  0  0  0  0  0
   19.6186   16.8251   21.7686 C   0  0  0  0  0  0  0  0  0  0  0  0
   19.1094   17.0483   20.8220 H   0  0  0  0  0  0  0  0  0  0  0  0
   19.6612   15.7334   21.8760 H   0  0  0  0  0  0  0  0  0  0  0  0
   20.6507   17.1905   21.6970 H   0  0  0  0  0  0  0  0  0  0  0  0
  1  2  1  0  0  0  0
  1  3  1  0  0  0  0
  1  4  1  0  0  0  0
  1  5  1  0  0  0  0
  5  6  1  0  0  0  0
  5  7  1  0  0  0  0
  7  8  1  0  0  0  0
  7  9  1  0  0  0  0
  7 10  1  0  0  0  0
  5 11  1  0  0  0  0
 11 12  1  0  0  0  0
 11 13  1  0  0  0  0
 11 14  1  0  0  0  0
 14 15  1  0  0  0  0
 14 16  1  0  0  0  0
 14 17  1  0  0  0  0
 17 18  1  0  0  0  0
 17 19  1  0  0  0  0
 17 20  1  0  0  0  0
M  END
> <VConfSearch Rank>
526

> <Conf_Id>
50

> <Delta U+W>
0.466

> <U+W>
-35.811

> <U>
22.369

> <W>
-58.180

> <W(PB)>
-60.103

> <W(SA)>
1.923

> <Valence>
2.168

> <Coulomb>
19.636

> <VdW>
0.566

> <VdW6>
-5.263

> <VdW12>
5.829

> <Bond>
0.162

> <Angle>
1.066

> <Pdih>
0.939

> <Idih>
0.000

> <Tether>
0.000

$$$$
VeraChem MOL file


 20 19  0  0  0  0  0  0  0  0999 V2000     
   19.9243   18.6594   20.4750 N   0  3  0  0  0  0  0  0  0  0  0  0
   19.4423   19.4723   20.0816 H   0  0  0  0  0  0  0  0  0  0  0  0
   19.3907   17.8277   20.2095 H   0  0  0  0  0  0  0  0  0  0  0  0
   20.8358   18.5961   20.0138 H   0  0  0  0  0  0  0  0  0  0  0  0
   20.0694   18.7694   21.9688 C   0  0  2  0  0  0  0  0  0  0  0  0
   20.6452   19.6818   22.1526 H   0  0  0  0  0  0  0  0  0  0  0  0
   20.8639   17.5666   22.5110 C   0  0  0  0  0  0  0  0  0  0  0  0
   20.3428   16.6234   22.3048 H   0  0  0  0  0  0  0  0  0  0  0  0
   21.0142   17.6379   23.5936 H   0  0  0  0  0  0  0  0  0  0  0  0
   21.8545   17.5154   22.0428 H   0  0  0  0  0  0  0  0  0  0  0  0
   18.6982   18.9149   22.6738 C   0  0  0  0  0  0  0  0  0  0  0  0
   17.9432   19.2111   21.9336 H   0  0  0  0  0  0  0  0  0  0  0  0
   18.3634   17.9450   23.0653 H   0  0  0  0  0  0  0  0  0  0  0  0
   18.6816   19.9789   23.8004 C   0  0  0  0  0  0  0  0  0  0  0  0
   17.6560   20.0660   24.1856 H   0  0  0  0  0  0  0  0  0  0  0  0
   18.9341   20.9627   23.3803 H   0  0  0  0  0  0  0  0  0  0  0  0
   19.6300   19.6665   24.9791 C   0  0  0  0  0  0  0  0  0  0  0  0
   19.4311   18.6700   25.3945 H   0  0  0  0  0  0  0  0  0  0  0  0
   19.4930   20.3984   25.7857 H   0  0  0  0  0  0  0  0  0  0  0  0
   20.6818   19.7124   24.6705 H   0  0  0  0  0  0  0  0  0  0  0  0
  1  2  1  0  0  0  0
  1  3  1  0  0  0  0
  1  4  1  0  0  0  0
  1  5  1  0  0  0  0
  5  6  1  0  0  0  0
  5  7  1  0  0  0  0
  7  8  1  0  0  0  0
  7  9  1  0  0  0  0
  7 10  1  0  0  0  0
  5 11  1  0  0  0  0
 11 12  1  0  0  0  0
 11 13  1  0  0  0  0
 11 14  1  0  0  0  0
 14 15  1  0  0  0  0
 14 16  1  0  0  0  0
 14 17  1  0  0  0  0
 17 18  1  0  0  0  0
 17 19  1  0  0  0  0
 17 20  1  0  0  0  0
M  END
> <VConfSearch Rank>
527

> <Conf_Id>
3

> <Delta U+W>
3.093

> <U+W>
-33.184

> <U>
25.256

> <W>
-58.439

> <W(PB)>
-60.337

> <W(SA)>
1.898

> <Valence>
4.963

> <Coulomb>
19.511

> <VdW>
0.782

> <VdW6>
-5.429

> <VdW12>
6.211

> <Bond>
0.174

> <Angle>
1.377

> <Pdih>
3.412

> <Idih>
0.000

> <Tether>
0.000

$$$$
VeraChem MOL file


 20 19  0  0  0  0  0  0  0  0999 V2000     
   21.5882   18.2958   21.6985 N   0  3  0  0  0  0  0  0  0  0  0  0
   22.2077   17.5640   22.0567 H   0  0  0  0  0  0  0  0  0  0  0  0
   22.1355   19.1596   21.6528 H   0  0  0  0  0  0  0  0  0  0  0  0
   21.3386   18.0403   20.7398 H   0  0  0  0  0  0  0  0  0  0  0  0
   20.3679   18.4565   22.5631 C   0  0  2  0  0  0  0  0  0  0  0  0
   20.7315   18.7231   23.5600 H   0  0  0  0  0  0  0  0  0  0  0  0
   19.6042   17.1236   22.6646 C   0  0  0  0  0  0  0  0  0  0  0  0
   18.7933   17.1849   23.3995 H   0  0  0  0  0  0  0  0  0  0  0  0
   20.2744   16.3175   22.9874 H   0  0  0  0  0  0  0  0  0  0  0  0
   19.1712   16.8394   21.6975 H   0  0  0  0  0  0  0  0  0  0  0  0
   19.4664   19.6053   22.0514 C   0  0  0  0  0  0  0  0  0  0  0  0
   20.0825   20.5051   21.9236 H   0  0  0  0  0  0  0  0  0  0  0  0
   19.0868   19.3520   21.0526 H   0  0  0  0  0  0  0  0  0  0  0  0
   18.2709   19.9599   22.9723 C   0  0  0  0  0  0  0  0  0  0  0  0
   17.5613   19.1227   23.0161 H   0  0  0  0  0  0  0  0  0  0  0  0
   17.7185   20.7980   22.5247 H   0  0  0  0  0  0  0  0  0  0  0  0
   18.7040   20.3531   24.4030 C   0  0  0  0  0  0  0  0  0  0  0  0
   19.4168   21.1878   24.3845 H   0  0  0  0  0  0  0  0  0  0  0  0
   19.1738   19.5117   24.9278 H   0  0  0  0  0  0  0  0  0  0  0  0
   17.8349   20.6681   24.9951 H   0  0  0  0  0  0  0  0  0  0  0  0
  1  2  1  0  0  0  0
  1  3  1  0  0  0  0
  1  4  1  0  0  0  0
  1  5  1  0  0  0  0
  5  6  1  0  0  0  0
  5  7  1  0  0  0  0
  7  8  1  0  0  0  0
  7  9  1  0  0  0  0
  7 10  1  0  0  0  0
  5 11  1  0  0  0  0
 11 12  1  0  0  0  0
 11 13  1  0  0  0  0
 11 14  1  0  0  0  0
 14 15  1  0  0  0  0
 14 16  1  0  0  0  0
 14 17  1  0  0  0  0
 17 18  1  0  0  0  0
 17 19  1  0  0  0  0
 17 20  1  0  0  0  0
M  END
> <VConfSearch Rank>
528

> <Conf_Id>
64

> <Delta U+W>
0.544

> <U+W>
-35.732

> <U>
22.800

> <W>
-58.532

> <W(PB)>
-60.437

> <W(SA)>
1.905

> <Valence>
2.662

> <Coulomb>
19.485

> <VdW>
0.653

> <VdW6>
-5.460

> <VdW12>
6.113

> <Bond>
0.174

> <Angle>
1.378

> <Pdih>
1.109

> <Idih>
0.000

> <Tether>
0.000

$$$$
VeraChem MOL file


 20 19  0  0  0  0  0  0  0  0999 V2000     
   19.3653   17.4768   21.2146 N   0  3  0  0  0  0  0  0  0  0  0  0
   20.3775   17.5865   21.1209 H   0  0  0  0  0  0  0  0  0  0  0  0
   18.9647   17.5213   20.2738 H   0  0  0  0  0  0  0  0  0  0  0  0
   19.1904   16.5349   21.5748 H   0  0  0  0  0  0  0  0  0  0  0  0
   18.7777   18.5313   22.1134 C   0  0  2  0  0  0  0  0  0  0  0  0
   17.7010   18.3361   22.1393 H   0  0  0  0  0  0  0  0  0  0  0  0
   18.9759   19.9337   21.5154 C   0  0  0  0  0  0  0  0  0  0  0  0
   20.0357   20.1466   21.3336 H   0  0  0  0  0  0  0  0  0  0  0  0
   18.5741   20.7045   22.1846 H   0  0  0  0  0  0  0  0  0  0  0  0
   18.4500   20.0188   20.5566 H   0  0  0  0  0  0  0  0  0  0  0  0
   19.2923   18.4174   23.5705 C   0  0  0  0  0  0  0  0  0  0  0  0
   18.7090   19.0870   24.2161 H   0  0  0  0  0  0  0  0  0  0  0  0
   19.0596   17.4037   23.9221 H   0  0  0  0  0  0  0  0  0  0  0  0
   20.8108   18.6700   23.7844 C   0  0  0  0  0  0  0  0  0  0  0  0
   21.3870   18.3652   22.9010 H   0  0  0  0  0  0  0  0  0  0  0  0
   21.1567   18.0248   24.6042 H   0  0  0  0  0  0  0  0  0  0  0  0
   21.1471   20.1322   24.1609 C   0  0  0  0  0  0  0  0  0  0  0  0
   20.8714   20.8371   23.3691 H   0  0  0  0  0  0  0  0  0  0  0  0
   22.2241   20.2432   24.3417 H   0  0  0  0  0  0  0  0  0  0  0  0
   20.6242   20.4319   25.0784 H   0  0  0  0  0  0  0  0  0  0  0  0
  1  2  1  0  0  0  0
  1  3  1  0  0  0  0
  1  4  1  0  0  0  0
  1  5  1  0  0  0  0
  5  6  1  0  0  0  0
  5  7  1  0  0  0  0
  7  8  1  0  0  0  0
  7  9  1  0  0  0  0
  7 10  1  0  0  0  0
  5 11  1  0  0  0  0
 11 12  1  0  0  0  0
 11 13  1  0  0  0  0
 11 14  1  0  0  0  0
 14 15  1  0  0  0  0
 14 16  1  0  0  0  0
 14 17  1  0  0  0  0
 17 18  1  0  0  0  0
 17 19  1  0  0  0  0
 17 20  1  0  0  0  0
M  END
> <VConfSearch Rank>
529

> <Conf_Id>
35

> <Delta U+W>
3.004

> <U+W>
-33.272

> <U>
25.367

> <W>
-58.639

> <W(PB)>
-60.512

> <W(SA)>
1.873

> <Valence>
4.943

> <Coulomb>
19.661

> <VdW>
0.764

> <VdW6>
-5.871

> <VdW12>
6.636

> <Bond>
0.230

> <Angle>
1.857

> <Pdih>
2.855

> <Idih>
0.000

> <Tether>
0.000

$$$$
VeraChem MOL file


 20 19  0  0  0  0  0  0  0  0999 V2000     
   18.0954   19.2284   22.2631 N   0  3  0  0  0  0  0  0  0  0  0  0
   17.4902   19.1271   21.4439 H   0  0  0  0  0  0  0  0  0  0  0  0
   17.6142   19.8457   22.9227 H   0  0  0  0  0  0  0  0  0  0  0  0
   18.1749   18.3107   22.7052 H   0  0  0  0  0  0  0  0  0  0  0  0
   19.4471   19.7706   21.8872 C   0  0  2  0  0  0  0  0  0  0  0  0
   19.2526   20.7555   21.4511 H   0  0  0  0  0  0  0  0  0  0  0  0
   20.1138   18.9112   20.7984 C   0  0  0  0  0  0  0  0  0  0  0  0
   20.2569   17.8761   21.1307 H   0  0  0  0  0  0  0  0  0  0  0  0
   21.0927   19.3230   20.5231 H   0  0  0  0  0  0  0  0  0  0  0  0
   19.4953   18.8903   19.8930 H   0  0  0  0  0  0  0  0  0  0  0  0
   20.3722   19.9969   23.1104 C   0  0  0  0  0  0  0  0  0  0  0  0
   21.1828   20.6668   22.7945 H   0  0  0  0  0  0  0  0  0  0  0  0
   19.8177   20.5532   23.8774 H   0  0  0  0  0  0  0  0  0  0  0  0
   21.0199   18.7402   23.7567 C   0  0  0  0  0  0  0  0  0  0  0  0
   21.6743   19.0776   24.5727 H   0  0  0  0  0  0  0  0  0  0  0  0
   21.6815   18.2396   23.0368 H   0  0  0  0  0  0  0  0  0  0  0  0
   20.0127   17.7196   24.3338 C   0  0  0  0  0  0  0  0  0  0  0  0
   19.2832   18.2087   24.9924 H   0  0  0  0  0  0  0  0  0  0  0  0
   20.5390   16.9603   24.9267 H   0  0  0  0  0  0  0  0  0  0  0  0
   19.4744   17.1902   23.5393 H   0  0  0  0  0  0  0  0  0  0  0  0
  1  2  1  0  0  0  0
  1  3  1  0  0  0  0
  1  4  1  0  0  0  0
  1  5  1  0  0  0  0
  5  6  1  0  0  0  0
  5  7  1  0  0  0  0
  7  8  1  0  0  0  0
  7  9  1  0  0  0  0
  7 10  1  0  0  0  0
  5 11  1  0  0  0  0
 11 12  1  0  0  0  0
 11 13  1  0  0  0  0
 11 14  1  0  0  0  0
 14 15  1  0  0  0  0
 14 16  1  0  0  0  0
 14 17  1  0  0  0  0
 17 18  1  0  0  0  0
 17 19  1  0  0  0  0
 17 20  1  0  0  0  0
M  END
> <VConfSearch Rank>
530

> <Conf_Id>
55

> <Delta U+W>
2.767

> <U+W>
-33.509

> <U>
24.552

> <W>
-58.061

> <W(PB)>
-59.930

> <W(SA)>
1.869

> <Valence>
3.726

> <Coulomb>
20.219

> <VdW>
0.606

> <VdW6>
-6.395

> <VdW12>
7.001

> <Bond>
0.241

> <Angle>
2.098

> <Pdih>
1.387

> <Idih>
0.000

> <Tether>
0.000

$$$$
VeraChem MOL file


 20 19  0  0  0  0  0  0  0  0999 V2000     
   18.0971   18.8011   21.6478 N   0  3  0  0  0  0  0  0  0  0  0  0
   17.6787   18.0198   22.1588 H   0  0  0  0  0  0  0  0  0  0  0  0
   17.7028   18.7940   20.7032 H   0  0  0  0  0  0  0  0  0  0  0  0
   17.7876   19.6652   22.0996 H   0  0  0  0  0  0  0  0  0  0  0  0
   19.5985   18.7001   21.6186 C   0  0  2  0  0  0  0  0  0  0  0  0
   19.9618   19.5692   21.0614 H   0  0  0  0  0  0  0  0  0  0  0  0
   20.0400   17.4308   20.8716 C   0  0  0  0  0  0  0  0  0  0  0  0
   19.6307   17.4167   19.8540 H   0  0  0  0  0  0  0  0  0  0  0  0
   19.6988   16.5258   21.3897 H   0  0  0  0  0  0  0  0  0  0  0  0
   21.1331   17.3862   20.7904 H   0  0  0  0  0  0  0  0  0  0  0  0
   20.2233   18.7366   23.0309 C   0  0  0  0  0  0  0  0  0  0  0  0
   19.8557   17.8859   23.6200 H   0  0  0  0  0  0  0  0  0  0  0  0
   21.3102   18.6080   22.9407 H   0  0  0  0  0  0  0  0  0  0  0  0
   19.9383   20.0576   23.7853 C   0  0  0  0  0  0  0  0  0  0  0  0
   18.8578   20.1821   23.9384 H   0  0  0  0  0  0  0  0  0  0  0  0
   20.2743   20.9104   23.1786 H   0  0  0  0  0  0  0  0  0  0  0  0
   20.6470   20.0952   25.1563 C   0  0  0  0  0  0  0  0  0  0  0  0
   20.3092   19.2712   25.7983 H   0  0  0  0  0  0  0  0  0  0  0  0
   20.4331   21.0373   25.6776 H   0  0  0  0  0  0  0  0  0  0  0  0
   21.7358   20.0145   25.0413 H   0  0  0  0  0  0  0  0  0  0  0  0
  1  2  1  0  0  0  0
  1  3  1  0  0  0  0
  1  4  1  0  0  0  0
  1  5  1  0  0  0  0
  5  6  1  0  0  0  0
  5  7  1  0  0  0  0
  7  8  1  0  0  0  0
  7  9  1  0  0  0  0
  7 10  1  0  0  0  0
  5 11  1  0  0  0  0
 11 12  1  0  0  0  0
 11 13  1  0  0  0  0
 11 14  1  0  0  0  0
 14 15  1  0  0  0  0
 14 16  1  0  0  0  0
 14 17  1  0  0  0  0
 17 18  1  0  0  0  0
 17 19  1  0  0  0  0
 17 20  1  0  0  0  0
M  END
> <VConfSearch Rank>
531

> <Conf_Id>
74

> <Delta U+W>
0.000

> <U+W>
-36.276

> <U>
22.080

> <W>
-58.356

> <W(PB)>
-60.289

> <W(SA)>
1.932

> <Valence>
1.885

> <Coulomb>
19.559

> <VdW>
0.637

> <VdW6>
-4.482

> <VdW12>
5.119

> <Bond>
0.136

> <Angle>
0.867

> <Pdih>
0.882

> <Idih>
0.000

> <Tether>
0.000

$$$$
VeraChem MOL file


 20 19  0  0  0  0  0  0  0  0999 V2000     
   20.2584   20.9477   21.5404 N   0  3  0  0  0  0  0  0  0  0  0  0
   19.5913   20.9129   20.7648 H   0  0  0  0  0  0  0  0  0  0  0  0
   21.1710   20.6676   21.1724 H   0  0  0  0  0  0  0  0  0  0  0  0
   20.3346   21.9266   21.8297 H   0  0  0  0  0  0  0  0  0  0  0  0
   19.8292   20.0678   22.6823 C   0  0  2  0  0  0  0  0  0  0  0  0
   18.8538   20.4413   23.0093 H   0  0  0  0  0  0  0  0  0  0  0  0
   20.8174   20.1964   23.8561 C   0  0  0  0  0  0  0  0  0  0  0  0
   20.9605   21.2497   24.1270 H   0  0  0  0  0  0  0  0  0  0  0  0
   21.7973   19.7758   23.5983 H   0  0  0  0  0  0  0  0  0  0  0  0
   20.4460   19.6808   24.7491 H   0  0  0  0  0  0  0  0  0  0  0  0
   19.6563   18.6010   22.2239 C   0  0  0  0  0  0  0  0  0  0  0  0
   19.0297   18.5905   21.3222 H   0  0  0  0  0  0  0  0  0  0  0  0
   20.6305   18.1882   21.9297 H   0  0  0  0  0  0  0  0  0  0  0  0
   19.0018   17.6862   23.2877 C   0  0  0  0  0  0  0  0  0  0  0  0
   18.0565   18.1314   23.6285 H   0  0  0  0  0  0  0  0  0  0  0  0
   19.6507   17.6023   24.1696 H   0  0  0  0  0  0  0  0  0  0  0  0
   18.7300   16.2713   22.7329 C   0  0  0  0  0  0  0  0  0  0  0  0
   18.0479   16.3073   21.8734 H   0  0  0  0  0  0  0  0  0  0  0  0
   18.2698   15.6356   23.5006 H   0  0  0  0  0  0  0  0  0  0  0  0
   19.6615   15.7881   22.4101 H   0  0  0  0  0  0  0  0  0  0  0  0
  1  2  1  0  0  0  0
  1  3  1  0  0  0  0
  1  4  1  0  0  0  0
  1  5  1  0  0  0  0
  5  6  1  0  0  0  0
  5  7  1  0  0  0  0
  7  8  1  0  0  0  0
  7  9  1  0  0  0  0
  7 10  1  0  0  0  0
  5 11  1  0  0  0  0
 11 12  1  0  0  0  0
 11 13  1  0  0  0  0
 11 14  1  0  0  0  0
 14 15  1  0  0  0  0
 14 16  1  0  0  0  0
 14 17  1  0  0  0  0
 17 18  1  0  0  0  0
 17 19  1  0  0  0  0
 17 20  1  0  0  0  0
M  END
> <VConfSearch Rank>
532

> <Conf_Id>
80

> <Delta U+W>
0.460

> <U+W>
-35.817

> <U>
22.495

> <W>
-58.311

> <W(PB)>
-60.259

> <W(SA)>
1.948

> <Valence>
2.419

> <Coulomb>
19.304

> <VdW>
0.772

> <VdW6>
-4.635

> <VdW12>
5.407

> <Bond>
0.149

> <Angle>
1.142

> <Pdih>
1.129

> <Idih>
0.000

> <Tether>
0.000

$$$$
VeraChem MOL file


 20 19  0  0  0  0  0  0  0  0999 V2000     
   20.2133   19.6027   20.4825 N   0  3  0  0  0  0  0  0  0  0  0  0
   19.5155   20.2787   20.1600 H   0  0  0  0  0  0  0  0  0  0  0  0
   19.9877   18.7014   20.0542 H   0  0  0  0  0  0  0  0  0  0  0  0
   21.1180   19.8999   20.1070 H   0  0  0  0  0  0  0  0  0  0  0  0
   20.2441   19.5086   21.9835 C   0  0  2  0  0  0  0  0  0  0  0  0
   20.4970   20.5091   22.3479 H   0  0  0  0  0  0  0  0  0  0  0  0
   21.3526   18.5416   22.4335 C   0  0  0  0  0  0  0  0  0  0  0  0
   22.3039   18.7892   21.9469 H   0  0  0  0  0  0  0  0  0  0  0  0
   21.1014   17.5036   22.1830 H   0  0  0  0  0  0  0  0  0  0  0  0
   21.5178   18.6099   23.5148 H   0  0  0  0  0  0  0  0  0  0  0  0
   18.8516   19.1308   22.5452 C   0  0  0  0  0  0  0  0  0  0  0  0
   18.1274   19.8510   22.1419 H   0  0  0  0  0  0  0  0  0  0  0  0
   18.5414   18.1496   22.1621 H   0  0  0  0  0  0  0  0  0  0  0  0
   18.7380   19.1633   24.0924 C   0  0  0  0  0  0  0  0  0  0  0  0
   17.7417   19.5409   24.3625 H   0  0  0  0  0  0  0  0  0  0  0  0
   19.4559   19.8812   24.5133 H   0  0  0  0  0  0  0  0  0  0  0  0
   18.9149   17.7750   24.7513 C   0  0  0  0  0  0  0  0  0  0  0  0
   18.1530   17.0708   24.3923 H   0  0  0  0  0  0  0  0  0  0  0  0
   18.8093   17.8510   25.8413 H   0  0  0  0  0  0  0  0  0  0  0  0
   19.8992   17.3409   24.5431 H   0  0  0  0  0  0  0  0  0  0  0  0
  1  2  1  0  0  0  0
  1  3  1  0  0  0  0
  1  4  1  0  0  0  0
  1  5  1  0  0  0  0
  5  6  1  0  0  0  0
  5  7  1  0  0  0  0
  7  8  1  0  0  0  0
  7  9  1  0  0  0  0
  7 10  1  0  0  0  0
  5 11  1  0  0  0  0
 11 12  1  0  0  0  0
 11 13  1  0  0  0  0
 11 14  1  0  0  0  0
 14 15  1  0  0  0  0
 14 16  1  0  0  0  0
 14 17  1  0  0  0  0
 17 18  1  0  0  0  0
 17 19  1  0  0  0  0
 17 20  1  0  0  0  0
M  END
> <VConfSearch Rank>
533

> <Conf_Id>
52

> <Delta U+W>
2.995

> <U+W>
-33.282

> <U>
25.224

> <W>
-58.506

> <W(PB)>
-60.411

> <W(SA)>
1.905

> <Valence>
4.945

> <Coulomb>
19.467

> <VdW>
0.813

> <VdW6>
-5.458

> <VdW12>
6.270

> <Bond>
0.200

> <Angle>
1.675

> <Pdih>
3.070

> <Idih>
0.000

> <Tether>
0.000

$$$$
VeraChem MOL file


 20 19  0  0  0  0  0  0  0  0999 V2000     
   18.4171   19.3559   23.6005 N   0  3  0  0  0  0  0  0  0  0  0  0
   18.6998   19.2447   24.5773 H   0  0  0  0  0  0  0  0  0  0  0  0
   17.3972   19.2762   23.5661 H   0  0  0  0  0  0  0  0  0  0  0  0
   18.6624   20.3070   23.3175 H   0  0  0  0  0  0  0  0  0  0  0  0
   19.0813   18.3348   22.7176 C   0  0  2  0  0  0  0  0  0  0  0  0
   18.6953   18.4849   21.7046 H   0  0  0  0  0  0  0  0  0  0  0  0
   18.6933   16.9185   23.1751 C   0  0  0  0  0  0  0  0  0  0  0  0
   19.0714   16.7094   24.1836 H   0  0  0  0  0  0  0  0  0  0  0  0
   19.1011   16.1618   22.4934 H   0  0  0  0  0  0  0  0  0  0  0  0
   17.6029   16.7989   23.1871 H   0  0  0  0  0  0  0  0  0  0  0  0
   20.6207   18.4863   22.6786 C   0  0  0  0  0  0  0  0  0  0  0  0
   21.0122   18.5958   23.6986 H   0  0  0  0  0  0  0  0  0  0  0  0
   21.0542   17.5552   22.2897 H   0  0  0  0  0  0  0  0  0  0  0  0
   21.1380   19.6410   21.7810 C   0  0  0  0  0  0  0  0  0  0  0  0
   20.7805   19.4982   20.7515 H   0  0  0  0  0  0  0  0  0  0  0  0
   22.2338   19.5721   21.7326 H   0  0  0  0  0  0  0  0  0  0  0  0
   20.7608   21.0594   22.2658 C   0  0  0  0  0  0  0  0  0  0  0  0
   21.3249   21.8145   21.7029 H   0  0  0  0  0  0  0  0  0  0  0  0
   20.9964   21.1939   23.3296 H   0  0  0  0  0  0  0  0  0  0  0  0
   19.6973   21.2717   22.1065 H   0  0  0  0  0  0  0  0  0  0  0  0
  1  2  1  0  0  0  0
  1  3  1  0  0  0  0
  1  4  1  0  0  0  0
  1  5  1  0  0  0  0
  5  6  1  0  0  0  0
  5  7  1  0  0  0  0
  7  8  1  0  0  0  0
  7  9  1  0  0  0  0
  7 10  1  0  0  0  0
  5 11  1  0  0  0  0
 11 12  1  0  0  0  0
 11 13  1  0  0  0  0
 11 14  1  0  0  0  0
 14 15  1  0  0  0  0
 14 16  1  0  0  0  0
 14 17  1  0  0  0  0
 17 18  1  0  0  0  0
 17 19  1  0  0  0  0
 17 20  1  0  0  0  0
M  END
> <VConfSearch Rank>
534

> <Conf_Id>
54

> <Delta U+W>
2.752

> <U+W>
-33.525

> <U>
24.337

> <W>
-57.862

> <W(PB)>
-59.764

> <W(SA)>
1.901

> <Valence>
3.593

> <Coulomb>
20.067

> <VdW>
0.677

> <VdW6>
-5.466

> <VdW12>
6.144

> <Bond>
0.191

> <Angle>
1.557

> <Pdih>
1.845

> <Idih>
0.000

> <Tether>
0.000

$$$$
VeraChem MOL file


 20 19  0  0  0  0  0  0  0  0999 V2000     
   20.3963   20.0780   21.0852 N   0  3  0  0  0  0  0  0  0  0  0  0
   20.1820   20.8920   20.5027 H   0  0  0  0  0  0  0  0  0  0  0  0
   20.8942   19.4055   20.4957 H   0  0  0  0  0  0  0  0  0  0  0  0
   21.0436   20.3862   21.8141 H   0  0  0  0  0  0  0  0  0  0  0  0
   19.1484   19.4791   21.6750 C   0  0  2  0  0  0  0  0  0  0  0  0
   18.5170   19.1983   20.8261 H   0  0  0  0  0  0  0  0  0  0  0  0
   18.3744   20.5193   22.5043 C   0  0  0  0  0  0  0  0  0  0  0  0
   17.4664   20.0783   22.9340 H   0  0  0  0  0  0  0  0  0  0  0  0
   18.0672   21.3617   21.8726 H   0  0  0  0  0  0  0  0  0  0  0  0
   18.9829   20.9201   23.3235 H   0  0  0  0  0  0  0  0  0  0  0  0
   19.4335   18.1885   22.4800 C   0  0  0  0  0  0  0  0  0  0  0  0
   18.4775   17.7562   22.8040 H   0  0  0  0  0  0  0  0  0  0  0  0
   19.8838   17.4501   21.8038 H   0  0  0  0  0  0  0  0  0  0  0  0
   20.3543   18.3764   23.7135 C   0  0  0  0  0  0  0  0  0  0  0  0
   19.8958   19.0735   24.4274 H   0  0  0  0  0  0  0  0  0  0  0  0
   21.3126   18.8172   23.4078 H   0  0  0  0  0  0  0  0  0  0  0  0
   20.6233   17.0350   24.4289 C   0  0  0  0  0  0  0  0  0  0  0  0
   21.2741   17.1841   25.3003 H   0  0  0  0  0  0  0  0  0  0  0  0
   21.1185   16.3212   23.7577 H   0  0  0  0  0  0  0  0  0  0  0  0
   19.6882   16.5806   24.7813 H   0  0  0  0  0  0  0  0  0  0  0  0
  1  2  1  0  0  0  0
  1  3  1  0  0  0  0
  1  4  1  0  0  0  0
  1  5  1  0  0  0  0
  5  6  1  0  0  0  0
  5  7  1  0  0  0  0
  7  8  1  0  0  0  0
  7  9  1  0  0  0  0
  7 10  1  0  0  0  0
  5 11  1  0  0  0  0
 11 12  1  0  0  0  0
 11 13  1  0  0  0  0
 11 14  1  0  0  0  0
 14 15  1  0  0  0  0
 14 16  1  0  0  0  0
 14 17  1  0  0  0  0
 17 18  1  0  0  0  0
 17 19  1  0  0  0  0
 17 20  1  0  0  0  0
M  END
> <VConfSearch Rank>
535

> <Conf_Id>
63

> <Delta U+W>
0.420

> <U+W>
-35.856

> <U>
22.625

> <W>
-58.481

> <W(PB)>
-60.400

> <W(SA)>
1.919

> <Valence>
2.404

> <Coulomb>
19.464

> <VdW>
0.757

> <VdW6>
-5.074

> <VdW12>
5.830

> <Bond>
0.172

> <Angle>
1.207

> <Pdih>
1.025

> <Idih>
0.000

> <Tether>
0.000

$$$$
VeraChem MOL file


 20 19  0  0  0  0  0  0  0  0999 V2000     
   20.6061   19.9615   21.6094 N   0  3  0  0  0  0  0  0  0  0  0  0
   20.2559   20.7570   22.1493 H   0  0  0  0  0  0  0  0  0  0  0  0
   20.1385   19.9768   20.6997 H   0  0  0  0  0  0  0  0  0  0  0  0
   21.6035   20.1200   21.4434 H   0  0  0  0  0  0  0  0  0  0  0  0
   20.3660   18.6630   22.3308 C   0  0  2  0  0  0  0  0  0  0  0  0
   20.8988   18.7294   23.2841 H   0  0  0  0  0  0  0  0  0  0  0  0
   20.9518   17.4842   21.5366 C   0  0  0  0  0  0  0  0  0  0  0  0
   22.0239   17.6314   21.3572 H   0  0  0  0  0  0  0  0  0  0  0  0
   20.4548   17.3732   20.5648 H   0  0  0  0  0  0  0  0  0  0  0  0
   20.8335   16.5443   22.0900 H   0  0  0  0  0  0  0  0  0  0  0  0
   18.8688   18.4202   22.6283 C   0  0  0  0  0  0  0  0  0  0  0  0
   18.3186   18.3342   21.6819 H   0  0  0  0  0  0  0  0  0  0  0  0
   18.7578   17.4530   23.1363 H   0  0  0  0  0  0  0  0  0  0  0  0
   18.2084   19.5180   23.5005 C   0  0  0  0  0  0  0  0  0  0  0  0
   17.1510   19.2594   23.6517 H   0  0  0  0  0  0  0  0  0  0  0  0
   18.2106   20.4788   22.9682 H   0  0  0  0  0  0  0  0  0  0  0  0
   18.8854   19.6845   24.8801 C   0  0  0  0  0  0  0  0  0  0  0  0
   18.8950   18.7355   25.4319 H   0  0  0  0  0  0  0  0  0  0  0  0
   18.3425   20.4194   25.4886 H   0  0  0  0  0  0  0  0  0  0  0  0
   19.9205   20.0354   24.7837 H   0  0  0  0  0  0  0  0  0  0  0  0
  1  2  1  0  0  0  0
  1  3  1  0  0  0  0
  1  4  1  0  0  0  0
  1  5  1  0  0  0  0
  5  6  1  0  0  0  0
  5  7  1  0  0  0  0
  7  8  1  0  0  0  0
  7  9  1  0  0  0  0
  7 10  1  0  0  0  0
  5 11  1  0  0  0  0
 11 12  1  0  0  0  0
 11 13  1  0  0  0  0
 11 14  1  0  0  0  0
 14 15  1  0  0  0  0
 14 16  1  0  0  0  0
 14 17  1  0  0  0  0
 17 18  1  0  0  0  0
 17 19  1  0  0  0  0
 17 20  1  0  0  0  0
M  END
> <VConfSearch Rank>
536

> <Conf_Id>
50

> <Delta U+W>
0.466

> <U+W>
-35.811

> <U>
22.369

> <W>
-58.180

> <W(PB)>
-60.103

> <W(SA)>
1.923

> <Valence>
2.168

> <Coulomb>
19.636

> <VdW>
0.566

> <VdW6>
-5.263

> <VdW12>
5.829

> <Bond>
0.162

> <Angle>
1.066

> <Pdih>
0.939

> <Idih>
0.000

> <Tether>
0.000

$$$$
VeraChem MOL file


 20 19  0  0  0  0  0  0  0  0999 V2000     
   20.7432   19.4943   24.7294 N   0  3  0  0  0  0  0  0  0  0  0  0
   21.6893   19.1123   24.6459 H   0  0  0  0  0  0  0  0  0  0  0  0
   20.2715   18.9853   25.4812 H   0  0  0  0  0  0  0  0  0  0  0  0
   20.8360   20.4676   25.0326 H   0  0  0  0  0  0  0  0  0  0  0  0
   19.9866   19.3913   23.4326 C   0  0  2  0  0  0  0  0  0  0  0  0
   20.5650   19.9583   22.6966 H   0  0  0  0  0  0  0  0  0  0  0  0
   18.5991   20.0434   23.5789 C   0  0  0  0  0  0  0  0  0  0  0  0
   18.0012   19.5328   24.3442 H   0  0  0  0  0  0  0  0  0  0  0  0
   18.0383   20.0128   22.6385 H   0  0  0  0  0  0  0  0  0  0  0  0
   18.6960   21.0960   23.8715 H   0  0  0  0  0  0  0  0  0  0  0  0
   19.8823   17.9272   22.9389 C   0  0  0  0  0  0  0  0  0  0  0  0
   20.6291   17.3168   23.4637 H   0  0  0  0  0  0  0  0  0  0  0  0
   18.9079   17.4994   23.2102 H   0  0  0  0  0  0  0  0  0  0  0  0
   20.1341   17.7579   21.4191 C   0  0  0  0  0  0  0  0  0  0  0  0
   20.1171   16.6858   21.1780 H   0  0  0  0  0  0  0  0  0  0  0  0
   21.1459   18.1098   21.1731 H   0  0  0  0  0  0  0  0  0  0  0  0
   19.1069   18.4849   20.5233 C   0  0  0  0  0  0  0  0  0  0  0  0
   18.0807   18.1863   20.7741 H   0  0  0  0  0  0  0  0  0  0  0  0
   19.2779   18.2395   19.4671 H   0  0  0  0  0  0  0  0  0  0  0  0
   19.1876   19.5744   20.6234 H   0  0  0  0  0  0  0  0  0  0  0  0
  1  2  1  0  0  0  0
  1  3  1  0  0  0  0
  1  4  1  0  0  0  0
  1  5  1  0  0  0  0
  5  6  1  0  0  0  0
  5  7  1  0  0  0  0
  7  8  1  0  0  0  0
  7  9  1  0  0  0  0
  7 10  1  0  0  0  0
  5 11  1  0  0  0  0
 11 12  1  0  0  0  0
 11 13  1  0  0  0  0
 11 14  1  0  0  0  0
 14 15  1  0  0  0  0
 14 16  1  0  0  0  0
 14 17  1  0  0  0  0
 17 18  1  0  0  0  0
 17 19  1  0  0  0  0
 17 20  1  0  0  0  0
M  END
> <VConfSearch Rank>
537

> <Conf_Id>
3

> <Delta U+W>
3.093

> <U+W>
-33.184

> <U>
25.256

> <W>
-58.439

> <W(PB)>
-60.337

> <W(SA)>
1.898

> <Valence>
4.963

> <Coulomb>
19.511

> <VdW>
0.782

> <VdW6>
-5.429

> <VdW12>
6.211

> <Bond>
0.174

> <Angle>
1.377

> <Pdih>
3.412

> <Idih>
0.000

> <Tether>
0.000

$$$$
VeraChem MOL file


 20 19  0  0  0  0  0  0  0  0999 V2000     
   18.8193   20.9701   23.3465 N   0  3  0  0  0  0  0  0  0  0  0  0
   18.0854   21.0851   24.0507 H   0  0  0  0  0  0  0  0  0  0  0  0
   18.4506   21.3336   22.4635 H   0  0  0  0  0  0  0  0  0  0  0  0
   19.6013   21.5695   23.6219 H   0  0  0  0  0  0  0  0  0  0  0  0
   19.2425   19.5321   23.2217 C   0  0  2  0  0  0  0  0  0  0  0  0
   18.3479   18.9735   22.9306 H   0  0  0  0  0  0  0  0  0  0  0  0
   19.7290   18.9971   24.5808 C   0  0  0  0  0  0  0  0  0  0  0  0
   19.9089   17.9166   24.5415 H   0  0  0  0  0  0  0  0  0  0  0  0
   18.9748   19.1723   25.3577 H   0  0  0  0  0  0  0  0  0  0  0  0
   20.6587   19.4896   24.8917 H   0  0  0  0  0  0  0  0  0  0  0  0
   20.3075   19.3561   22.1130 C   0  0  0  0  0  0  0  0  0  0  0  0
   19.9373   19.8262   21.1924 H   0  0  0  0  0  0  0  0  0  0  0  0
   21.2162   19.9061   22.3914 H   0  0  0  0  0  0  0  0  0  0  0  0
   20.6833   17.8866   21.7927 C   0  0  0  0  0  0  0  0  0  0  0  0
   21.1812   17.4234   22.6552 H   0  0  0  0  0  0  0  0  0  0  0  0
   21.4241   17.8819   20.9809 H   0  0  0  0  0  0  0  0  0  0  0  0
   19.4693   17.0296   21.3677 C   0  0  0  0  0  0  0  0  0  0  0  0
   18.9531   17.4751   20.5074 H   0  0  0  0  0  0  0  0  0  0  0  0
   18.7451   16.9227   22.1852 H   0  0  0  0  0  0  0  0  0  0  0  0
   19.7927   16.0212   21.0787 H   0  0  0  0  0  0  0  0  0  0  0  0
  1  2  1  0  0  0  0
  1  3  1  0  0  0  0
  1  4  1  0  0  0  0
  1  5  1  0  0  0  0
  5  6  1  0  0  0  0
  5  7  1  0  0  0  0
  7  8  1  0  0  0  0
  7  9  1  0  0  0  0
  7 10  1  0  0  0  0
  5 11  1  0  0  0  0
 11 12  1  0  0  0  0
 11 13  1  0  0  0  0
 11 14  1  0  0  0  0
 14 15  1  0  0  0  0
 14 16  1  0  0  0  0
 14 17  1  0  0  0  0
 17 18  1  0  0  0  0
 17 19  1  0  0  0  0
 17 20  1  0  0  0  0
M  END
> <VConfSearch Rank>
538

> <Conf_Id>
64

> <Delta U+W>
0.544

> <U+W>
-35.732

> <U>
22.800

> <W>
-58.532

> <W(PB)>
-60.437

> <W(SA)>
1.905

> <Valence>
2.662

> <Coulomb>
19.485

> <VdW>
0.653

> <VdW6>
-5.460

> <VdW12>
6.113

> <Bond>
0.174

> <Angle>
1.378

> <Pdih>
1.109

> <Idih>
0.000

> <Tether>
0.000

$$$$
VeraChem MOL file


 20 19  0  0  0  0  0  0  0  0999 V2000     
   18.5009   19.9020   21.3388 N   0  3  0  0  0  0  0  0  0  0  0  0
   18.9883   19.2420   20.7286 H   0  0  0  0  0  0  0  0  0  0  0  0
   18.5195   20.8155   20.8777 H   0  0  0  0  0  0  0  0  0  0  0  0
   17.5219   19.6077   21.3899 H   0  0  0  0  0  0  0  0  0  0  0  0
   19.1333   19.9611   22.7031 C   0  0  2  0  0  0  0  0  0  0  0  0
   18.5526   20.6953   23.2704 H   0  0  0  0  0  0  0  0  0  0  0  0
   20.5761   20.4850   22.6162 C   0  0  0  0  0  0  0  0  0  0  0  0
   21.1878   19.8680   21.9477 H   0  0  0  0  0  0  0  0  0  0  0  0
   21.0470   20.5000   23.6069 H   0  0  0  0  0  0  0  0  0  0  0  0
   20.5883   21.5103   22.2268 H   0  0  0  0  0  0  0  0  0  0  0  0
   19.0240   18.6149   23.4624 C   0  0  0  0  0  0  0  0  0  0  0  0
   19.3380   18.7580   24.5047 H   0  0  0  0  0  0  0  0  0  0  0  0
   17.9588   18.3542   23.5159 H   0  0  0  0  0  0  0  0  0  0  0  0
   19.7887   17.4124   22.8423 C   0  0  0  0  0  0  0  0  0  0  0  0
   19.8393   17.5018   21.7492 H   0  0  0  0  0  0  0  0  0  0  0  0
   19.2135   16.4971   23.0409 H   0  0  0  0  0  0  0  0  0  0  0  0
   21.2072   17.2143   23.4265 C   0  0  0  0  0  0  0  0  0  0  0  0
   21.8594   18.0719   23.2289 H   0  0  0  0  0  0  0  0  0  0  0  0
   21.6830   16.3289   22.9854 H   0  0  0  0  0  0  0  0  0  0  0  0
   21.1670   17.0625   24.5130 H   0  0  0  0  0  0  0  0  0  0  0  0
  1  2  1  0  0  0  0
  1  3  1  0  0  0  0
  1  4  1  0  0  0  0
  1  5  1  0  0  0  0
  5  6  1  0  0  0  0
  5  7  1  0  0  0  0
  7  8  1  0  0  0  0
  7  9  1  0  0  0  0
  7 10  1  0  0  0  0
  5 11  1  0  0  0  0
 11 12  1  0  0  0  0
 11 13  1  0  0  0  0
 11 14  1  0  0  0  0
 14 15  1  0  0  0  0
 14 16  1  0  0  0  0
 14 17  1  0  0  0  0
 17 18  1  0  0  0  0
 17 19  1  0  0  0  0
 17 20  1  0  0  0  0
M  END
> <VConfSearch Rank>
539

> <Conf_Id>
35

> <Delta U+W>
3.004

> <U+W>
-33.272

> <U>
25.367

> <W>
-58.639

> <W(PB)>
-60.512

> <W(SA)>
1.873

> <Valence>
4.943

> <Coulomb>
19.661

> <VdW>
0.764

> <VdW6>
-5.871

> <VdW12>
6.636

> <Bond>
0.230

> <Angle>
1.857

> <Pdih>
2.855

> <Idih>
0.000

> <Tether>
0.000

$$$$
VeraChem MOL file


 20 19  0  0  0  0  0  0  0  0999 V2000     
   20.8195   19.3396   21.2801 N   0  3  0  0  0  0  0  0  0  0  0  0
   21.7912   19.2188   20.9819 H   0  0  0  0  0  0  0  0  0  0  0  0
   20.4028   20.0546   20.6780 H   0  0  0  0  0  0  0  0  0  0  0  0
   20.3282   18.4623   21.0985 H   0  0  0  0  0  0  0  0  0  0  0  0
   20.7312   19.7225   22.7320 C   0  0  2  0  0  0  0  0  0  0  0  0
   21.2605   20.6771   22.8121 H   0  0  0  0  0  0  0  0  0  0  0  0
   21.4721   18.7117   23.6253 C   0  0  0  0  0  0  0  0  0  0  0  0
   21.0551   17.7024   23.5268 H   0  0  0  0  0  0  0  0  0  0  0  0
   21.4121   19.0077   24.6800 H   0  0  0  0  0  0  0  0  0  0  0  0
   22.5335   18.6641   23.3532 H   0  0  0  0  0  0  0  0  0  0  0  0
   19.2770   19.9752   23.2060 C   0  0  0  0  0  0  0  0  0  0  0  0
   19.3275   20.5387   24.1471 H   0  0  0  0  0  0  0  0  0  0  0  0
   18.7819   20.6461   22.4919 H   0  0  0  0  0  0  0  0  0  0  0  0
   18.3786   18.7295   23.4462 C   0  0  0  0  0  0  0  0  0  0  0  0
   17.4058   19.0797   23.8187 H   0  0  0  0  0  0  0  0  0  0  0  0
   18.7955   18.1086   24.2508 H   0  0  0  0  0  0  0  0  0  0  0  0
   18.1330   17.8596   22.1925 C   0  0  0  0  0  0  0  0  0  0  0  0
   17.7965   18.4696   21.3441 H   0  0  0  0  0  0  0  0  0  0  0  0
   17.3538   17.1132   22.3949 H   0  0  0  0  0  0  0  0  0  0  0  0
   19.0350   17.3105   21.8991 H   0  0  0  0  0  0  0  0  0  0  0  0
  1  2  1  0  0  0  0
  1  3  1  0  0  0  0
  1  4  1  0  0  0  0
  1  5  1  0  0  0  0
  5  6  1  0  0  0  0
  5  7  1  0  0  0  0
  7  8  1  0  0  0  0
  7  9  1  0  0  0  0
  7 10  1  0  0  0  0
  5 11  1  0  0  0  0
 11 12  1  0  0  0  0
 11 13  1  0  0  0  0
 11 14  1  0  0  0  0
 14 15  1  0  0  0  0
 14 16  1  0  0  0  0
 14 17  1  0  0  0  0
 17 18  1  0  0  0  0
 17 19  1  0  0  0  0
 17 20  1  0  0  0  0
M  END
> <VConfSearch Rank>
540

> <Conf_Id>
55

> <Delta U+W>
2.767

> <U+W>
-33.509

> <U>
24.552

> <W>
-58.061

> <W(PB)>
-59.930

> <W(SA)>
1.869

> <Valence>
3.726

> <Coulomb>
20.219

> <VdW>
0.606

> <VdW6>
-6.395

> <VdW12>
7.001

> <Bond>
0.241

> <Angle>
2.098

> <Pdih>
1.387

> <Idih>
0.000

> <Tether>
0.000

$$$$
VeraChem MOL file


 20 19  0  0  0  0  0  0  0  0999 V2000     
   19.5886   17.2117   21.8115 N   0  3  0  0  0  0  0  0  0  0  0  0
   20.1664   17.4322   20.9967 H   0  0  0  0  0  0  0  0  0  0  0  0
   18.9526   16.4572   21.5395 H   0  0  0  0  0  0  0  0  0  0  0  0
   20.2078   16.8403   22.5363 H   0  0  0  0  0  0  0  0  0  0  0  0
   18.8340   18.4204   22.2959 C   0  0  2  0  0  0  0  0  0  0  0  0
   18.2500   18.0998   23.1643 H   0  0  0  0  0  0  0  0  0  0  0  0
   17.8580   18.9162   21.2163 C   0  0  0  0  0  0  0  0  0  0  0  0
   17.1648   18.1182   20.9232 H   0  0  0  0  0  0  0  0  0  0  0  0
   18.3940   19.2498   20.3190 H   0  0  0  0  0  0  0  0  0  0  0  0
   17.2587   19.7565   21.5883 H   0  0  0  0  0  0  0  0  0  0  0  0
   19.7703   19.5659   22.7401 C   0  0  0  0  0  0  0  0  0  0  0  0
   20.3858   19.8908   21.8908 H   0  0  0  0  0  0  0  0  0  0  0  0
   19.1587   20.4302   23.0319 H   0  0  0  0  0  0  0  0  0  0  0  0
   20.6822   19.1765   23.9285 C   0  0  0  0  0  0  0  0  0  0  0  0
   21.3452   18.3486   23.6431 H   0  0  0  0  0  0  0  0  0  0  0  0
   20.0668   18.8174   24.7655 H   0  0  0  0  0  0  0  0  0  0  0  0
   21.5424   20.3681   24.4012 C   0  0  0  0  0  0  0  0  0  0  0  0
   22.1921   20.7309   23.5941 H   0  0  0  0  0  0  0  0  0  0  0  0
   22.1833   20.0740   25.2425 H   0  0  0  0  0  0  0  0  0  0  0  0
   20.9125   21.2032   24.7343 H   0  0  0  0  0  0  0  0  0  0  0  0
  1  2  1  0  0  0  0
  1  3  1  0  0  0  0
  1  4  1  0  0  0  0
  1  5  1  0  0  0  0
  5  6  1  0  0  0  0
  5  7  1  0  0  0  0
  7  8  1  0  0  0  0
  7  9  1  0  0  0  0
  7 10  1  0  0  0  0
  5 11  1  0  0  0  0
 11 12  1  0  0  0  0
 11 13  1  0  0  0  0
 11 14  1  0  0  0  0
 14 15  1  0  0  0  0
 14 16  1  0  0  0  0
 14 17  1  0  0  0  0
 17 18  1  0  0  0  0
 17 19  1  0  0  0  0
 17 20  1  0  0  0  0
M  END
> <VConfSearch Rank>
541

> <Conf_Id>
74

> <Delta U+W>
0.000

> <U+W>
-36.276

> <U>
22.080

> <W>
-58.356

> <W(PB)>
-60.289

> <W(SA)>
1.932

> <Valence>
1.885

> <Coulomb>
19.559

> <VdW>
0.637

> <VdW6>
-4.482

> <VdW12>
5.119

> <Bond>
0.136

> <Angle>
0.867

> <Pdih>
0.882

> <Idih>
0.000

> <Tether>
0.000

$$$$
VeraChem MOL file


 20 19  0  0  0  0  0  0  0  0999 V2000     
   21.6349   19.1132   24.1678 N   0  3  0  0  0  0  0  0  0  0  0  0
   22.2303   19.7668   23.6519 H   0  0  0  0  0  0  0  0  0  0  0  0
   22.0147   18.1741   24.0243 H   0  0  0  0  0  0  0  0  0  0  0  0
   21.7356   19.3333   25.1623 H   0  0  0  0  0  0  0  0  0  0  0  0
   20.1996   19.2022   23.7266 C   0  0  2  0  0  0  0  0  0  0  0  0
   19.8814   20.2315   23.9190 H   0  0  0  0  0  0  0  0  0  0  0  0
   19.3228   18.2569   24.5684 C   0  0  0  0  0  0  0  0  0  0  0  0
   19.4778   18.4374   25.6392 H   0  0  0  0  0  0  0  0  0  0  0  0
   19.5610   17.2059   24.3629 H   0  0  0  0  0  0  0  0  0  0  0  0
   18.2573   18.4141   24.3653 H   0  0  0  0  0  0  0  0  0  0  0  0
   20.0625   18.9291   22.2107 C   0  0  0  0  0  0  0  0  0  0  0  0
   20.7887   19.5568   21.6776 H   0  0  0  0  0  0  0  0  0  0  0  0
   20.3360   17.8875   21.9963 H   0  0  0  0  0  0  0  0  0  0  0  0
   18.6509   19.2244   21.6471 C   0  0  0  0  0  0  0  0  0  0  0  0
   18.3508   20.2469   21.9162 H   0  0  0  0  0  0  0  0  0  0  0  0
   17.9121   18.5470   22.0956 H   0  0  0  0  0  0  0  0  0  0  0  0
   18.6056   19.0652   20.1121 C   0  0  0  0  0  0  0  0  0  0  0  0
   19.3013   19.7583   19.6215 H   0  0  0  0  0  0  0  0  0  0  0  0
   17.5978   19.2743   19.7303 H   0  0  0  0  0  0  0  0  0  0  0  0
   18.8733   18.0434   19.8131 H   0  0  0  0  0  0  0  0  0  0  0  0
  1  2  1  0  0  0  0
  1  3  1  0  0  0  0
  1  4  1  0  0  0  0
  1  5  1  0  0  0  0
  5  6  1  0  0  0  0
  5  7  1  0  0  0  0
  7  8  1  0  0  0  0
  7  9  1  0  0  0  0
  7 10  1  0  0  0  0
  5 11  1  0  0  0  0
 11 12  1  0  0  0  0
 11 13  1  0  0  0  0
 11 14  1  0  0  0  0
 14 15  1  0  0  0  0
 14 16  1  0  0  0  0
 14 17  1  0  0  0  0
 17 18  1  0  0  0  0
 17 19  1  0  0  0  0
 17 20  1  0  0  0  0
M  END
> <VConfSearch Rank>
542

> <Conf_Id>
80

> <Delta U+W>
0.460

> <U+W>
-35.817

> <U>
22.495

> <W>
-58.311

> <W(PB)>
-60.259

> <W(SA)>
1.948

> <Valence>
2.419

> <Coulomb>
19.304

> <VdW>
0.772

> <VdW6>
-4.635

> <VdW12>
5.407

> <Bond>
0.149

> <Angle>
1.142

> <Pdih>
1.129

> <Idih>
0.000

> <Tether>
0.000

$$$$
VeraChem MOL file


 20 19  0  0  0  0  0  0  0  0999 V2000     
   17.3780   18.6034   22.5223 N   0  3  0  0  0  0  0  0  0  0  0  0
   17.0671   17.7394   22.9748 H   0  0  0  0  0  0  0  0  0  0  0  0
   17.3968   18.4316   21.5139 H   0  0  0  0  0  0  0  0  0  0  0  0
   16.6596   19.3113   22.6968 H   0  0  0  0  0  0  0  0  0  0  0  0
   18.7223   19.0455   23.0322 C   0  0  2  0  0  0  0  0  0  0  0  0
   18.6031   19.2092   24.1077 H   0  0  0  0  0  0  0  0  0  0  0  0
   19.1229   20.3831   22.3866 C   0  0  0  0  0  0  0  0  0  0  0  0
   18.3102   21.1144   22.4743 H   0  0  0  0  0  0  0  0  0  0  0  0
   19.3552   20.2576   21.3219 H   0  0  0  0  0  0  0  0  0  0  0  0
   19.9977   20.8139   22.8867 H   0  0  0  0  0  0  0  0  0  0  0  0
   19.7850   17.9378   22.8301 C   0  0  0  0  0  0  0  0  0  0  0  0
   19.3954   17.0198   23.2896 H   0  0  0  0  0  0  0  0  0  0  0  0
   19.8987   17.7114   21.7616 H   0  0  0  0  0  0  0  0  0  0  0  0
   21.1691   18.2333   23.4663 C   0  0  0  0  0  0  0  0  0  0  0  0
   21.5798   17.2942   23.8632 H   0  0  0  0  0  0  0  0  0  0  0  0
   21.0572   18.9019   24.3313 H   0  0  0  0  0  0  0  0  0  0  0  0
   22.1947   18.8148   22.4648 C   0  0  0  0  0  0  0  0  0  0  0  0
   22.3698   18.1184   21.6344 H   0  0  0  0  0  0  0  0  0  0  0  0
   23.1586   18.9895   22.9602 H   0  0  0  0  0  0  0  0  0  0  0  0
   21.8627   19.7686   22.0399 H   0  0  0  0  0  0  0  0  0  0  0  0
  1  2  1  0  0  0  0
  1  3  1  0  0  0  0
  1  4  1  0  0  0  0
  1  5  1  0  0  0  0
  5  6  1  0  0  0  0
  5  7  1  0  0  0  0
  7  8  1  0  0  0  0
  7  9  1  0  0  0  0
  7 10  1  0  0  0  0
  5 11  1  0  0  0  0
 11 12  1  0  0  0  0
 11 13  1  0  0  0  0
 11 14  1  0  0  0  0
 14 15  1  0  0  0  0
 14 16  1  0  0  0  0
 14 17  1  0  0  0  0
 17 18  1  0  0  0  0
 17 19  1  0  0  0  0
 17 20  1  0  0  0  0
M  END
> <VConfSearch Rank>
543

> <Conf_Id>
52

> <Delta U+W>
2.995

> <U+W>
-33.282

> <U>
25.224

> <W>
-58.506

> <W(PB)>
-60.411

> <W(SA)>
1.905

> <Valence>
4.945

> <Coulomb>
19.467

> <VdW>
0.813

> <VdW6>
-5.458

> <VdW12>
6.270

> <Bond>
0.200

> <Angle>
1.675

> <Pdih>
3.070

> <Idih>
0.000

> <Tether>
0.000

$$$$
VeraChem MOL file


 20 19  0  0  0  0  0  0  0  0999 V2000     
   20.3090   18.2484   24.0613 N   0  3  0  0  0  0  0  0  0  0  0  0
   19.6042   18.4244   24.7816 H   0  0  0  0  0  0  0  0  0  0  0  0
   21.1795   18.0002   24.5391 H   0  0  0  0  0  0  0  0  0  0  0  0
   20.0046   17.4305   23.5290 H   0  0  0  0  0  0  0  0  0  0  0  0
   20.4907   19.4449   23.1677 C   0  0  2  0  0  0  0  0  0  0  0  0
   21.2882   19.1999   22.4594 H   0  0  0  0  0  0  0  0  0  0  0  0
   20.9439   20.6549   24.0022 C   0  0  0  0  0  0  0  0  0  0  0  0
   20.1707   20.9535   24.7211 H   0  0  0  0  0  0  0  0  0  0  0  0
   21.1616   21.5154   23.3573 H   0  0  0  0  0  0  0  0  0  0  0  0
   21.8585   20.4213   24.5610 H   0  0  0  0  0  0  0  0  0  0  0  0
   19.2155   19.7918   22.3630 C   0  0  0  0  0  0  0  0  0  0  0  0
   18.3417   19.7924   23.0279 H   0  0  0  0  0  0  0  0  0  0  0  0
   19.3072   20.8199   21.9879 H   0  0  0  0  0  0  0  0  0  0  0  0
   18.9526   18.8796   21.1361 C   0  0  0  0  0  0  0  0  0  0  0  0
   19.8122   18.9216   20.4525 H   0  0  0  0  0  0  0  0  0  0  0  0
   18.1018   19.2944   20.5774 H   0  0  0  0  0  0  0  0  0  0  0  0
   18.6373   17.4056   21.4784 C   0  0  0  0  0  0  0  0  0  0  0  0
   18.2688   16.8803   20.5875 H   0  0  0  0  0  0  0  0  0  0  0  0
   17.8615   17.3320   22.2517 H   0  0  0  0  0  0  0  0  0  0  0  0
   19.5310   16.8692   21.8177 H   0  0  0  0  0  0  0  0  0  0  0  0
  1  2  1  0  0  0  0
  1  3  1  0  0  0  0
  1  4  1  0  0  0  0
  1  5  1  0  0  0  0
  5  6  1  0  0  0  0
  5  7  1  0  0  0  0
  7  8  1  0  0  0  0
  7  9  1  0  0  0  0
  7 10  1  0  0  0  0
  5 11  1  0  0  0  0
 11 12  1  0  0  0  0
 11 13  1  0  0  0  0
 11 14  1  0  0  0  0
 14 15  1  0  0  0  0
 14 16  1  0  0  0  0
 14 17  1  0  0  0  0
 17 18  1  0  0  0  0
 17 19  1  0  0  0  0
 17 20  1  0  0  0  0
M  END
> <VConfSearch Rank>
544

> <Conf_Id>
54

> <Delta U+W>
2.752

> <U+W>
-33.525

> <U>
24.337

> <W>
-57.862

> <W(PB)>
-59.764

> <W(SA)>
1.901

> <Valence>
3.593

> <Coulomb>
20.067

> <VdW>
0.677

> <VdW6>
-5.466

> <VdW12>
6.144

> <Bond>
0.191

> <Angle>
1.557

> <Pdih>
1.845

> <Idih>
0.000

> <Tether>
0.000

$$$$
VeraChem MOL file


 20 19  0  0  0  0  0  0  0  0999 V2000     
   20.6790   17.9100   24.2217 N   0  3  0  0  0  0  0  0  0  0  0  0
   20.5863   17.6063   25.1948 H   0  0  0  0  0  0  0  0  0  0  0  0
   21.6784   18.0267   24.0338 H   0  0  0  0  0  0  0  0  0  0  0  0
   20.3421   17.1469   23.6304 H   0  0  0  0  0  0  0  0  0  0  0  0
   19.9159   19.1814   23.9667 C   0  0  2  0  0  0  0  0  0  0  0  0
   20.3326   19.9269   24.6513 H   0  0  0  0  0  0  0  0  0  0  0  0
   18.4266   19.0122   24.3163 C   0  0  0  0  0  0  0  0  0  0  0  0
   17.8736   19.9406   24.1273 H   0  0  0  0  0  0  0  0  0  0  0  0
   18.3077   18.7654   25.3784 H   0  0  0  0  0  0  0  0  0  0  0  0
   17.9610   18.2095   23.7324 H   0  0  0  0  0  0  0  0  0  0  0  0
   20.1189   19.7164   22.5287 C   0  0  0  0  0  0  0  0  0  0  0  0
   19.6121   20.6863   22.4382 H   0  0  0  0  0  0  0  0  0  0  0  0
   21.1877   19.9205   22.3821 H   0  0  0  0  0  0  0  0  0  0  0  0
   19.6224   18.7727   21.4030 C   0  0  0  0  0  0  0  0  0  0  0  0
   18.5428   18.5976   21.5024 H   0  0  0  0  0  0  0  0  0  0  0  0
   20.1132   17.7936   21.4848 H   0  0  0  0  0  0  0  0  0  0  0  0
   19.9055   19.3616   20.0043 C   0  0  0  0  0  0  0  0  0  0  0  0
   19.5469   18.6842   19.2185 H   0  0  0  0  0  0  0  0  0  0  0  0
   20.9815   19.5154   19.8503 H   0  0  0  0  0  0  0  0  0  0  0  0
   19.3999   20.3272   19.8724 H   0  0  0  0  0  0  0  0  0  0  0  0
  1  2  1  0  0  0  0
  1  3  1  0  0  0  0
  1  4  1  0  0  0  0
  1  5  1  0  0  0  0
  5  6  1  0  0  0  0
  5  7  1  0  0  0  0
  7  8  1  0  0  0  0
  7  9  1  0  0  0  0
  7 10  1  0  0  0  0
  5 11  1  0  0  0  0
 11 12  1  0  0  0  0
 11 13  1  0  0  0  0
 11 14  1  0  0  0  0
 14 15  1  0  0  0  0
 14 16  1  0  0  0  0
 14 17  1  0  0  0  0
 17 18  1  0  0  0  0
 17 19  1  0  0  0  0
 17 20  1  0  0  0  0
M  END
> <VConfSearch Rank>
545

> <Conf_Id>
63

> <Delta U+W>
0.420

> <U+W>
-35.856

> <U>
22.625

> <W>
-58.481

> <W(PB)>
-60.400

> <W(SA)>
1.919

> <Valence>
2.404

> <Coulomb>
19.464

> <VdW>
0.757

> <VdW6>
-5.074

> <VdW12>
5.830

> <Bond>
0.172

> <Angle>
1.207

> <Pdih>
1.025

> <Idih>
0.000

> <Tether>
0.000

$$$$
VeraChem MOL file


 20 19  0  0  0  0  0  0  0  0999 V2000     
   20.6457   20.2699   22.0191 N   0  3  0  0  0  0  0  0  0  0  0  0
   21.3930   19.9421   22.6363 H   0  0  0  0  0  0  0  0  0  0  0  0
   20.3408   21.1838   22.3631 H   0  0  0  0  0  0  0  0  0  0  0  0
   21.0554   20.4129   21.0922 H   0  0  0  0  0  0  0  0  0  0  0  0
   19.5050   19.2896   21.9732 C   0  0  2  0  0  0  0  0  0  0  0  0
   19.9142   18.3481   21.5948 H   0  0  0  0  0  0  0  0  0  0  0  0
   18.4186   19.7661   20.9954 C   0  0  0  0  0  0  0  0  0  0  0  0
   18.8371   19.9157   19.9926 H   0  0  0  0  0  0  0  0  0  0  0  0
   17.9746   20.7136   21.3252 H   0  0  0  0  0  0  0  0  0  0  0  0
   17.6155   19.0231   20.9129 H   0  0  0  0  0  0  0  0  0  0  0  0
   18.8951   19.0267   23.3689 C   0  0  0  0  0  0  0  0  0  0  0  0
   18.4638   19.9580   23.7592 H   0  0  0  0  0  0  0  0  0  0  0  0
   18.0596   18.3214   23.2664 H   0  0  0  0  0  0  0  0  0  0  0  0
   19.8994   18.4601   24.4044 C   0  0  0  0  0  0  0  0  0  0  0  0
   19.3754   18.3122   25.3591 H   0  0  0  0  0  0  0  0  0  0  0  0
   20.6918   19.1936   24.6059 H   0  0  0  0  0  0  0  0  0  0  0  0
   20.5295   17.1185   23.9661 C   0  0  0  0  0  0  0  0  0  0  0  0
   19.7555   16.3681   23.7588 H   0  0  0  0  0  0  0  0  0  0  0  0
   21.1770   16.7208   24.7583 H   0  0  0  0  0  0  0  0  0  0  0  0
   21.1441   17.2350   23.0646 H   0  0  0  0  0  0  0  0  0  0  0  0
  1  2  1  0  0  0  0
  1  3  1  0  0  0  0
  1  4  1  0  0  0  0
  1  5  1  0  0  0  0
  5  6  1  0  0  0  0
  5  7  1  0  0  0  0
  7  8  1  0  0  0  0
  7  9  1  0  0  0  0
  7 10  1  0  0  0  0
  5 11  1  0  0  0  0
 11 12  1  0  0  0  0
 11 13  1  0  0  0  0
 11 14  1  0  0  0  0
 14 15  1  0  0  0  0
 14 16  1  0  0  0  0
 14 17  1  0  0  0  0
 17 18  1  0  0  0  0
 17 19  1  0  0  0  0
 17 20  1  0  0  0  0
M  END
> <VConfSearch Rank>
546

> <Conf_Id>
50

> <Delta U+W>
0.466

> <U+W>
-35.811

> <U>
22.369

> <W>
-58.180

> <W(PB)>
-60.103

> <W(SA)>
1.923

> <Valence>
2.168

> <Coulomb>
19.636

> <VdW>
0.566

> <VdW6>
-5.263

> <VdW12>
5.829

> <Bond>
0.162

> <Angle>
1.066

> <Pdih>
0.939

> <Idih>
0.000

> <Tether>
0.000

$$$$
VeraChem MOL file


 20 19  0  0  0  0  0  0  0  0999 V2000     
   18.4177   19.5941   20.9688 N   0  3  0  0  0  0  0  0  0  0  0  0
   17.5774   19.9981   21.3916 H   0  0  0  0  0  0  0  0  0  0  0  0
   18.1327   18.7514   20.4634 H   0  0  0  0  0  0  0  0  0  0  0  0
   18.7587   20.2645   20.2744 H   0  0  0  0  0  0  0  0  0  0  0  0
   19.4680   19.2901   22.0028 C   0  0  2  0  0  0  0  0  0  0  0  0
   19.7033   20.2427   22.4873 H   0  0  0  0  0  0  0  0  0  0  0  0
   20.7407   18.7559   21.3196 C   0  0  0  0  0  0  0  0  0  0  0  0
   20.5376   17.8225   20.7801 H   0  0  0  0  0  0  0  0  0  0  0  0
   21.5354   18.5576   22.0469 H   0  0  0  0  0  0  0  0  0  0  0  0
   21.1277   19.4864   20.5987 H   0  0  0  0  0  0  0  0  0  0  0  0
   18.9469   18.3141   23.0864 C   0  0  0  0  0  0  0  0  0  0  0  0
   17.8498   18.2885   23.0495 H   0  0  0  0  0  0  0  0  0  0  0  0
   19.2738   17.2886   22.8683 H   0  0  0  0  0  0  0  0  0  0  0  0
   19.3505   18.7063   24.5304 C   0  0  0  0  0  0  0  0  0  0  0  0
   18.8737   18.0058   25.2304 H   0  0  0  0  0  0  0  0  0  0  0  0
   18.9440   19.6993   24.7686 H   0  0  0  0  0  0  0  0  0  0  0  0
   20.8743   18.7021   24.7842 C   0  0  0  0  0  0  0  0  0  0  0  0
   21.3183   17.7350   24.5148 H   0  0  0  0  0  0  0  0  0  0  0  0
   21.0865   18.8835   25.8458 H   0  0  0  0  0  0  0  0  0  0  0  0
   21.3785   19.4896   24.2104 H   0  0  0  0  0  0  0  0  0  0  0  0
  1  2  1  0  0  0  0
  1  3  1  0  0  0  0
  1  4  1  0  0  0  0
  1  5  1  0  0  0  0
  5  6  1  0  0  0  0
  5  7  1  0  0  0  0
  7  8  1  0  0  0  0
  7  9  1  0  0  0  0
  7 10  1  0  0  0  0
  5 11  1  0  0  0  0
 11 12  1  0  0  0  0
 11 13  1  0  0  0  0
 11 14  1  0  0  0  0
 14 15  1  0  0  0  0
 14 16  1  0  0  0  0
 14 17  1  0  0  0  0
 17 18  1  0  0  0  0
 17 19  1  0  0  0  0
 17 20  1  0  0  0  0
M  END
> <VConfSearch Rank>
547

> <Conf_Id>
3

> <Delta U+W>
3.093

> <U+W>
-33.184

> <U>
25.256

> <W>
-58.439

> <W(PB)>
-60.337

> <W(SA)>
1.898

> <Valence>
4.963

> <Coulomb>
19.511

> <VdW>
0.782

> <VdW6>
-5.429

> <VdW12>
6.211

> <Bond>
0.174

> <Angle>
1.377

> <Pdih>
3.412

> <Idih>
0.000

> <Tether>
0.000

$$$$
VeraChem MOL file


 20 19  0  0  0  0  0  0  0  0999 V2000     
   19.9297   21.0037   21.8293 N   0  3  0  0  0  0  0  0  0  0  0  0
   19.1866   21.7075   21.8209 H   0  0  0  0  0  0  0  0  0  0  0  0
   20.1600   20.7956   20.8539 H   0  0  0  0  0  0  0  0  0  0  0  0
   20.7539   21.4370   22.2530 H   0  0  0  0  0  0  0  0  0  0  0  0
   19.5095   19.7678   22.5766 C   0  0  2  0  0  0  0  0  0  0  0  0
   18.6276   19.3807   22.0575 H   0  0  0  0  0  0  0  0  0  0  0  0
   19.1069   20.1251   24.0190 C   0  0  0  0  0  0  0  0  0  0  0  0
   18.6670   19.2633   24.5341 H   0  0  0  0  0  0  0  0  0  0  0  0
   18.3556   20.9242   24.0241 H   0  0  0  0  0  0  0  0  0  0  0  0
   19.9723   20.4679   24.5995 H   0  0  0  0  0  0  0  0  0  0  0  0
   20.6136   18.6845   22.5330 C   0  0  0  0  0  0  0  0  0  0  0  0
   20.9143   18.5313   21.4882 H   0  0  0  0  0  0  0  0  0  0  0  0
   21.5060   19.0539   23.0554 H   0  0  0  0  0  0  0  0  0  0  0  0
   20.2092   17.3123   23.1301 C   0  0  0  0  0  0  0  0  0  0  0  0
   20.0297   17.4038   24.2097 H   0  0  0  0  0  0  0  0  0  0  0  0
   21.0558   16.6194   23.0246 H   0  0  0  0  0  0  0  0  0  0  0  0
   18.9689   16.6951   22.4446 C   0  0  0  0  0  0  0  0  0  0  0  0
   19.1240   16.5962   21.3623 H   0  0  0  0  0  0  0  0  0  0  0  0
   18.0719   17.3054   22.6087 H   0  0  0  0  0  0  0  0  0  0  0  0
   18.7656   15.6940   22.8466 H   0  0  0  0  0  0  0  0  0  0  0  0
  1  2  1  0  0  0  0
  1  3  1  0  0  0  0
  1  4  1  0  0  0  0
  1  5  1  0  0  0  0
  5  6  1  0  0  0  0
  5  7  1  0  0  0  0
  7  8  1  0  0  0  0
  7  9  1  0  0  0  0
  7 10  1  0  0  0  0
  5 11  1  0  0  0  0
 11 12  1  0  0  0  0
 11 13  1  0  0  0  0
 11 14  1  0  0  0  0
 14 15  1  0  0  0  0
 14 16  1  0  0  0  0
 14 17  1  0  0  0  0
 17 18  1  0  0  0  0
 17 19  1  0  0  0  0
 17 20  1  0  0  0  0
M  END
> <VConfSearch Rank>
548

> <Conf_Id>
64

> <Delta U+W>
0.544

> <U+W>
-35.732

> <U>
22.800

> <W>
-58.532

> <W(PB)>
-60.437

> <W(SA)>
1.905

> <Valence>
2.662

> <Coulomb>
19.485

> <VdW>
0.653

> <VdW6>
-5.460

> <VdW12>
6.113

> <Bond>
0.174

> <Angle>
1.378

> <Pdih>
1.109

> <Idih>
0.000

> <Tether>
0.000

$$$$
VeraChem MOL file


 20 19  0  0  0  0  0  0  0  0999 V2000     
   18.1449   19.4131   21.4620 N   0  3  0  0  0  0  0  0  0  0  0  0
   17.8940   19.8765   22.3381 H   0  0  0  0  0  0  0  0  0  0  0  0
   17.3192   18.9011   21.1397 H   0  0  0  0  0  0  0  0  0  0  0  0
   18.3373   20.1440   20.7718 H   0  0  0  0  0  0  0  0  0  0  0  0
   19.3251   18.4967   21.6416 C   0  0  2  0  0  0  0  0  0  0  0  0
   19.5054   18.0453   20.6610 H   0  0  0  0  0  0  0  0  0  0  0  0
   18.9904   17.3567   22.6173 C   0  0  0  0  0  0  0  0  0  0  0  0
   18.6664   17.7433   23.5906 H   0  0  0  0  0  0  0  0  0  0  0  0
   19.8599   16.7059   22.7713 H   0  0  0  0  0  0  0  0  0  0  0  0
   18.1781   16.7373   22.2180 H   0  0  0  0  0  0  0  0  0  0  0  0
   20.6140   19.2647   22.0289 C   0  0  0  0  0  0  0  0  0  0  0  0
   21.4735   18.5835   21.9763 H   0  0  0  0  0  0  0  0  0  0  0  0
   20.7944   20.0165   21.2494 H   0  0  0  0  0  0  0  0  0  0  0  0
   20.5967   19.9855   23.4056 C   0  0  0  0  0  0  0  0  0  0  0  0
   19.5814   20.3151   23.6626 H   0  0  0  0  0  0  0  0  0  0  0  0
   21.1968   20.9026   23.3235 H   0  0  0  0  0  0  0  0  0  0  0  0
   21.1879   19.1364   24.5555 C   0  0  0  0  0  0  0  0  0  0  0  0
   20.6138   18.2199   24.7303 H   0  0  0  0  0  0  0  0  0  0  0  0
   21.1901   19.7085   25.4923 H   0  0  0  0  0  0  0  0  0  0  0  0
   22.2253   18.8501   24.3393 H   0  0  0  0  0  0  0  0  0  0  0  0
  1  2  1  0  0  0  0
  1  3  1  0  0  0  0
  1  4  1  0  0  0  0
  1  5  1  0  0  0  0
  5  6  1  0  0  0  0
  5  7  1  0  0  0  0
  7  8  1  0  0  0  0
  7  9  1  0  0  0  0
  7 10  1  0  0  0  0
  5 11  1  0  0  0  0
 11 12  1  0  0  0  0
 11 13  1  0  0  0  0
 11 14  1  0  0  0  0
 14 15  1  0  0  0  0
 14 16  1  0  0  0  0
 14 17  1  0  0  0  0
 17 18  1  0  0  0  0
 17 19  1  0  0  0  0
 17 20  1  0  0  0  0
M  END
> <VConfSearch Rank>
549

> <Conf_Id>
35

> <Delta U+W>
3.004

> <U+W>
-33.272

> <U>
25.367

> <W>
-58.639

> <W(PB)>
-60.512

> <W(SA)>
1.873

> <Valence>
4.943

> <Coulomb>
19.661

> <VdW>
0.764

> <VdW6>
-5.871

> <VdW12>
6.636

> <Bond>
0.230

> <Angle>
1.857

> <Pdih>
2.855

> <Idih>
0.000

> <Tether>
0.000

$$$$
VeraChem MOL file


 20 19  0  0  0  0  0  0  0  0999 V2000     
   20.0412   19.7926   21.1346 N   0  3  0  0  0  0  0  0  0  0  0  0
   20.3562   19.5622   20.1884 H   0  0  0  0  0  0  0  0  0  0  0  0
   20.0913   20.8101   21.2331 H   0  0  0  0  0  0  0  0  0  0  0  0
   19.0575   19.5262   21.2073 H   0  0  0  0  0  0  0  0  0  0  0  0
   20.8722   19.0968   22.1776 C   0  0  2  0  0  0  0  0  0  0  0  0
   21.8913   19.4677   22.0302 H   0  0  0  0  0  0  0  0  0  0  0  0
   20.9010   17.5751   21.9493 C   0  0  0  0  0  0  0  0  0  0  0  0
   19.8950   17.1406   21.9885 H   0  0  0  0  0  0  0  0  0  0  0  0
   21.5199   17.0798   22.7077 H   0  0  0  0  0  0  0  0  0  0  0  0
   21.3290   17.3420   20.9668 H   0  0  0  0  0  0  0  0  0  0  0  0
   20.4649   19.4694   23.6263 C   0  0  0  0  0  0  0  0  0  0  0  0
   21.2928   19.1830   24.2883 H   0  0  0  0  0  0  0  0  0  0  0  0
   20.3941   20.5620   23.7057 H   0  0  0  0  0  0  0  0  0  0  0  0
   19.1646   18.8293   24.1884 C   0  0  0  0  0  0  0  0  0  0  0  0
   19.0476   19.1584   25.2305 H   0  0  0  0  0  0  0  0  0  0  0  0
   19.2670   17.7366   24.2347 H   0  0  0  0  0  0  0  0  0  0  0  0
   17.8776   19.1985   23.4163 C   0  0  0  0  0  0  0  0  0  0  0  0
   17.7926   20.2845   23.2797 H   0  0  0  0  0  0  0  0  0  0  0  0
   16.9921   18.8632   23.9718 H   0  0  0  0  0  0  0  0  0  0  0  0
   17.8429   18.7136   22.4340 H   0  0  0  0  0  0  0  0  0  0  0  0
  1  2  1  0  0  0  0
  1  3  1  0  0  0  0
  1  4  1  0  0  0  0
  1  5  1  0  0  0  0
  5  6  1  0  0  0  0
  5  7  1  0  0  0  0
  7  8  1  0  0  0  0
  7  9  1  0  0  0  0
  7 10  1  0  0  0  0
  5 11  1  0  0  0  0
 11 12  1  0  0  0  0
 11 13  1  0  0  0  0
 11 14  1  0  0  0  0
 14 15  1  0  0  0  0
 14 16  1  0  0  0  0
 14 17  1  0  0  0  0
 17 18  1  0  0  0  0
 17 19  1  0  0  0  0
 17 20  1  0  0  0  0
M  END
> <VConfSearch Rank>
550

> <Conf_Id>
55

> <Delta U+W>
2.767

> <U+W>
-33.509

> <U>
24.552

> <W>
-58.061

> <W(PB)>
-59.930

> <W(SA)>
1.869

> <Valence>
3.726

> <Coulomb>
20.219

> <VdW>
0.606

> <VdW6>
-6.395

> <VdW12>
7.001

> <Bond>
0.241

> <Angle>
2.098

> <Pdih>
1.387

> <Idih>
0.000

> <Tether>
0.000

$$$$
VeraChem MOL file


 20 19  0  0  0  0  0  0  0  0999 V2000     
   19.6580   18.9973   24.6873 N   0  3  0  0  0  0  0  0  0  0  0  0
   18.6705   18.7474   24.7824 H   0  0  0  0  0  0  0  0  0  0  0  0
   19.9260   19.5088   25.5324 H   0  0  0  0  0  0  0  0  0  0  0  0
   20.1958   18.1271   24.6756 H   0  0  0  0  0  0  0  0  0  0  0  0
   19.9030   19.8149   23.4477 C   0  0  2  0  0  0  0  0  0  0  0  0
   20.9751   20.0334   23.4215 H   0  0  0  0  0  0  0  0  0  0  0  0
   19.1419   21.1488   23.5213 C   0  0  0  0  0  0  0  0  0  0  0  0
   19.4282   21.7104   24.4190 H   0  0  0  0  0  0  0  0  0  0  0  0
   18.0572   20.9863   23.5514 H   0  0  0  0  0  0  0  0  0  0  0  0
   19.3692   21.7762   22.6506 H   0  0  0  0  0  0  0  0  0  0  0  0
   19.5332   19.0564   22.1538 C   0  0  0  0  0  0  0  0  0  0  0  0
   18.4646   18.8038   22.1658 H   0  0  0  0  0  0  0  0  0  0  0  0
   19.6871   19.7242   21.2956 H   0  0  0  0  0  0  0  0  0  0  0  0
   20.3719   17.7727   21.9435 C   0  0  0  0  0  0  0  0  0  0  0  0
   20.1918   17.0630   22.7622 H   0  0  0  0  0  0  0  0  0  0  0  0
   21.4422   18.0216   21.9676 H   0  0  0  0  0  0  0  0  0  0  0  0
   20.0369   17.0866   20.6017 C   0  0  0  0  0  0  0  0  0  0  0  0
   18.9786   16.7978   20.5592 H   0  0  0  0  0  0  0  0  0  0  0  0
   20.6391   16.1783   20.4698 H   0  0  0  0  0  0  0  0  0  0  0  0
   20.2436   17.7529   19.7541 H   0  0  0  0  0  0  0  0  0  0  0  0
  1  2  1  0  0  0  0
  1  3  1  0  0  0  0
  1  4  1  0  0  0  0
  1  5  1  0  0  0  0
  5  6  1  0  0  0  0
  5  7  1  0  0  0  0
  7  8  1  0  0  0  0
  7  9  1  0  0  0  0
  7 10  1  0  0  0  0
  5 11  1  0  0  0  0
 11 12  1  0  0  0  0
 11 13  1  0  0  0  0
 11 14  1  0  0  0  0
 14 15  1  0  0  0  0
 14 16  1  0  0  0  0
 14 17  1  0  0  0  0
 17 18  1  0  0  0  0
 17 19  1  0  0  0  0
 17 20  1  0  0  0  0
M  END
> <VConfSearch Rank>
551

> <Conf_Id>
74

> <Delta U+W>
0.000

> <U+W>
-36.276

> <U>
22.080

> <W>
-58.356

> <W(PB)>
-60.289

> <W(SA)>
1.932

> <Valence>
1.885

> <Coulomb>
19.559

> <VdW>
0.637

> <VdW6>
-4.482

> <VdW12>
5.119

> <Bond>
0.136

> <Angle>
0.867

> <Pdih>
0.882

> <Idih>
0.000

> <Tether>
0.000

$$$$
VeraChem MOL file


 20 19  0  0  0  0  0  0  0  0999 V2000     
   19.6678   18.9017   20.3303 N   0  3  0  0  0  0  0  0  0  0  0  0
   18.7484   18.4875   20.1546 H   0  0  0  0  0  0  0  0  0  0  0  0
   20.3675   18.1714   20.1753 H   0  0  0  0  0  0  0  0  0  0  0  0
   19.8162   19.6212   19.6176 H   0  0  0  0  0  0  0  0  0  0  0  0
   19.7638   19.4733   21.7183 C   0  0  2  0  0  0  0  0  0  0  0  0
   18.9867   20.2407   21.7898 H   0  0  0  0  0  0  0  0  0  0  0  0
   21.1328   20.1470   21.9248 C   0  0  0  0  0  0  0  0  0  0  0  0
   21.3323   20.8699   21.1243 H   0  0  0  0  0  0  0  0  0  0  0  0
   21.9434   19.4077   21.9248 H   0  0  0  0  0  0  0  0  0  0  0  0
   21.1685   20.6965   22.8724 H   0  0  0  0  0  0  0  0  0  0  0  0
   19.4776   18.3943   22.7885 C   0  0  0  0  0  0  0  0  0  0  0  0
   18.5440   17.8808   22.5232 H   0  0  0  0  0  0  0  0  0  0  0  0
   20.2681   17.6324   22.7661 H   0  0  0  0  0  0  0  0  0  0  0  0
   19.3373   18.9584   24.2235 C   0  0  0  0  0  0  0  0  0  0  0  0
   18.5905   19.7649   24.2334 H   0  0  0  0  0  0  0  0  0  0  0  0
   20.2870   19.3994   24.5544 H   0  0  0  0  0  0  0  0  0  0  0  0
   18.9201   17.8628   25.2281 C   0  0  0  0  0  0  0  0  0  0  0  0
   17.9508   17.4248   24.9564 H   0  0  0  0  0  0  0  0  0  0  0  0
   18.8290   18.2788   26.2399 H   0  0  0  0  0  0  0  0  0  0  0  0
   19.6627   17.0549   25.2622 H   0  0  0  0  0  0  0  0  0  0  0  0
  1  2  1  0  0  0  0
  1  3  1  0  0  0  0
  1  4  1  0  0  0  0
  1  5  1  0  0  0  0
  5  6  1  0  0  0  0
  5  7  1  0  0  0  0
  7  8  1  0  0  0  0
  7  9  1  0  0  0  0
  7 10  1  0  0  0  0
  5 11  1  0  0  0  0
 11 12  1  0  0  0  0
 11 13  1  0  0  0  0
 11 14  1  0  0  0  0
 14 15  1  0  0  0  0
 14 16  1  0  0  0  0
 14 17  1  0  0  0  0
 17 18  1  0  0  0  0
 17 19  1  0  0  0  0
 17 20  1  0  0  0  0
M  END
> <VConfSearch Rank>
552

> <Conf_Id>
80

> <Delta U+W>
0.460

> <U+W>
-35.817

> <U>
22.495

> <W>
-58.311

> <W(PB)>
-60.259

> <W(SA)>
1.948

> <Valence>
2.419

> <Coulomb>
19.304

> <VdW>
0.772

> <VdW6>
-4.635

> <VdW12>
5.407

> <Bond>
0.149

> <Angle>
1.142

> <Pdih>
1.129

> <Idih>
0.000

> <Tether>
0.000

$$$$
VeraChem MOL file


 20 19  0  0  0  0  0  0  0  0999 V2000     
   20.8616   20.5624   21.4135 N   0  3  0  0  0  0  0  0  0  0  0  0
   21.7535   20.2175   21.0484 H   0  0  0  0  0  0  0  0  0  0  0  0
   21.0709   21.1724   22.2077 H   0  0  0  0  0  0  0  0  0  0  0  0
   20.4419   21.1455   20.6845 H   0  0  0  0  0  0  0  0  0  0  0  0
   19.9491   19.4340   21.8094 C   0  0  2  0  0  0  0  0  0  0  0  0
   19.7789   18.8453   20.9026 H   0  0  0  0  0  0  0  0  0  0  0  0
   18.5935   19.9865   22.2821 C   0  0  0  0  0  0  0  0  0  0  0  0
   18.1897   20.6990   21.5524 H   0  0  0  0  0  0  0  0  0  0  0  0
   18.6877   20.5020   23.2458 H   0  0  0  0  0  0  0  0  0  0  0  0
   17.8567   19.1820   22.3867 H   0  0  0  0  0  0  0  0  0  0  0  0
   20.6233   18.5160   22.8582 C   0  0  0  0  0  0  0  0  0  0  0  0
   21.5930   18.2042   22.4480 H   0  0  0  0  0  0  0  0  0  0  0  0
   20.8537   19.0853   23.7685 H   0  0  0  0  0  0  0  0  0  0  0  0
   19.8271   17.2328   23.2147 C   0  0  0  0  0  0  0  0  0  0  0  0
   20.5394   16.4099   23.3680 H   0  0  0  0  0  0  0  0  0  0  0  0
   19.1938   16.9288   22.3695 H   0  0  0  0  0  0  0  0  0  0  0  0
   18.9788   17.3728   24.5007 C   0  0  0  0  0  0  0  0  0  0  0  0
   19.6140   17.6024   25.3661 H   0  0  0  0  0  0  0  0  0  0  0  0
   18.4505   16.4351   24.7162 H   0  0  0  0  0  0  0  0  0  0  0  0
   18.2267   18.1651   24.4157 H   0  0  0  0  0  0  0  0  0  0  0  0
  1  2  1  0  0  0  0
  1  3  1  0  0  0  0
  1  4  1  0  0  0  0
  1  5  1  0  0  0  0
  5  6  1  0  0  0  0
  5  7  1  0  0  0  0
  7  8  1  0  0  0  0
  7  9  1  0  0  0  0
  7 10  1  0  0  0  0
  5 11  1  0  0  0  0
 11 12  1  0  0  0  0
 11 13  1  0  0  0  0
 11 14  1  0  0  0  0
 14 15  1  0  0  0  0
 14 16  1  0  0  0  0
 14 17  1  0  0  0  0
 17 18  1  0  0  0  0
 17 19  1  0  0  0  0
 17 20  1  0  0  0  0
M  END
> <VConfSearch Rank>
553

> <Conf_Id>
52

> <Delta U+W>
2.995

> <U+W>
-33.282

> <U>
25.224

> <W>
-58.506

> <W(PB)>
-60.411

> <W(SA)>
1.905

> <Valence>
4.945

> <Coulomb>
19.467

> <VdW>
0.813

> <VdW6>
-5.458

> <VdW12>
6.270

> <Bond>
0.200

> <Angle>
1.675

> <Pdih>
3.070

> <Idih>
0.000

> <Tether>
0.000

$$$$
VeraChem MOL file


 20 19  0  0  0  0  0  0  0  0999 V2000     
   20.6152   17.9497   23.6127 N   0  3  0  0  0  0  0  0  0  0  0  0
   20.6014   17.0895   23.0593 H   0  0  0  0  0  0  0  0  0  0  0  0
   20.8319   17.6888   24.5785 H   0  0  0  0  0  0  0  0  0  0  0  0
   21.3873   18.5235   23.2670 H   0  0  0  0  0  0  0  0  0  0  0  0
   19.3050   18.6831   23.5192 C   0  0  2  0  0  0  0  0  0  0  0  0
   19.3790   19.5594   24.1707 H   0  0  0  0  0  0  0  0  0  0  0  0
   18.1683   17.7891   24.0431 C   0  0  0  0  0  0  0  0  0  0  0  0
   18.0404   16.8996   23.4135 H   0  0  0  0  0  0  0  0  0  0  0  0
   17.2172   18.3355   24.0603 H   0  0  0  0  0  0  0  0  0  0  0  0
   18.3764   17.4560   25.0674 H   0  0  0  0  0  0  0  0  0  0  0  0
   18.9910   19.1695   22.0842 C   0  0  0  0  0  0  0  0  0  0  0  0
   19.1606   18.3552   21.3674 H   0  0  0  0  0  0  0  0  0  0  0  0
   17.9204   19.4059   22.0213 H   0  0  0  0  0  0  0  0  0  0  0  0
   19.7660   20.4391   21.6438 C   0  0  0  0  0  0  0  0  0  0  0  0
   19.5535   21.2627   22.3399 H   0  0  0  0  0  0  0  0  0  0  0  0
   19.3727   20.7588   20.6685 H   0  0  0  0  0  0  0  0  0  0  0  0
   21.2952   20.2545   21.5147 C   0  0  0  0  0  0  0  0  0  0  0  0
   21.7404   21.1227   21.0114 H   0  0  0  0  0  0  0  0  0  0  0  0
   21.5416   19.3644   20.9211 H   0  0  0  0  0  0  0  0  0  0  0  0
   21.7769   20.1733   22.4959 H   0  0  0  0  0  0  0  0  0  0  0  0
  1  2  1  0  0  0  0
  1  3  1  0  0  0  0
  1  4  1  0  0  0  0
  1  5  1  0  0  0  0
  5  6  1  0  0  0  0
  5  7  1  0  0  0  0
  7  8  1  0  0  0  0
  7  9  1  0  0  0  0
  7 10  1  0  0  0  0
  5 11  1  0  0  0  0
 11 12  1  0  0  0  0
 11 13  1  0  0  0  0
 11 14  1  0  0  0  0
 14 15  1  0  0  0  0
 14 16  1  0  0  0  0
 14 17  1  0  0  0  0
 17 18  1  0  0  0  0
 17 19  1  0  0  0  0
 17 20  1  0  0  0  0
M  END
> <VConfSearch Rank>
554

> <Conf_Id>
54

> <Delta U+W>
2.752

> <U+W>
-33.525

> <U>
24.337

> <W>
-57.862

> <W(PB)>
-59.764

> <W(SA)>
1.901

> <Valence>
3.593

> <Coulomb>
20.067

> <VdW>
0.677

> <VdW6>
-5.466

> <VdW12>
6.144

> <Bond>
0.191

> <Angle>
1.557

> <Pdih>
1.845

> <Idih>
0.000

> <Tether>
0.000

$$$$
VeraChem MOL file


 20 19  0  0  0  0  0  0  0  0999 V2000     
   21.6184   18.2798   23.2851 N   0  3  0  0  0  0  0  0  0  0  0  0
   22.3281   18.3361   24.0205 H   0  0  0  0  0  0  0  0  0  0  0  0
   22.1077   18.1013   22.4039 H   0  0  0  0  0  0  0  0  0  0  0  0
   21.0364   17.4631   23.4843 H   0  0  0  0  0  0  0  0  0  0  0  0
   20.7958   19.5378   23.2161 C   0  0  2  0  0  0  0  0  0  0  0  0
   21.5018   20.3505   23.0181 H   0  0  0  0  0  0  0  0  0  0  0  0
   20.1189   19.8306   24.5669 C   0  0  0  0  0  0  0  0  0  0  0  0
   19.5188   20.7473   24.5120 H   0  0  0  0  0  0  0  0  0  0  0  0
   20.8728   19.9739   25.3506 H   0  0  0  0  0  0  0  0  0  0  0  0
   19.4637   19.0089   24.8795 H   0  0  0  0  0  0  0  0  0  0  0  0
   19.7804   19.5189   22.0483 C   0  0  0  0  0  0  0  0  0  0  0  0
   19.2802   20.4952   21.9998 H   0  0  0  0  0  0  0  0  0  0  0  0
   20.3362   19.4185   21.1068 H   0  0  0  0  0  0  0  0  0  0  0  0
   18.7106   18.3994   22.1292 C   0  0  0  0  0  0  0  0  0  0  0  0
   18.1090   18.5136   23.0408 H   0  0  0  0  0  0  0  0  0  0  0  0
   19.1949   17.4154   22.1879 H   0  0  0  0  0  0  0  0  0  0  0  0
   17.7707   18.4248   20.9048 C   0  0  0  0  0  0  0  0  0  0  0  0
   17.0182   17.6288   20.9770 H   0  0  0  0  0  0  0  0  0  0  0  0
   18.3310   18.2740   19.9728 H   0  0  0  0  0  0  0  0  0  0  0  0
   17.2404   19.3834   20.8335 H   0  0  0  0  0  0  0  0  0  0  0  0
  1  2  1  0  0  0  0
  1  3  1  0  0  0  0
  1  4  1  0  0  0  0
  1  5  1  0  0  0  0
  5  6  1  0  0  0  0
  5  7  1  0  0  0  0
  7  8  1  0  0  0  0
  7  9  1  0  0  0  0
  7 10  1  0  0  0  0
  5 11  1  0  0  0  0
 11 12  1  0  0  0  0
 11 13  1  0  0  0  0
 11 14  1  0  0  0  0
 14 15  1  0  0  0  0
 14 16  1  0  0  0  0
 14 17  1  0  0  0  0
 17 18  1  0  0  0  0
 17 19  1  0  0  0  0
 17 20  1  0  0  0  0
M  END
> <VConfSearch Rank>
555

> <Conf_Id>
63

> <Delta U+W>
0.420

> <U+W>
-35.856

> <U>
22.625

> <W>
-58.481

> <W(PB)>
-60.400

> <W(SA)>
1.919

> <Valence>
2.404

> <Coulomb>
19.464

> <VdW>
0.757

> <VdW6>
-5.074

> <VdW12>
5.830

> <Bond>
0.172

> <Angle>
1.207

> <Pdih>
1.025

> <Idih>
0.000

> <Tether>
0.000

$$$$
VeraChem MOL file


 20 19  0  0  0  0  0  0  0  0999 V2000     
   18.6701   17.9384   23.7750 N   0  3  0  0  0  0  0  0  0  0  0  0
   19.3074   17.1919   23.4862 H   0  0  0  0  0  0  0  0  0  0  0  0
   17.7694   17.7672   23.3211 H   0  0  0  0  0  0  0  0  0  0  0  0
   18.5269   17.8449   24.7841 H   0  0  0  0  0  0  0  0  0  0  0  0
   19.2181   19.2937   23.4184 C   0  0  2  0  0  0  0  0  0  0  0  0
   20.1726   19.3953   23.9436 H   0  0  0  0  0  0  0  0  0  0  0  0
   18.2795   20.4063   23.9130 C   0  0  0  0  0  0  0  0  0  0  0  0
   18.1216   20.3285   24.9957 H   0  0  0  0  0  0  0  0  0  0  0  0
   17.3010   20.3494   23.4200 H   0  0  0  0  0  0  0  0  0  0  0  0
   18.7073   21.3959   23.7098 H   0  0  0  0  0  0  0  0  0  0  0  0
   19.4804   19.4451   21.9028 C   0  0  0  0  0  0  0  0  0  0  0  0
   18.5303   19.3624   21.3586 H   0  0  0  0  0  0  0  0  0  0  0  0
   19.8596   20.4566   21.7052 H   0  0  0  0  0  0  0  0  0  0  0  0
   20.4859   18.4163   21.3263 C   0  0  0  0  0  0  0  0  0  0  0  0
   20.6016   18.6018   20.2492 H   0  0  0  0  0  0  0  0  0  0  0  0
   20.0817   17.3988   21.4152 H   0  0  0  0  0  0  0  0  0  0  0  0
   21.8762   18.4858   21.9983 C   0  0  0  0  0  0  0  0  0  0  0  0
   22.3013   19.4951   21.9220 H   0  0  0  0  0  0  0  0  0  0  0  0
   22.5736   17.7916   21.5117 H   0  0  0  0  0  0  0  0  0  0  0  0
   21.8268   18.2141   23.0603 H   0  0  0  0  0  0  0  0  0  0  0  0
  1  2  1  0  0  0  0
  1  3  1  0  0  0  0
  1  4  1  0  0  0  0
  1  5  1  0  0  0  0
  5  6  1  0  0  0  0
  5  7  1  0  0  0  0
  7  8  1  0  0  0  0
  7  9  1  0  0  0  0
  7 10  1  0  0  0  0
  5 11  1  0  0  0  0
 11 12  1  0  0  0  0
 11 13  1  0  0  0  0
 11 14  1  0  0  0  0
 14 15  1  0  0  0  0
 14 16  1  0  0  0  0
 14 17  1  0  0  0  0
 17 18  1  0  0  0  0
 17 19  1  0  0  0  0
 17 20  1  0  0  0  0
M  END
> <VConfSearch Rank>
556

> <Conf_Id>
50

> <Delta U+W>
0.466

> <U+W>
-35.811

> <U>
22.369

> <W>
-58.180

> <W(PB)>
-60.103

> <W(SA)>
1.923

> <Valence>
2.168

> <Coulomb>
19.636

> <VdW>
0.566

> <VdW6>
-5.263

> <VdW12>
5.829

> <Bond>
0.162

> <Angle>
1.066

> <Pdih>
0.939

> <Idih>
0.000

> <Tether>
0.000

$$$$
VeraChem MOL file


 20 19  0  0  0  0  0  0  0  0999 V2000     
   18.1230   17.2372   22.4159 N   0  3  0  0  0  0  0  0  0  0  0  0
   18.2782   16.5703   23.1769 H   0  0  0  0  0  0  0  0  0  0  0  0
   18.3755   16.7697   21.5415 H   0  0  0  0  0  0  0  0  0  0  0  0
   17.1178   17.4267   22.3803 H   0  0  0  0  0  0  0  0  0  0  0  0
   18.9149   18.5012   22.6156 C   0  0  2  0  0  0  0  0  0  0  0  0
   18.5803   18.9231   23.5684 H   0  0  0  0  0  0  0  0  0  0  0  0
   18.5965   19.5054   21.4920 C   0  0  0  0  0  0  0  0  0  0  0  0
   18.8737   19.1012   20.5105 H   0  0  0  0  0  0  0  0  0  0  0  0
   19.1344   20.4494   21.6309 H   0  0  0  0  0  0  0  0  0  0  0  0
   17.5243   19.7361   21.4727 H   0  0  0  0  0  0  0  0  0  0  0  0
   20.4344   18.2212   22.7198 C   0  0  0  0  0  0  0  0  0  0  0  0
   20.5897   17.1549   22.9310 H   0  0  0  0  0  0  0  0  0  0  0  0
   20.9256   18.4057   21.7550 H   0  0  0  0  0  0  0  0  0  0  0  0
   21.1445   19.0214   23.8410 C   0  0  0  0  0  0  0  0  0  0  0  0
   22.1947   18.7009   23.8895 H   0  0  0  0  0  0  0  0  0  0  0  0
   20.7017   18.7635   24.8133 H   0  0  0  0  0  0  0  0  0  0  0  0
   21.1012   20.5536   23.6487 C   0  0  0  0  0  0  0  0  0  0  0  0
   21.4984   20.8412   22.6665 H   0  0  0  0  0  0  0  0  0  0  0  0
   21.7087   21.0533   24.4144 H   0  0  0  0  0  0  0  0  0  0  0  0
   20.0785   20.9402   23.7384 H   0  0  0  0  0  0  0  0  0  0  0  0
  1  2  1  0  0  0  0
  1  3  1  0  0  0  0
  1  4  1  0  0  0  0
  1  5  1  0  0  0  0
  5  6  1  0  0  0  0
  5  7  1  0  0  0  0
  7  8  1  0  0  0  0
  7  9  1  0  0  0  0
  7 10  1  0  0  0  0
  5 11  1  0  0  0  0
 11 12  1  0  0  0  0
 11 13  1  0  0  0  0
 11 14  1  0  0  0  0
 14 15  1  0  0  0  0
 14 16  1  0  0  0  0
 14 17  1  0  0  0  0
 17 18  1  0  0  0  0
 17 19  1  0  0  0  0
 17 20  1  0  0  0  0
M  END
> <VConfSearch Rank>
557

> <Conf_Id>
3

> <Delta U+W>
3.093

> <U+W>
-33.184

> <U>
25.256

> <W>
-58.439

> <W(PB)>
-60.337

> <W(SA)>
1.898

> <Valence>
4.963

> <Coulomb>
19.511

> <VdW>
0.782

> <VdW6>
-5.429

> <VdW12>
6.211

> <Bond>
0.174

> <Angle>
1.377

> <Pdih>
3.412

> <Idih>
0.000

> <Tether>
0.000

$$$$
VeraChem MOL file


 20 19  0  0  0  0  0  0  0  0999 V2000     
   21.0326   17.1449   22.3812 N   0  3  0  0  0  0  0  0  0  0  0  0
   22.0211   17.2357   22.1317 H   0  0  0  0  0  0  0  0  0  0  0  0
   20.5693   16.6583   21.6089 H   0  0  0  0  0  0  0  0  0  0  0  0
   20.9810   16.5361   23.2018 H   0  0  0  0  0  0  0  0  0  0  0  0
   20.4063   18.4862   22.6479 C   0  0  2  0  0  0  0  0  0  0  0  0
   20.5120   19.0629   21.7241 H   0  0  0  0  0  0  0  0  0  0  0  0
   21.1665   19.2189   23.7682 C   0  0  0  0  0  0  0  0  0  0  0  0
   20.8128   20.2504   23.8801 H   0  0  0  0  0  0  0  0  0  0  0  0
   22.2386   19.2666   23.5410 H   0  0  0  0  0  0  0  0  0  0  0  0
   21.0451   18.7073   24.7310 H   0  0  0  0  0  0  0  0  0  0  0  0
   18.8979   18.3470   22.9640 C   0  0  0  0  0  0  0  0  0  0  0  0
   18.4268   17.7492   22.1726 H   0  0  0  0  0  0  0  0  0  0  0  0
   18.7726   17.7749   23.8929 H   0  0  0  0  0  0  0  0  0  0  0  0
   18.1278   19.6867   23.0868 C   0  0  0  0  0  0  0  0  0  0  0  0
   18.4860   20.2546   23.9560 H   0  0  0  0  0  0  0  0  0  0  0  0
   17.0698   19.4672   23.2874 H   0  0  0  0  0  0  0  0  0  0  0  0
   18.2255   20.5604   21.8155 C   0  0  0  0  0  0  0  0  0  0  0  0
   17.8749   20.0121   20.9314 H   0  0  0  0  0  0  0  0  0  0  0  0
   19.2560   20.8886   21.6299 H   0  0  0  0  0  0  0  0  0  0  0  0
   17.6056   21.4605   21.9188 H   0  0  0  0  0  0  0  0  0  0  0  0
  1  2  1  0  0  0  0
  1  3  1  0  0  0  0
  1  4  1  0  0  0  0
  1  5  1  0  0  0  0
  5  6  1  0  0  0  0
  5  7  1  0  0  0  0
  7  8  1  0  0  0  0
  7  9  1  0  0  0  0
  7 10  1  0  0  0  0
  5 11  1  0  0  0  0
 11 12  1  0  0  0  0
 11 13  1  0  0  0  0
 11 14  1  0  0  0  0
 14 15  1  0  0  0  0
 14 16  1  0  0  0  0
 14 17  1  0  0  0  0
 17 18  1  0  0  0  0
 17 19  1  0  0  0  0
 17 20  1  0  0  0  0
M  END
> <VConfSearch Rank>
558

> <Conf_Id>
64

> <Delta U+W>
0.544

> <U+W>
-35.732

> <U>
22.800

> <W>
-58.532

> <W(PB)>
-60.437

> <W(SA)>
1.905

> <Valence>
2.662

> <Coulomb>
19.485

> <VdW>
0.653

> <VdW6>
-5.460

> <VdW12>
6.113

> <Bond>
0.174

> <Angle>
1.378

> <Pdih>
1.109

> <Idih>
0.000

> <Tether>
0.000

$$$$
VeraChem MOL file


 20 19  0  0  0  0  0  0  0  0999 V2000     
   19.0064   20.8588   22.3866 N   0  3  0  0  0  0  0  0  0  0  0  0
   18.8096   20.7107   23.3788 H   0  0  0  0  0  0  0  0  0  0  0  0
   18.1510   21.2198   21.9559 H   0  0  0  0  0  0  0  0  0  0  0  0
   19.7138   21.5956   22.3202 H   0  0  0  0  0  0  0  0  0  0  0  0
   19.4646   19.5896   21.7203 C   0  0  2  0  0  0  0  0  0  0  0  0
   19.6365   19.8479   20.6707 H   0  0  0  0  0  0  0  0  0  0  0  0
   18.3588   18.5221   21.7553 C   0  0  0  0  0  0  0  0  0  0  0  0
   18.0378   18.3099   22.7817 H   0  0  0  0  0  0  0  0  0  0  0  0
   18.7032   17.5872   21.2962 H   0  0  0  0  0  0  0  0  0  0  0  0
   17.4796   18.8633   21.1953 H   0  0  0  0  0  0  0  0  0  0  0  0
   20.8141   19.0805   22.2867 C   0  0  0  0  0  0  0  0  0  0  0  0
   21.1881   18.2627   21.6569 H   0  0  0  0  0  0  0  0  0  0  0  0
   21.5453   19.8912   22.1700 H   0  0  0  0  0  0  0  0  0  0  0  0
   20.8108   18.6388   23.7767 C   0  0  0  0  0  0  0  0  0  0  0  0
   20.0775   19.2161   24.3550 H   0  0  0  0  0  0  0  0  0  0  0  0
   21.7910   18.8803   24.2113 H   0  0  0  0  0  0  0  0  0  0  0  0
   20.5688   17.1235   23.9717 C   0  0  0  0  0  0  0  0  0  0  0  0
   19.5864   16.8105   23.6016 H   0  0  0  0  0  0  0  0  0  0  0  0
   20.6195   16.8613   25.0364 H   0  0  0  0  0  0  0  0  0  0  0  0
   21.3318   16.5331   23.4480 H   0  0  0  0  0  0  0  0  0  0  0  0
  1  2  1  0  0  0  0
  1  3  1  0  0  0  0
  1  4  1  0  0  0  0
  1  5  1  0  0  0  0
  5  6  1  0  0  0  0
  5  7  1  0  0  0  0
  7  8  1  0  0  0  0
  7  9  1  0  0  0  0
  7 10  1  0  0  0  0
  5 11  1  0  0  0  0
 11 12  1  0  0  0  0
 11 13  1  0  0  0  0
 11 14  1  0  0  0  0
 14 15  1  0  0  0  0
 14 16  1  0  0  0  0
 14 17  1  0  0  0  0
 17 18  1  0  0  0  0
 17 19  1  0  0  0  0
 17 20  1  0  0  0  0
M  END
> <VConfSearch Rank>
559

> <Conf_Id>
35

> <Delta U+W>
3.004

> <U+W>
-33.272

> <U>
25.367

> <W>
-58.639

> <W(PB)>
-60.512

> <W(SA)>
1.873

> <Valence>
4.943

> <Coulomb>
19.661

> <VdW>
0.764

> <VdW6>
-5.871

> <VdW12>
6.636

> <Bond>
0.230

> <Angle>
1.857

> <Pdih>
2.855

> <Idih>
0.000

> <Tether>
0.000

$$$$
VeraChem MOL file


 20 19  0  0  0  0  0  0  0  0999 V2000     
   20.8139   20.0749   23.6658 N   0  3  0  0  0  0  0  0  0  0  0  0
   20.7093   20.7034   24.4668 H   0  0  0  0  0  0  0  0  0  0  0  0
   21.6777   20.3374   23.1835 H   0  0  0  0  0  0  0  0  0  0  0  0
   20.9417   19.1285   24.0289 H   0  0  0  0  0  0  0  0  0  0  0  0
   19.6256   20.1496   22.7467 C   0  0  2  0  0  0  0  0  0  0  0  0
   19.5947   21.1864   22.3975 H   0  0  0  0  0  0  0  0  0  0  0  0
   18.3126   19.8819   23.5036 C   0  0  0  0  0  0  0  0  0  0  0  0
   18.3072   18.8877   23.9660 H   0  0  0  0  0  0  0  0  0  0  0  0
   17.4523   19.9516   22.8266 H   0  0  0  0  0  0  0  0  0  0  0  0
   18.1701   20.6228   24.2997 H   0  0  0  0  0  0  0  0  0  0  0  0
   19.7745   19.2570   21.4879 C   0  0  0  0  0  0  0  0  0  0  0  0
   19.0418   19.6028   20.7468 H   0  0  0  0  0  0  0  0  0  0  0  0
   20.7567   19.4433   21.0342 H   0  0  0  0  0  0  0  0  0  0  0  0
   19.5772   17.7261   21.6719 C   0  0  0  0  0  0  0  0  0  0  0  0
   19.6703   17.2511   20.6852 H   0  0  0  0  0  0  0  0  0  0  0  0
   18.5531   17.5114   22.0063 H   0  0  0  0  0  0  0  0  0  0  0  0
   20.5880   17.0556   22.6299 C   0  0  0  0  0  0  0  0  0  0  0  0
   21.6205   17.3234   22.3704 H   0  0  0  0  0  0  0  0  0  0  0  0
   20.5025   15.9629   22.5681 H   0  0  0  0  0  0  0  0  0  0  0  0
   20.4009   17.3337   23.6734 H   0  0  0  0  0  0  0  0  0  0  0  0
  1  2  1  0  0  0  0
  1  3  1  0  0  0  0
  1  4  1  0  0  0  0
  1  5  1  0  0  0  0
  5  6  1  0  0  0  0
  5  7  1  0  0  0  0
  7  8  1  0  0  0  0
  7  9  1  0  0  0  0
  7 10  1  0  0  0  0
  5 11  1  0  0  0  0
 11 12  1  0  0  0  0
 11 13  1  0  0  0  0
 11 14  1  0  0  0  0
 14 15  1  0  0  0  0
 14 16  1  0  0  0  0
 14 17  1  0  0  0  0
 17 18  1  0  0  0  0
 17 19  1  0  0  0  0
 17 20  1  0  0  0  0
M  END
> <VConfSearch Rank>
560

> <Conf_Id>
55

> <Delta U+W>
2.767

> <U+W>
-33.509

> <U>
24.552

> <W>
-58.061

> <W(PB)>
-59.930

> <W(SA)>
1.869

> <Valence>
3.726

> <Coulomb>
20.219

> <VdW>
0.606

> <VdW6>
-6.395

> <VdW12>
7.001

> <Bond>
0.241

> <Angle>
2.098

> <Pdih>
1.387

> <Idih>
0.000

> <Tether>
0.000

$$$$
VeraChem MOL file


 20 19  0  0  0  0  0  0  0  0999 V2000     
   18.6788   17.8220   21.5080 N   0  3  0  0  0  0  0  0  0  0  0  0
   17.9536   17.5562   22.1787 H   0  0  0  0  0  0  0  0  0  0  0  0
   18.7097   17.0953   20.7879 H   0  0  0  0  0  0  0  0  0  0  0  0
   18.3754   18.6869   21.0536 H   0  0  0  0  0  0  0  0  0  0  0  0
   20.0155   17.9900   22.1788 C   0  0  2  0  0  0  0  0  0  0  0  0
   20.7264   18.2759   21.3972 H   0  0  0  0  0  0  0  0  0  0  0  0
   20.4834   16.6595   22.7912 C   0  0  0  0  0  0  0  0  0  0  0  0
   20.5294   15.8746   22.0263 H   0  0  0  0  0  0  0  0  0  0  0  0
   19.8018   16.3252   23.5834 H   0  0  0  0  0  0  0  0  0  0  0  0
   21.4864   16.7606   23.2240 H   0  0  0  0  0  0  0  0  0  0  0  0
   20.0056   19.1009   23.2521 C   0  0  0  0  0  0  0  0  0  0  0  0
   19.2813   18.8493   24.0381 H   0  0  0  0  0  0  0  0  0  0  0  0
   20.9914   19.1358   23.7348 H   0  0  0  0  0  0  0  0  0  0  0  0
   19.6842   20.4998   22.6729 C   0  0  0  0  0  0  0  0  0  0  0  0
   18.6778   20.5067   22.2330 H   0  0  0  0  0  0  0  0  0  0  0  0
   20.3878   20.7353   21.8618 H   0  0  0  0  0  0  0  0  0  0  0  0
   19.7663   21.5974   23.7553 C   0  0  0  0  0  0  0  0  0  0  0  0
   19.0520   21.4062   24.5667 H   0  0  0  0  0  0  0  0  0  0  0  0
   19.5344   22.5816   23.3279 H   0  0  0  0  0  0  0  0  0  0  0  0
   20.7727   21.6489   24.1911 H   0  0  0  0  0  0  0  0  0  0  0  0
  1  2  1  0  0  0  0
  1  3  1  0  0  0  0
  1  4  1  0  0  0  0
  1  5  1  0  0  0  0
  5  6  1  0  0  0  0
  5  7  1  0  0  0  0
  7  8  1  0  0  0  0
  7  9  1  0  0  0  0
  7 10  1  0  0  0  0
  5 11  1  0  0  0  0
 11 12  1  0  0  0  0
 11 13  1  0  0  0  0
 11 14  1  0  0  0  0
 14 15  1  0  0  0  0
 14 16  1  0  0  0  0
 14 17  1  0  0  0  0
 17 18  1  0  0  0  0
 17 19  1  0  0  0  0
 17 20  1  0  0  0  0
M  END
> <VConfSearch Rank>
561

> <Conf_Id>
74

> <Delta U+W>
0.000

> <U+W>
-36.276

> <U>
22.080

> <W>
-58.356

> <W(PB)>
-60.289

> <W(SA)>
1.932

> <Valence>
1.885

> <Coulomb>
19.559

> <VdW>
0.637

> <VdW6>
-4.482

> <VdW12>
5.119

> <Bond>
0.136

> <Angle>
0.867

> <Pdih>
0.882

> <Idih>
0.000

> <Tether>
0.000

$$$$
VeraChem MOL file


 20 19  0  0  0  0  0  0  0  0999 V2000     
   18.5222   20.7437   21.7409 N   0  3  0  0  0  0  0  0  0  0  0  0
   17.5663   20.3776   21.7430 H   0  0  0  0  0  0  0  0  0  0  0  0
   18.8809   20.6582   20.7865 H   0  0  0  0  0  0  0  0  0  0  0  0
   18.4636   21.7428   21.9554 H   0  0  0  0  0  0  0  0  0  0  0  0
   19.3969   20.0191   22.7270 C   0  0  2  0  0  0  0  0  0  0  0  0
   18.9405   20.1673   23.7107 H   0  0  0  0  0  0  0  0  0  0  0  0
   20.8063   20.6387   22.7466 C   0  0  0  0  0  0  0  0  0  0  0  0
   20.7495   21.7227   22.9050 H   0  0  0  0  0  0  0  0  0  0  0  0
   21.3317   20.4607   21.8001 H   0  0  0  0  0  0  0  0  0  0  0  0
   21.4132   20.2248   23.5600 H   0  0  0  0  0  0  0  0  0  0  0  0
   19.4315   18.5010   22.4340 C   0  0  0  0  0  0  0  0  0  0  0  0
   18.3986   18.1444   22.3262 H   0  0  0  0  0  0  0  0  0  0  0  0
   19.9241   18.3218   21.4691 H   0  0  0  0  0  0  0  0  0  0  0  0
   20.1266   17.6667   23.5376 C   0  0  0  0  0  0  0  0  0  0  0  0
   19.6749   17.8935   24.5136 H   0  0  0  0  0  0  0  0  0  0  0  0
   21.1887   17.9366   23.6075 H   0  0  0  0  0  0  0  0  0  0  0  0
   20.0147   16.1517   23.2619 C   0  0  0  0  0  0  0  0  0  0  0  0
   18.9651   15.8320   23.2274 H   0  0  0  0  0  0  0  0  0  0  0  0
   20.5155   15.5760   24.0511 H   0  0  0  0  0  0  0  0  0  0  0  0
   20.4837   15.8889   22.3046 H   0  0  0  0  0  0  0  0  0  0  0  0
  1  2  1  0  0  0  0
  1  3  1  0  0  0  0
  1  4  1  0  0  0  0
  1  5  1  0  0  0  0
  5  6  1  0  0  0  0
  5  7  1  0  0  0  0
  7  8  1  0  0  0  0
  7  9  1  0  0  0  0
  7 10  1  0  0  0  0
  5 11  1  0  0  0  0
 11 12  1  0  0  0  0
 11 13  1  0  0  0  0
 11 14  1  0  0  0  0
 14 15  1  0  0  0  0
 14 16  1  0  0  0  0
 14 17  1  0  0  0  0
 17 18  1  0  0  0  0
 17 19  1  0  0  0  0
 17 20  1  0  0  0  0
M  END
> <VConfSearch Rank>
562

> <Conf_Id>
80

> <Delta U+W>
0.460

> <U+W>
-35.817

> <U>
22.495

> <W>
-58.311

> <W(PB)>
-60.259

> <W(SA)>
1.948

> <Valence>
2.419

> <Coulomb>
19.304

> <VdW>
0.772

> <VdW6>
-4.635

> <VdW12>
5.407

> <Bond>
0.149

> <Angle>
1.142

> <Pdih>
1.129

> <Idih>
0.000

> <Tether>
0.000

$$$$
VeraChem MOL file


 20 19  0  0  0  0  0  0  0  0999 V2000     
   18.6589   18.8115   24.8640 N   0  3  0  0  0  0  0  0  0  0  0  0
   19.2898   19.1072   25.6139 H   0  0  0  0  0  0  0  0  0  0  0  0
   18.6001   17.7907   24.8976 H   0  0  0  0  0  0  0  0  0  0  0  0
   17.7298   19.1772   25.0891 H   0  0  0  0  0  0  0  0  0  0  0  0
   19.1294   19.2935   23.5190 C   0  0  2  0  0  0  0  0  0  0  0  0
   19.1545   20.3861   23.5769 H   0  0  0  0  0  0  0  0  0  0  0  0
   18.1204   18.8958   22.4282 C   0  0  0  0  0  0  0  0  0  0  0  0
   17.1032   19.1885   22.7159 H   0  0  0  0  0  0  0  0  0  0  0  0
   18.1273   17.8126   22.2551 H   0  0  0  0  0  0  0  0  0  0  0  0
   18.3447   19.4022   21.4825 H   0  0  0  0  0  0  0  0  0  0  0  0
   20.5648   18.7954   23.2212 C   0  0  0  0  0  0  0  0  0  0  0  0
   21.1988   19.0934   24.0668 H   0  0  0  0  0  0  0  0  0  0  0  0
   20.5893   17.6978   23.2024 H   0  0  0  0  0  0  0  0  0  0  0  0
   21.2026   19.3688   21.9281 C   0  0  0  0  0  0  0  0  0  0  0  0
   22.2728   19.5397   22.1115 H   0  0  0  0  0  0  0  0  0  0  0  0
   20.7761   20.3549   21.6964 H   0  0  0  0  0  0  0  0  0  0  0  0
   21.0740   18.4258   20.7086 C   0  0  0  0  0  0  0  0  0  0  0  0
   21.5645   17.4633   20.9040 H   0  0  0  0  0  0  0  0  0  0  0  0
   21.5544   18.8702   19.8273 H   0  0  0  0  0  0  0  0  0  0  0  0
   20.0285   18.2245   20.4501 H   0  0  0  0  0  0  0  0  0  0  0  0
  1  2  1  0  0  0  0
  1  3  1  0  0  0  0
  1  4  1  0  0  0  0
  1  5  1  0  0  0  0
  5  6  1  0  0  0  0
  5  7  1  0  0  0  0
  7  8  1  0  0  0  0
  7  9  1  0  0  0  0
  7 10  1  0  0  0  0
  5 11  1  0  0  0  0
 11 12  1  0  0  0  0
 11 13  1  0  0  0  0
 11 14  1  0  0  0  0
 14 15  1  0  0  0  0
 14 16  1  0  0  0  0
 14 17  1  0  0  0  0
 17 18  1  0  0  0  0
 17 19  1  0  0  0  0
 17 20  1  0  0  0  0
M  END
> <VConfSearch Rank>
563

> <Conf_Id>
52

> <Delta U+W>
2.995

> <U+W>
-33.282

> <U>
25.224

> <W>
-58.506

> <W(PB)>
-60.411

> <W(SA)>
1.905

> <Valence>
4.945

> <Coulomb>
19.467

> <VdW>
0.813

> <VdW6>
-5.458

> <VdW12>
6.270

> <Bond>
0.200

> <Angle>
1.675

> <Pdih>
3.070

> <Idih>
0.000

> <Tether>
0.000

$$$$
VeraChem MOL file


 20 19  0  0  0  0  0  0  0  0999 V2000     
   19.8689   18.9846   21.1244 N   0  3  0  0  0  0  0  0  0  0  0  0
   19.9432   19.9675   20.8510 H   0  0  0  0  0  0  0  0  0  0  0  0
   19.5480   18.4623   20.3046 H   0  0  0  0  0  0  0  0  0  0  0  0
   20.8109   18.6577   21.3497 H   0  0  0  0  0  0  0  0  0  0  0  0
   18.9360   18.8089   22.2915 C   0  0  2  0  0  0  0  0  0  0  0  0
   18.8707   17.7351   22.4930 H   0  0  0  0  0  0  0  0  0  0  0  0
   17.5322   19.3142   21.9177 C   0  0  0  0  0  0  0  0  0  0  0  0
   17.5382   20.3935   21.7202 H   0  0  0  0  0  0  0  0  0  0  0  0
   16.8178   19.1188   22.7271 H   0  0  0  0  0  0  0  0  0  0  0  0
   17.1617   18.8044   21.0199 H   0  0  0  0  0  0  0  0  0  0  0  0
   19.4397   19.5141   23.5734 C   0  0  0  0  0  0  0  0  0  0  0  0
   19.7575   20.5382   23.3370 H   0  0  0  0  0  0  0  0  0  0  0  0
   18.5975   19.6153   24.2710 H   0  0  0  0  0  0  0  0  0  0  0  0
   20.5696   18.7644   24.3269 C   0  0  0  0  0  0  0  0  0  0  0  0
   20.2264   17.7569   24.6012 H   0  0  0  0  0  0  0  0  0  0  0  0
   20.7552   19.2889   25.2748 H   0  0  0  0  0  0  0  0  0  0  0  0
   21.9064   18.6623   23.5577 C   0  0  0  0  0  0  0  0  0  0  0  0
   22.7013   18.3054   24.2255 H   0  0  0  0  0  0  0  0  0  0  0  0
   22.2169   19.6392   23.1646 H   0  0  0  0  0  0  0  0  0  0  0  0
   21.8423   17.9483   22.7285 H   0  0  0  0  0  0  0  0  0  0  0  0
  1  2  1  0  0  0  0
  1  3  1  0  0  0  0
  1  4  1  0  0  0  0
  1  5  1  0  0  0  0
  5  6  1  0  0  0  0
  5  7  1  0  0  0  0
  7  8  1  0  0  0  0
  7  9  1  0  0  0  0
  7 10  1  0  0  0  0
  5 11  1  0  0  0  0
 11 12  1  0  0  0  0
 11 13  1  0  0  0  0
 11 14  1  0  0  0  0
 14 15  1  0  0  0  0
 14 16  1  0  0  0  0
 14 17  1  0  0  0  0
 17 18  1  0  0  0  0
 17 19  1  0  0  0  0
 17 20  1  0  0  0  0
M  END
> <VConfSearch Rank>
564

> <Conf_Id>
54

> <Delta U+W>
2.752

> <U+W>
-33.525

> <U>
24.337

> <W>
-57.862

> <W(PB)>
-59.764

> <W(SA)>
1.901

> <Valence>
3.593

> <Coulomb>
20.067

> <VdW>
0.677

> <VdW6>
-5.466

> <VdW12>
6.144

> <Bond>
0.191

> <Angle>
1.557

> <Pdih>
1.845

> <Idih>
0.000

> <Tether>
0.000

$$$$
VeraChem MOL file


 20 19  0  0  0  0  0  0  0  0999 V2000     
   19.5682   18.2918   24.6443 N   0  3  0  0  0  0  0  0  0  0  0  0
   19.2069   17.5365   25.2331 H   0  0  0  0  0  0  0  0  0  0  0  0
   19.5308   19.1523   25.1973 H   0  0  0  0  0  0  0  0  0  0  0  0
   20.5528   18.0890   24.4575 H   0  0  0  0  0  0  0  0  0  0  0  0
   18.7812   18.4196   23.3682 C   0  0  2  0  0  0  0  0  0  0  0  0
   17.7475   18.6172   23.6687 H   0  0  0  0  0  0  0  0  0  0  0  0
   18.7901   17.0987   22.5784 C   0  0  0  0  0  0  0  0  0  0  0  0
   18.2169   17.1965   21.6482 H   0  0  0  0  0  0  0  0  0  0  0  0
   18.3307   16.2961   23.1684 H   0  0  0  0  0  0  0  0  0  0  0  0
   19.8091   16.7847   22.3232 H   0  0  0  0  0  0  0  0  0  0  0  0
   19.2436   19.6173   22.5041 C   0  0  0  0  0  0  0  0  0  0  0  0
   18.5739   19.7072   21.6385 H   0  0  0  0  0  0  0  0  0  0  0  0
   19.1079   20.5382   23.0863 H   0  0  0  0  0  0  0  0  0  0  0  0
   20.7112   19.5399   22.0097 C   0  0  0  0  0  0  0  0  0  0  0  0
   20.8542   18.6508   21.3812 H   0  0  0  0  0  0  0  0  0  0  0  0
   21.3944   19.4401   22.8638 H   0  0  0  0  0  0  0  0  0  0  0  0
   21.1019   20.7931   21.1971 C   0  0  0  0  0  0  0  0  0  0  0  0
   22.1418   20.7230   20.8524 H   0  0  0  0  0  0  0  0  0  0  0  0
   21.0098   21.7029   21.8046 H   0  0  0  0  0  0  0  0  0  0  0  0
   20.4613   20.9062   20.3128 H   0  0  0  0  0  0  0  0  0  0  0  0
  1  2  1  0  0  0  0
  1  3  1  0  0  0  0
  1  4  1  0  0  0  0
  1  5  1  0  0  0  0
  5  6  1  0  0  0  0
  5  7  1  0  0  0  0
  7  8  1  0  0  0  0
  7  9  1  0  0  0  0
  7 10  1  0  0  0  0
  5 11  1  0  0  0  0
 11 12  1  0  0  0  0
 11 13  1  0  0  0  0
 11 14  1  0  0  0  0
 14 15  1  0  0  0  0
 14 16  1  0  0  0  0
 14 17  1  0  0  0  0
 17 18  1  0  0  0  0
 17 19  1  0  0  0  0
 17 20  1  0  0  0  0
M  END
> <VConfSearch Rank>
565

> <Conf_Id>
63

> <Delta U+W>
0.420

> <U+W>
-35.856

> <U>
22.625

> <W>
-58.481

> <W(PB)>
-60.400

> <W(SA)>
1.919

> <Valence>
2.404

> <Coulomb>
19.464

> <VdW>
0.757

> <VdW6>
-5.074

> <VdW12>
5.830

> <Bond>
0.172

> <Angle>
1.207

> <Pdih>
1.025

> <Idih>
0.000

> <Tether>
0.000

$$$$
VeraChem MOL file


 20 19  0  0  0  0  0  0  0  0999 V2000     
   19.6497   20.7179   22.4215 N   0  3  0  0  0  0  0  0  0  0  0  0
   20.5393   20.7408   22.9265 H   0  0  0  0  0  0  0  0  0  0  0  0
   18.9509   21.1815   23.0073 H   0  0  0  0  0  0  0  0  0  0  0  0
   19.7637   21.2832   21.5759 H   0  0  0  0  0  0  0  0  0  0  0  0
   19.2442   19.3069   22.0918 C   0  0  2  0  0  0  0  0  0  0  0  0
   20.0385   18.8893   21.4658 H   0  0  0  0  0  0  0  0  0  0  0  0
   17.9386   19.2926   21.2802 C   0  0  0  0  0  0  0  0  0  0  0  0
   18.0444   19.8860   20.3637 H   0  0  0  0  0  0  0  0  0  0  0  0
   17.1049   19.7066   21.8610 H   0  0  0  0  0  0  0  0  0  0  0  0
   17.6744   18.2695   20.9851 H   0  0  0  0  0  0  0  0  0  0  0  0
   19.1045   18.4224   23.3515 C   0  0  0  0  0  0  0  0  0  0  0  0
   18.2995   18.8165   23.9859 H   0  0  0  0  0  0  0  0  0  0  0  0
   18.7899   17.4151   23.0477 H   0  0  0  0  0  0  0  0  0  0  0  0
   20.4011   18.3052   24.1924 C   0  0  0  0  0  0  0  0  0  0  0  0
   20.2003   17.6644   25.0624 H   0  0  0  0  0  0  0  0  0  0  0  0
   20.6804   19.2867   24.5990 H   0  0  0  0  0  0  0  0  0  0  0  0
   21.5873   17.7132   23.3976 C   0  0  0  0  0  0  0  0  0  0  0  0
   21.3315   16.7303   22.9808 H   0  0  0  0  0  0  0  0  0  0  0  0
   22.4604   17.5827   24.0501 H   0  0  0  0  0  0  0  0  0  0  0  0
   21.8880   18.3684   22.5705 H   0  0  0  0  0  0  0  0  0  0  0  0
  1  2  1  0  0  0  0
  1  3  1  0  0  0  0
  1  4  1  0  0  0  0
  1  5  1  0  0  0  0
  5  6  1  0  0  0  0
  5  7  1  0  0  0  0
  7  8  1  0  0  0  0
  7  9  1  0  0  0  0
  7 10  1  0  0  0  0
  5 11  1  0  0  0  0
 11 12  1  0  0  0  0
 11 13  1  0  0  0  0
 11 14  1  0  0  0  0
 14 15  1  0  0  0  0
 14 16  1  0  0  0  0
 14 17  1  0  0  0  0
 17 18  1  0  0  0  0
 17 19  1  0  0  0  0
 17 20  1  0  0  0  0
M  END
> <VConfSearch Rank>
566

> <Conf_Id>
50

> <Delta U+W>
0.466

> <U+W>
-35.811

> <U>
22.369

> <W>
-58.180

> <W(PB)>
-60.103

> <W(SA)>
1.923

> <Valence>
2.168

> <Coulomb>
19.636

> <VdW>
0.566

> <VdW6>
-5.263

> <VdW12>
5.829

> <Bond>
0.162

> <Angle>
1.066

> <Pdih>
0.939

> <Idih>
0.000

> <Tether>
0.000

$$$$
VeraChem MOL file


 20 19  0  0  0  0  0  0  0  0999 V2000     
   18.0078   19.7596   21.4427 N   0  3  0  0  0  0  0  0  0  0  0  0
   18.4564   20.5069   20.9057 H   0  0  0  0  0  0  0  0  0  0  0  0
   17.3348   20.1983   22.0764 H   0  0  0  0  0  0  0  0  0  0  0  0
   17.4750   19.1895   20.7803 H   0  0  0  0  0  0  0  0  0  0  0  0
   19.0167   18.9332   22.1935 C   0  0  2  0  0  0  0  0  0  0  0  0
   19.6879   18.5121   21.4387 H   0  0  0  0  0  0  0  0  0  0  0  0
   18.3103   17.7772   22.9261 C   0  0  0  0  0  0  0  0  0  0  0  0
   17.5905   18.1568   23.6620 H   0  0  0  0  0  0  0  0  0  0  0  0
   19.0258   17.1380   23.4546 H   0  0  0  0  0  0  0  0  0  0  0  0
   17.7654   17.1447   22.2146 H   0  0  0  0  0  0  0  0  0  0  0  0
   19.8624   19.7943   23.1638 C   0  0  0  0  0  0  0  0  0  0  0  0
   19.7642   20.8517   22.8846 H   0  0  0  0  0  0  0  0  0  0  0  0
   19.4674   19.7208   24.1858 H   0  0  0  0  0  0  0  0  0  0  0  0
   21.3740   19.4527   23.1509 C   0  0  0  0  0  0  0  0  0  0  0  0
   21.8995   20.1616   23.8060 H   0  0  0  0  0  0  0  0  0  0  0  0
   21.7783   19.6131   22.1415 H   0  0  0  0  0  0  0  0  0  0  0  0
   21.7011   18.0148   23.6112 C   0  0  0  0  0  0  0  0  0  0  0  0
   21.2732   17.8085   24.6009 H   0  0  0  0  0  0  0  0  0  0  0  0
   22.7874   17.8722   23.6802 H   0  0  0  0  0  0  0  0  0  0  0  0
   21.3175   17.2700   22.9029 H   0  0  0  0  0  0  0  0  0  0  0  0
  1  2  1  0  0  0  0
  1  3  1  0  0  0  0
  1  4  1  0  0  0  0
  1  5  1  0  0  0  0
  5  6  1  0  0  0  0
  5  7  1  0  0  0  0
  7  8  1  0  0  0  0
  7  9  1  0  0  0  0
  7 10  1  0  0  0  0
  5 11  1  0  0  0  0
 11 12  1  0  0  0  0
 11 13  1  0  0  0  0
 11 14  1  0  0  0  0
 14 15  1  0  0  0  0
 14 16  1  0  0  0  0
 14 17  1  0  0  0  0
 17 18  1  0  0  0  0
 17 19  1  0  0  0  0
 17 20  1  0  0  0  0
M  END
> <VConfSearch Rank>
567

> <Conf_Id>
3

> <Delta U+W>
3.093

> <U+W>
-33.184

> <U>
25.256

> <W>
-58.439

> <W(PB)>
-60.337

> <W(SA)>
1.898

> <Valence>
4.963

> <Coulomb>
19.511

> <VdW>
0.782

> <VdW6>
-5.429

> <VdW12>
6.211

> <Bond>
0.174

> <Angle>
1.377

> <Pdih>
3.412

> <Idih>
0.000

> <Tether>
0.000

$$$$
VeraChem MOL file


 20 19  0  0  0  0  0  0  0  0999 V2000     
   18.5452   19.2451   24.7202 N   0  3  0  0  0  0  0  0  0  0  0  0
   18.9399   19.7466   25.5204 H   0  0  0  0  0  0  0  0  0  0  0  0
   18.3456   18.2902   25.0304 H   0  0  0  0  0  0  0  0  0  0  0  0
   17.6505   19.6875   24.4955 H   0  0  0  0  0  0  0  0  0  0  0  0
   19.4814   19.2624   23.5430 C   0  0  2  0  0  0  0  0  0  0  0  0
   20.4030   18.7764   23.8771 H   0  0  0  0  0  0  0  0  0  0  0  0
   19.8132   20.7118   23.1440 C   0  0  0  0  0  0  0  0  0  0  0  0
   20.5996   20.7442   22.3811 H   0  0  0  0  0  0  0  0  0  0  0  0
   20.1780   21.2775   24.0101 H   0  0  0  0  0  0  0  0  0  0  0  0
   18.9290   21.2272   22.7488 H   0  0  0  0  0  0  0  0  0  0  0  0
   18.9059   18.4507   22.3579 C   0  0  0  0  0  0  0  0  0  0  0  0
   18.6149   17.4565   22.7216 H   0  0  0  0  0  0  0  0  0  0  0  0
   17.9822   18.9281   22.0051 H   0  0  0  0  0  0  0  0  0  0  0  0
   19.8712   18.2679   21.1589 C   0  0  0  0  0  0  0  0  0  0  0  0
   20.0791   19.2367   20.6851 H   0  0  0  0  0  0  0  0  0  0  0  0
   19.3692   17.6609   20.3924 H   0  0  0  0  0  0  0  0  0  0  0  0
   21.1999   17.5817   21.5498 C   0  0  0  0  0  0  0  0  0  0  0  0
   21.0171   16.6109   22.0287 H   0  0  0  0  0  0  0  0  0  0  0  0
   21.7855   18.2009   22.2411 H   0  0  0  0  0  0  0  0  0  0  0  0
   21.8179   17.4050   20.6600 H   0  0  0  0  0  0  0  0  0  0  0  0
  1  2  1  0  0  0  0
  1  3  1  0  0  0  0
  1  4  1  0  0  0  0
  1  5  1  0  0  0  0
  5  6  1  0  0  0  0
  5  7  1  0  0  0  0
  7  8  1  0  0  0  0
  7  9  1  0  0  0  0
  7 10  1  0  0  0  0
  5 11  1  0  0  0  0
 11 12  1  0  0  0  0
 11 13  1  0  0  0  0
 11 14  1  0  0  0  0
 14 15  1  0  0  0  0
 14 16  1  0  0  0  0
 14 17  1  0  0  0  0
 17 18  1  0  0  0  0
 17 19  1  0  0  0  0
 17 20  1  0  0  0  0
M  END
> <VConfSearch Rank>
568

> <Conf_Id>
64

> <Delta U+W>
0.544

> <U+W>
-35.732

> <U>
22.800

> <W>
-58.532

> <W(PB)>
-60.437

> <W(SA)>
1.905

> <Valence>
2.662

> <Coulomb>
19.485

> <VdW>
0.653

> <VdW6>
-5.460

> <VdW12>
6.113

> <Bond>
0.174

> <Angle>
1.378

> <Pdih>
1.109

> <Idih>
0.000

> <Tether>
0.000

$$$$
VeraChem MOL file


 20 19  0  0  0  0  0  0  0  0999 V2000     
   20.7753   19.3924   20.8939 N   0  3  0  0  0  0  0  0  0  0  0  0
   21.2289   20.0271   21.5548 H   0  0  0  0  0  0  0  0  0  0  0  0
   20.5227   19.9411   20.0676 H   0  0  0  0  0  0  0  0  0  0  0  0
   21.4738   18.7047   20.5996 H   0  0  0  0  0  0  0  0  0  0  0  0
   19.5696   18.7305   21.5047 C   0  0  2  0  0  0  0  0  0  0  0  0
   19.1532   18.0875   20.7230 H   0  0  0  0  0  0  0  0  0  0  0  0
   18.4961   19.7709   21.8636 C   0  0  0  0  0  0  0  0  0  0  0  0
   18.8886   20.5340   22.5457 H   0  0  0  0  0  0  0  0  0  0  0  0
   17.6297   19.2918   22.3360 H   0  0  0  0  0  0  0  0  0  0  0  0
   18.1416   20.2823   20.9604 H   0  0  0  0  0  0  0  0  0  0  0  0
   19.9417   17.8109   22.6950 C   0  0  0  0  0  0  0  0  0  0  0  0
   19.0626   17.2227   22.9895 H   0  0  0  0  0  0  0  0  0  0  0  0
   20.6695   17.0760   22.3265 H   0  0  0  0  0  0  0  0  0  0  0  0
   20.5478   18.5129   23.9421 C   0  0  0  0  0  0  0  0  0  0  0  0
   21.1161   19.4061   23.6514 H   0  0  0  0  0  0  0  0  0  0  0  0
   21.2769   17.8314   24.4024 H   0  0  0  0  0  0  0  0  0  0  0  0
   19.4976   18.8767   25.0179 C   0  0  0  0  0  0  0  0  0  0  0  0
   18.7560   19.5924   24.6468 H   0  0  0  0  0  0  0  0  0  0  0  0
   19.9848   19.3290   25.8914 H   0  0  0  0  0  0  0  0  0  0  0  0
   18.9623   17.9825   25.3628 H   0  0  0  0  0  0  0  0  0  0  0  0
  1  2  1  0  0  0  0
  1  3  1  0  0  0  0
  1  4  1  0  0  0  0
  1  5  1  0  0  0  0
  5  6  1  0  0  0  0
  5  7  1  0  0  0  0
  7  8  1  0  0  0  0
  7  9  1  0  0  0  0
  7 10  1  0  0  0  0
  5 11  1  0  0  0  0
 11 12  1  0  0  0  0
 11 13  1  0  0  0  0
 11 14  1  0  0  0  0
 14 15  1  0  0  0  0
 14 16  1  0  0  0  0
 14 17  1  0  0  0  0
 17 18  1  0  0  0  0
 17 19  1  0  0  0  0
 17 20  1  0  0  0  0
M  END
> <VConfSearch Rank>
569

> <Conf_Id>
35

> <Delta U+W>
3.004

> <U+W>
-33.272

> <U>
25.367

> <W>
-58.639

> <W(PB)>
-60.512

> <W(SA)>
1.873

> <Valence>
4.943

> <Coulomb>
19.661

> <VdW>
0.764

> <VdW6>
-5.871

> <VdW12>
6.636

> <Bond>
0.230

> <Angle>
1.857

> <Pdih>
2.855

> <Idih>
0.000

> <Tether>
0.000

$$$$
VeraChem MOL file


 20 19  0  0  0  0  0  0  0  0999 V2000     
   19.1598   17.7743   23.8525 N   0  3  0  0  0  0  0  0  0  0  0  0
   19.1525   17.6131   24.8632 H   0  0  0  0  0  0  0  0  0  0  0  0
   18.9139   16.8892   23.4011 H   0  0  0  0  0  0  0  0  0  0  0  0
   18.4170   18.4428   23.6398 H   0  0  0  0  0  0  0  0  0  0  0  0
   20.4970   18.2788   23.3836 C   0  0  2  0  0  0  0  0  0  0  0  0
   21.2090   17.4860   23.6334 H   0  0  0  0  0  0  0  0  0  0  0  0
   20.9244   19.5388   24.1571 C   0  0  0  0  0  0  0  0  0  0  0  0
   20.2036   20.3553   24.0310 H   0  0  0  0  0  0  0  0  0  0  0  0
   21.9061   19.8901   23.8160 H   0  0  0  0  0  0  0  0  0  0  0  0
   21.0027   19.3231   25.2296 H   0  0  0  0  0  0  0  0  0  0  0  0
   20.5669   18.4763   21.8475 C   0  0  0  0  0  0  0  0  0  0  0  0
   21.6271   18.5332   21.5678 H   0  0  0  0  0  0  0  0  0  0  0  0
   20.1846   17.5726   21.3552 H   0  0  0  0  0  0  0  0  0  0  0  0
   19.8522   19.7235   21.2557 C   0  0  0  0  0  0  0  0  0  0  0  0
   20.0360   19.7374   20.1723 H   0  0  0  0  0  0  0  0  0  0  0  0
   20.3091   20.6441   21.6434 H   0  0  0  0  0  0  0  0  0  0  0  0
   18.3248   19.7632   21.4887 C   0  0  0  0  0  0  0  0  0  0  0  0
   17.8514   18.8192   21.1887 H   0  0  0  0  0  0  0  0  0  0  0  0
   17.8707   20.5664   20.8940 H   0  0  0  0  0  0  0  0  0  0  0  0
   18.0816   19.9641   22.5384 H   0  0  0  0  0  0  0  0  0  0  0  0
  1  2  1  0  0  0  0
  1  3  1  0  0  0  0
  1  4  1  0  0  0  0
  1  5  1  0  0  0  0
  5  6  1  0  0  0  0
  5  7  1  0  0  0  0
  7  8  1  0  0  0  0
  7  9  1  0  0  0  0
  7 10  1  0  0  0  0
  5 11  1  0  0  0  0
 11 12  1  0  0  0  0
 11 13  1  0  0  0  0
 11 14  1  0  0  0  0
 14 15  1  0  0  0  0
 14 16  1  0  0  0  0
 14 17  1  0  0  0  0
 17 18  1  0  0  0  0
 17 19  1  0  0  0  0
 17 20  1  0  0  0  0
M  END
> <VConfSearch Rank>
570

> <Conf_Id>
55

> <Delta U+W>
2.767

> <U+W>
-33.509

> <U>
24.552

> <W>
-58.061

> <W(PB)>
-59.930

> <W(SA)>
1.869

> <Valence>
3.726

> <Coulomb>
20.219

> <VdW>
0.606

> <VdW6>
-6.395

> <VdW12>
7.001

> <Bond>
0.241

> <Angle>
2.098

> <Pdih>
1.387

> <Idih>
0.000

> <Tether>
0.000

$$$$
VeraChem MOL file


 20 19  0  0  0  0  0  0  0  0999 V2000     
   18.6040   18.0487   21.3909 N   0  3  0  0  0  0  0  0  0  0  0  0
   19.2808   17.3415   21.0934 H   0  0  0  0  0  0  0  0  0  0  0  0
   17.9389   18.1764   20.6235 H   0  0  0  0  0  0  0  0  0  0  0  0
   18.0837   17.6626   22.1826 H   0  0  0  0  0  0  0  0  0  0  0  0
   19.2818   19.3426   21.7535 C   0  0  2  0  0  0  0  0  0  0  0  0
   18.4928   20.0358   22.0614 H   0  0  0  0  0  0  0  0  0  0  0  0
   19.9959   19.9396   20.5297 C   0  0  0  0  0  0  0  0  0  0  0  0
   19.2905   20.0898   19.7032 H   0  0  0  0  0  0  0  0  0  0  0  0
   20.7994   19.2806   20.1777 H   0  0  0  0  0  0  0  0  0  0  0  0
   20.4359   20.9149   20.7721 H   0  0  0  0  0  0  0  0  0  0  0  0
   20.2717   19.1851   22.9288 C   0  0  0  0  0  0  0  0  0  0  0  0
   21.0625   18.4745   22.6536 H   0  0  0  0  0  0  0  0  0  0  0  0
   20.7660   20.1494   23.1071 H   0  0  0  0  0  0  0  0  0  0  0  0
   19.5881   18.7252   24.2390 C   0  0  0  0  0  0  0  0  0  0  0  0
   19.1332   17.7348   24.1028 H   0  0  0  0  0  0  0  0  0  0  0  0
   18.7732   19.4174   24.4942 H   0  0  0  0  0  0  0  0  0  0  0  0
   20.5896   18.6604   25.4121 C   0  0  0  0  0  0  0  0  0  0  0  0
   21.4014   17.9525   25.1996 H   0  0  0  0  0  0  0  0  0  0  0  0
   20.0887   18.3316   26.3319 H   0  0  0  0  0  0  0  0  0  0  0  0
   21.0362   19.6444   25.6059 H   0  0  0  0  0  0  0  0  0  0  0  0
  1  2  1  0  0  0  0
  1  3  1  0  0  0  0
  1  4  1  0  0  0  0
  1  5  1  0  0  0  0
  5  6  1  0  0  0  0
  5  7  1  0  0  0  0
  7  8  1  0  0  0  0
  7  9  1  0  0  0  0
  7 10  1  0  0  0  0
  5 11  1  0  0  0  0
 11 12  1  0  0  0  0
 11 13  1  0  0  0  0
 11 14  1  0  0  0  0
 14 15  1  0  0  0  0
 14 16  1  0  0  0  0
 14 17  1  0  0  0  0
 17 18  1  0  0  0  0
 17 19  1  0  0  0  0
 17 20  1  0  0  0  0
M  END
> <VConfSearch Rank>
571

> <Conf_Id>
74

> <Delta U+W>
0.000

> <U+W>
-36.276

> <U>
22.080

> <W>
-58.356

> <W(PB)>
-60.289

> <W(SA)>
1.932

> <Valence>
1.885

> <Coulomb>
19.559

> <VdW>
0.637

> <VdW6>
-4.482

> <VdW12>
5.119

> <Bond>
0.136

> <Angle>
0.867

> <Pdih>
0.882

> <Idih>
0.000

> <Tether>
0.000

$$$$
VeraChem MOL file


 20 19  0  0  0  0  0  0  0  0999 V2000     
   21.5066   17.7990   21.5758 N   0  3  0  0  0  0  0  0  0  0  0  0
   21.3897   16.8388   21.9109 H   0  0  0  0  0  0  0  0  0  0  0  0
   22.2937   18.2078   22.0857 H   0  0  0  0  0  0  0  0  0  0  0  0
   21.7781   17.7441   20.5905 H   0  0  0  0  0  0  0  0  0  0  0  0
   20.2511   18.6074   21.7569 C   0  0  2  0  0  0  0  0  0  0  0  0
   19.4722   18.1004   21.1788 H   0  0  0  0  0  0  0  0  0  0  0  0
   20.4399   20.0229   21.1812 C   0  0  0  0  0  0  0  0  0  0  0  0
   20.8000   19.9743   20.1463 H   0  0  0  0  0  0  0  0  0  0  0  0
   21.1684   20.5964   21.7678 H   0  0  0  0  0  0  0  0  0  0  0  0
   19.4951   20.5782   21.1686 H   0  0  0  0  0  0  0  0  0  0  0  0
   19.8124   18.6347   23.2395 C   0  0  0  0  0  0  0  0  0  0  0  0
   19.8016   17.6038   23.6176 H   0  0  0  0  0  0  0  0  0  0  0  0
   20.5584   19.1764   23.8360 H   0  0  0  0  0  0  0  0  0  0  0  0
   18.4123   19.2557   23.4662 C   0  0  0  0  0  0  0  0  0  0  0  0
   17.6760   18.7550   22.8219 H   0  0  0  0  0  0  0  0  0  0  0  0
   18.4153   20.3164   23.1821 H   0  0  0  0  0  0  0  0  0  0  0  0
   17.9678   19.1359   24.9398 C   0  0  0  0  0  0  0  0  0  0  0  0
   17.9098   18.0849   25.2517 H   0  0  0  0  0  0  0  0  0  0  0  0
   16.9759   19.5840   25.0832 H   0  0  0  0  0  0  0  0  0  0  0  0
   18.6700   19.6523   25.6073 H   0  0  0  0  0  0  0  0  0  0  0  0
  1  2  1  0  0  0  0
  1  3  1  0  0  0  0
  1  4  1  0  0  0  0
  1  5  1  0  0  0  0
  5  6  1  0  0  0  0
  5  7  1  0  0  0  0
  7  8  1  0  0  0  0
  7  9  1  0  0  0  0
  7 10  1  0  0  0  0
  5 11  1  0  0  0  0
 11 12  1  0  0  0  0
 11 13  1  0  0  0  0
 11 14  1  0  0  0  0
 14 15  1  0  0  0  0
 14 16  1  0  0  0  0
 14 17  1  0  0  0  0
 17 18  1  0  0  0  0
 17 19  1  0  0  0  0
 17 20  1  0  0  0  0
M  END
> <VConfSearch Rank>
572

> <Conf_Id>
80

> <Delta U+W>
0.460

> <U+W>
-35.817

> <U>
22.495

> <W>
-58.311

> <W(PB)>
-60.259

> <W(SA)>
1.948

> <Valence>
2.419

> <Coulomb>
19.304

> <VdW>
0.772

> <VdW6>
-4.635

> <VdW12>
5.407

> <Bond>
0.149

> <Angle>
1.142

> <Pdih>
1.129

> <Idih>
0.000

> <Tether>
0.000

$$$$
VeraChem MOL file


 20 19  0  0  0  0  0  0  0  0999 V2000     
   18.9856   20.2187   20.8845 N   0  3  0  0  0  0  0  0  0  0  0  0
   19.7283   20.8305   20.5352 H   0  0  0  0  0  0  0  0  0  0  0  0
   18.3550   20.7936   21.4488 H   0  0  0  0  0  0  0  0  0  0  0  0
   18.4550   19.8933   20.0719 H   0  0  0  0  0  0  0  0  0  0  0  0
   19.5406   19.0670   21.6770 C   0  0  2  0  0  0  0  0  0  0  0  0
   20.1921   18.5117   20.9950 H   0  0  0  0  0  0  0  0  0  0  0  0
   18.4045   18.1301   22.1215 C   0  0  0  0  0  0  0  0  0  0  0  0
   17.7651   17.8653   21.2705 H   0  0  0  0  0  0  0  0  0  0  0  0
   17.7756   18.6018   22.8866 H   0  0  0  0  0  0  0  0  0  0  0  0
   18.8039   17.1933   22.5265 H   0  0  0  0  0  0  0  0  0  0  0  0
   20.4025   19.5709   22.8604 C   0  0  0  0  0  0  0  0  0  0  0  0
   21.1565   20.2559   22.4504 H   0  0  0  0  0  0  0  0  0  0  0  0
   19.7917   20.1747   23.5446 H   0  0  0  0  0  0  0  0  0  0  0  0
   21.1505   18.4613   23.6459 C   0  0  0  0  0  0  0  0  0  0  0  0
   22.1356   18.8468   23.9443 H   0  0  0  0  0  0  0  0  0  0  0  0
   21.3498   17.5995   22.9937 H   0  0  0  0  0  0  0  0  0  0  0  0
   20.4097   18.0084   24.9262 C   0  0  0  0  0  0  0  0  0  0  0  0
   20.2731   18.8495   25.6183 H   0  0  0  0  0  0  0  0  0  0  0  0
   20.9874   17.2368   25.4514 H   0  0  0  0  0  0  0  0  0  0  0  0
   19.4213   17.5899   24.7058 H   0  0  0  0  0  0  0  0  0  0  0  0
  1  2  1  0  0  0  0
  1  3  1  0  0  0  0
  1  4  1  0  0  0  0
  1  5  1  0  0  0  0
  5  6  1  0  0  0  0
  5  7  1  0  0  0  0
  7  8  1  0  0  0  0
  7  9  1  0  0  0  0
  7 10  1  0  0  0  0
  5 11  1  0  0  0  0
 11 12  1  0  0  0  0
 11 13  1  0  0  0  0
 11 14  1  0  0  0  0
 14 15  1  0  0  0  0
 14 16  1  0  0  0  0
 14 17  1  0  0  0  0
 17 18  1  0  0  0  0
 17 19  1  0  0  0  0
 17 20  1  0  0  0  0
M  END
> <VConfSearch Rank>
573

> <Conf_Id>
52

> <Delta U+W>
2.995

> <U+W>
-33.282

> <U>
25.224

> <W>
-58.506

> <W(PB)>
-60.411

> <W(SA)>
1.905

> <Valence>
4.945

> <Coulomb>
19.467

> <VdW>
0.813

> <VdW6>
-5.458

> <VdW12>
6.270

> <Bond>
0.200

> <Angle>
1.675

> <Pdih>
3.070

> <Idih>
0.000

> <Tether>
0.000

$$$$
VeraChem MOL file


 20 19  0  0  0  0  0  0  0  0999 V2000     
   18.4935   19.7938   23.4081 N   0  3  0  0  0  0  0  0  0  0  0  0
   17.7424   19.7112   22.7186 H   0  0  0  0  0  0  0  0  0  0  0  0
   18.2686   20.5893   24.0117 H   0  0  0  0  0  0  0  0  0  0  0  0
   18.4718   18.9512   23.9865 H   0  0  0  0  0  0  0  0  0  0  0  0
   19.8320   19.9655   22.7432 C   0  0  2  0  0  0  0  0  0  0  0  0
   20.5726   20.0950   23.5385 H   0  0  0  0  0  0  0  0  0  0  0  0
   19.8260   21.2385   21.8799 C   0  0  0  0  0  0  0  0  0  0  0  0
   19.1084   21.1549   21.0541 H   0  0  0  0  0  0  0  0  0  0  0  0
   20.8188   21.4259   21.4524 H   0  0  0  0  0  0  0  0  0  0  0  0
   19.5545   22.1148   22.4813 H   0  0  0  0  0  0  0  0  0  0  0  0
   20.2412   18.7391   21.8931 C   0  0  0  0  0  0  0  0  0  0  0  0
   19.4026   18.4285   21.2560 H   0  0  0  0  0  0  0  0  0  0  0  0
   21.0432   19.0412   21.2063 H   0  0  0  0  0  0  0  0  0  0  0  0
   20.7693   17.5297   22.7084 C   0  0  0  0  0  0  0  0  0  0  0  0
   21.6379   17.8378   23.3073 H   0  0  0  0  0  0  0  0  0  0  0  0
   21.1425   16.7764   22.0003 H   0  0  0  0  0  0  0  0  0  0  0  0
   19.7223   16.8580   23.6259 C   0  0  0  0  0  0  0  0  0  0  0  0
   20.1091   15.9038   24.0069 H   0  0  0  0  0  0  0  0  0  0  0  0
   18.7922   16.6459   23.0826 H   0  0  0  0  0  0  0  0  0  0  0  0
   19.4915   17.4796   24.4988 H   0  0  0  0  0  0  0  0  0  0  0  0
  1  2  1  0  0  0  0
  1  3  1  0  0  0  0
  1  4  1  0  0  0  0
  1  5  1  0  0  0  0
  5  6  1  0  0  0  0
  5  7  1  0  0  0  0
  7  8  1  0  0  0  0
  7  9  1  0  0  0  0
  7 10  1  0  0  0  0
  5 11  1  0  0  0  0
 11 12  1  0  0  0  0
 11 13  1  0  0  0  0
 11 14  1  0  0  0  0
 14 15  1  0  0  0  0
 14 16  1  0  0  0  0
 14 17  1  0  0  0  0
 17 18  1  0  0  0  0
 17 19  1  0  0  0  0
 17 20  1  0  0  0  0
M  END
> <VConfSearch Rank>
574

> <Conf_Id>
54

> <Delta U+W>
2.752

> <U+W>
-33.525

> <U>
24.337

> <W>
-57.862

> <W(PB)>
-59.764

> <W(SA)>
1.901

> <Valence>
3.593

> <Coulomb>
20.067

> <VdW>
0.677

> <VdW6>
-5.466

> <VdW12>
6.144

> <Bond>
0.191

> <Angle>
1.557

> <Pdih>
1.845

> <Idih>
0.000

> <Tether>
0.000

$$$$
VeraChem MOL file


 20 19  0  0  0  0  0  0  0  0999 V2000     
   20.4667   17.2168   23.5583 N   0  3  0  0  0  0  0  0  0  0  0  0
   20.3098   16.2091   23.6459 H   0  0  0  0  0  0  0  0  0  0  0  0
   20.9079   17.5320   24.4265 H   0  0  0  0  0  0  0  0  0  0  0  0
   21.1410   17.3563   22.8025 H   0  0  0  0  0  0  0  0  0  0  0  0
   19.1818   17.9529   23.2919 C   0  0  2  0  0  0  0  0  0  0  0  0
   18.5245   17.7306   24.1385 H   0  0  0  0  0  0  0  0  0  0  0  0
   18.4948   17.4239   22.0203 C   0  0  0  0  0  0  0  0  0  0  0  0
   17.5595   17.9642   21.8286 H   0  0  0  0  0  0  0  0  0  0  0  0
   18.2472   16.3612   22.1321 H   0  0  0  0  0  0  0  0  0  0  0  0
   19.1381   17.5263   21.1385 H   0  0  0  0  0  0  0  0  0  0  0  0
   19.3750   19.4879   23.2532 C   0  0  0  0  0  0  0  0  0  0  0  0
   18.3917   19.9648   23.1464 H   0  0  0  0  0  0  0  0  0  0  0  0
   19.7631   19.8135   24.2272 H   0  0  0  0  0  0  0  0  0  0  0  0
   20.3168   20.0011   22.1333 C   0  0  0  0  0  0  0  0  0  0  0  0
   19.9176   19.7295   21.1469 H   0  0  0  0  0  0  0  0  0  0  0  0
   21.3032   19.5261   22.2200 H   0  0  0  0  0  0  0  0  0  0  0  0
   20.4895   21.5339   22.1968 C   0  0  0  0  0  0  0  0  0  0  0  0
   21.1563   21.8824   21.3974 H   0  0  0  0  0  0  0  0  0  0  0  0
   20.9242   21.8435   23.1561 H   0  0  0  0  0  0  0  0  0  0  0  0
   19.5254   22.0454   22.0774 H   0  0  0  0  0  0  0  0  0  0  0  0
  1  2  1  0  0  0  0
  1  3  1  0  0  0  0
  1  4  1  0  0  0  0
  1  5  1  0  0  0  0
  5  6  1  0  0  0  0
  5  7  1  0  0  0  0
  7  8  1  0  0  0  0
  7  9  1  0  0  0  0
  7 10  1  0  0  0  0
  5 11  1  0  0  0  0
 11 12  1  0  0  0  0
 11 13  1  0  0  0  0
 11 14  1  0  0  0  0
 14 15  1  0  0  0  0
 14 16  1  0  0  0  0
 14 17  1  0  0  0  0
 17 18  1  0  0  0  0
 17 19  1  0  0  0  0
 17 20  1  0  0  0  0
M  END
> <VConfSearch Rank>
575

> <Conf_Id>
63

> <Delta U+W>
0.420

> <U+W>
-35.856

> <U>
22.625

> <W>
-58.481

> <W(PB)>
-60.400

> <W(SA)>
1.919

> <Valence>
2.404

> <Coulomb>
19.464

> <VdW>
0.757

> <VdW6>
-5.074

> <VdW12>
5.830

> <Bond>
0.172

> <Angle>
1.207

> <Pdih>
1.025

> <Idih>
0.000

> <Tether>
0.000

$$$$
VeraChem MOL file


 20 19  0  0  0  0  0  0  0  0999 V2000     
   21.3991   19.1128   22.3334 N   0  3  0  0  0  0  0  0  0  0  0  0
   21.1882   18.3895   21.6412 H   0  0  0  0  0  0  0  0  0  0  0  0
   21.9815   18.6856   23.0578 H   0  0  0  0  0  0  0  0  0  0  0  0
   21.9655   19.8265   21.8669 H   0  0  0  0  0  0  0  0  0  0  0  0
   20.1402   19.6990   22.9128 C   0  0  2  0  0  0  0  0  0  0  0  0
   19.5823   20.1339   22.0781 H   0  0  0  0  0  0  0  0  0  0  0  0
   20.4721   20.8257   23.9047 C   0  0  0  0  0  0  0  0  0  0  0  0
   21.0714   21.6060   23.4197 H   0  0  0  0  0  0  0  0  0  0  0  0
   21.0381   20.4449   24.7641 H   0  0  0  0  0  0  0  0  0  0  0  0
   19.5553   21.2963   24.2809 H   0  0  0  0  0  0  0  0  0  0  0  0
   19.2483   18.6327   23.5885 C   0  0  0  0  0  0  0  0  0  0  0  0
   19.7854   18.1953   24.4405 H   0  0  0  0  0  0  0  0  0  0  0  0
   18.3590   19.1233   24.0060 H   0  0  0  0  0  0  0  0  0  0  0  0
   18.7893   17.4955   22.6409 C   0  0  0  0  0  0  0  0  0  0  0  0
   18.1685   16.7903   23.2112 H   0  0  0  0  0  0  0  0  0  0  0  0
   19.6564   16.9189   22.2911 H   0  0  0  0  0  0  0  0  0  0  0  0
   17.9796   18.0074   21.4277 C   0  0  0  0  0  0  0  0  0  0  0  0
   17.1062   18.5875   21.7529 H   0  0  0  0  0  0  0  0  0  0  0  0
   17.6159   17.1650   20.8251 H   0  0  0  0  0  0  0  0  0  0  0  0
   18.5890   18.6431   20.7732 H   0  0  0  0  0  0  0  0  0  0  0  0
  1  2  1  0  0  0  0
  1  3  1  0  0  0  0
  1  4  1  0  0  0  0
  1  5  1  0  0  0  0
  5  6  1  0  0  0  0
  5  7  1  0  0  0  0
  7  8  1  0  0  0  0
  7  9  1  0  0  0  0
  7 10  1  0  0  0  0
  5 11  1  0  0  0  0
 11 12  1  0  0  0  0
 11 13  1  0  0  0  0
 11 14  1  0  0  0  0
 14 15  1  0  0  0  0
 14 16  1  0  0  0  0
 14 17  1  0  0  0  0
 17 18  1  0  0  0  0
 17 19  1  0  0  0  0
 17 20  1  0  0  0  0
M  END
> <VConfSearch Rank>
576

> <Conf_Id>
50

> <Delta U+W>
0.466

> <U+W>
-35.811

> <U>
22.369

> <W>
-58.180

> <W(PB)>
-60.103

> <W(SA)>
1.923

> <Valence>
2.168

> <Coulomb>
19.636

> <VdW>
0.566

> <VdW6>
-5.263

> <VdW12>
5.829

> <Bond>
0.162

> <Angle>
1.066

> <Pdih>
0.939

> <Idih>
0.000

> <Tether>
0.000

$$$$
VeraChem MOL file


 20 19  0  0  0  0  0  0  0  0999 V2000     
   20.4795   16.9453   23.7209 N   0  3  0  0  0  0  0  0  0  0  0  0
   21.3174   17.2294   24.2359 H   0  0  0  0  0  0  0  0  0  0  0  0
   20.7813   16.3399   22.9533 H   0  0  0  0  0  0  0  0  0  0  0  0
   19.9144   16.3738   24.3549 H   0  0  0  0  0  0  0  0  0  0  0  0
   19.7081   18.1348   23.2164 C   0  0  2  0  0  0  0  0  0  0  0  0
   19.4343   18.7179   24.1012 H   0  0  0  0  0  0  0  0  0  0  0  0
   18.4192   17.6678   22.5146 C   0  0  0  0  0  0  0  0  0  0  0  0
   18.6482   17.0382   21.6458 H   0  0  0  0  0  0  0  0  0  0  0  0
   17.8200   18.5161   22.1664 H   0  0  0  0  0  0  0  0  0  0  0  0
   17.7955   17.0830   23.2017 H   0  0  0  0  0  0  0  0  0  0  0  0
   20.5689   19.0335   22.2946 C   0  0  0  0  0  0  0  0  0  0  0  0
   21.6292   18.7900   22.4436 H   0  0  0  0  0  0  0  0  0  0  0  0
   20.3604   18.8119   21.2394 H   0  0  0  0  0  0  0  0  0  0  0  0
   20.4020   20.5506   22.5636 C   0  0  0  0  0  0  0  0  0  0  0  0
   21.1043   21.1001   21.9211 H   0  0  0  0  0  0  0  0  0  0  0  0
   20.6964   20.7747   23.5986 H   0  0  0  0  0  0  0  0  0  0  0  0
   18.9749   21.0844   22.3099 C   0  0  0  0  0  0  0  0  0  0  0  0
   18.6341   20.8385   21.2958 H   0  0  0  0  0  0  0  0  0  0  0  0
   18.9498   22.1768   22.4154 H   0  0  0  0  0  0  0  0  0  0  0  0
   18.2578   20.6696   23.0292 H   0  0  0  0  0  0  0  0  0  0  0  0
  1  2  1  0  0  0  0
  1  3  1  0  0  0  0
  1  4  1  0  0  0  0
  1  5  1  0  0  0  0
  5  6  1  0  0  0  0
  5  7  1  0  0  0  0
  7  8  1  0  0  0  0
  7  9  1  0  0  0  0
  7 10  1  0  0  0  0
  5 11  1  0  0  0  0
 11 12  1  0  0  0  0
 11 13  1  0  0  0  0
 11 14  1  0  0  0  0
 14 15  1  0  0  0  0
 14 16  1  0  0  0  0
 14 17  1  0  0  0  0
 17 18  1  0  0  0  0
 17 19  1  0  0  0  0
 17 20  1  0  0  0  0
M  END
> <VConfSearch Rank>
577

> <Conf_Id>
3

> <Delta U+W>
3.093

> <U+W>
-33.184

> <U>
25.256

> <W>
-58.439

> <W(PB)>
-60.337

> <W(SA)>
1.898

> <Valence>
4.963

> <Coulomb>
19.511

> <VdW>
0.782

> <VdW6>
-5.429

> <VdW12>
6.211

> <Bond>
0.174

> <Angle>
1.377

> <Pdih>
3.412

> <Idih>
0.000

> <Tether>
0.000

$$$$
VeraChem MOL file


 20 19  0  0  0  0  0  0  0  0999 V2000     
   20.3919   19.5144   24.8512 N   0  3  0  0  0  0  0  0  0  0  0  0
   20.2164   18.9397   25.6798 H   0  0  0  0  0  0  0  0  0  0  0  0
   19.9459   20.4215   25.0125 H   0  0  0  0  0  0  0  0  0  0  0  0
   21.4012   19.6740   24.8005 H   0  0  0  0  0  0  0  0  0  0  0  0
   19.8733   18.8544   23.6031 C   0  0  2  0  0  0  0  0  0  0  0  0
   18.7973   18.7221   23.7507 H   0  0  0  0  0  0  0  0  0  0  0  0
   20.5141   17.4659   23.4257 C   0  0  0  0  0  0  0  0  0  0  0  0
   20.0467   16.9146   22.6016 H   0  0  0  0  0  0  0  0  0  0  0  0
   20.3869   16.8625   24.3329 H   0  0  0  0  0  0  0  0  0  0  0  0
   21.5884   17.5477   23.2193 H   0  0  0  0  0  0  0  0  0  0  0  0
   20.0866   19.7555   22.3633 C   0  0  0  0  0  0  0  0  0  0  0  0
   19.6810   20.7525   22.5796 H   0  0  0  0  0  0  0  0  0  0  0  0
   21.1629   19.8945   22.1960 H   0  0  0  0  0  0  0  0  0  0  0  0
   19.4340   19.2368   21.0563 C   0  0  0  0  0  0  0  0  0  0  0  0
   19.9118   18.3011   20.7363 H   0  0  0  0  0  0  0  0  0  0  0  0
   19.6284   19.9624   20.2540 H   0  0  0  0  0  0  0  0  0  0  0  0
   17.9077   19.0276   21.1828 C   0  0  0  0  0  0  0  0  0  0  0  0
   17.4079   19.9504   21.5048 H   0  0  0  0  0  0  0  0  0  0  0  0
   17.6676   18.2369   21.9048 H   0  0  0  0  0  0  0  0  0  0  0  0
   17.4784   18.7340   20.2161 H   0  0  0  0  0  0  0  0  0  0  0  0
  1  2  1  0  0  0  0
  1  3  1  0  0  0  0
  1  4  1  0  0  0  0
  1  5  1  0  0  0  0
  5  6  1  0  0  0  0
  5  7  1  0  0  0  0
  7  8  1  0  0  0  0
  7  9  1  0  0  0  0
  7 10  1  0  0  0  0
  5 11  1  0  0  0  0
 11 12  1  0  0  0  0
 11 13  1  0  0  0  0
 11 14  1  0  0  0  0
 14 15  1  0  0  0  0
 14 16  1  0  0  0  0
 14 17  1  0  0  0  0
 17 18  1  0  0  0  0
 17 19  1  0  0  0  0
 17 20  1  0  0  0  0
M  END
> <VConfSearch Rank>
578

> <Conf_Id>
64

> <Delta U+W>
0.544

> <U+W>
-35.732

> <U>
22.800

> <W>
-58.532

> <W(PB)>
-60.437

> <W(SA)>
1.905

> <Valence>
2.662

> <Coulomb>
19.485

> <VdW>
0.653

> <VdW6>
-5.460

> <VdW12>
6.113

> <Bond>
0.174

> <Angle>
1.378

> <Pdih>
1.109

> <Idih>
0.000

> <Tether>
0.000

$$$$
VeraChem MOL file


 20 19  0  0  0  0  0  0  0  0999 V2000     
   20.8433   20.6966   23.1293 N   0  3  0  0  0  0  0  0  0  0  0  0
   20.2721   20.5836   23.9696 H   0  0  0  0  0  0  0  0  0  0  0  0
   20.7511   21.6696   22.8255 H   0  0  0  0  0  0  0  0  0  0  0  0
   21.8201   20.5546   23.4003 H   0  0  0  0  0  0  0  0  0  0  0  0
   20.4247   19.7398   22.0456 C   0  0  2  0  0  0  0  0  0  0  0  0
   21.0814   19.9458   21.1946 H   0  0  0  0  0  0  0  0  0  0  0  0
   18.9831   20.0222   21.5920 C   0  0  0  0  0  0  0  0  0  0  0  0
   18.2799   19.9666   22.4311 H   0  0  0  0  0  0  0  0  0  0  0  0
   18.6677   19.3060   20.8233 H   0  0  0  0  0  0  0  0  0  0  0  0
   18.9077   21.0277   21.1605 H   0  0  0  0  0  0  0  0  0  0  0  0
   20.6537   18.2603   22.4449 C   0  0  0  0  0  0  0  0  0  0  0  0
   20.5007   17.6184   21.5674 H   0  0  0  0  0  0  0  0  0  0  0  0
   21.7159   18.1502   22.7003 H   0  0  0  0  0  0  0  0  0  0  0  0
   19.8092   17.7320   23.6377 C   0  0  0  0  0  0  0  0  0  0  0  0
   19.5931   18.5374   24.3519 H   0  0  0  0  0  0  0  0  0  0  0  0
   20.4117   16.9969   24.1895 H   0  0  0  0  0  0  0  0  0  0  0  0
   18.4965   17.0370   23.2059 C   0  0  0  0  0  0  0  0  0  0  0  0
   17.8180   17.7214   22.6849 H   0  0  0  0  0  0  0  0  0  0  0  0
   17.9631   16.6469   24.0824 H   0  0  0  0  0  0  0  0  0  0  0  0
   18.7015   16.1900   22.5383 H   0  0  0  0  0  0  0  0  0  0  0  0
  1  2  1  0  0  0  0
  1  3  1  0  0  0  0
  1  4  1  0  0  0  0
  1  5  1  0  0  0  0
  5  6  1  0  0  0  0
  5  7  1  0  0  0  0
  7  8  1  0  0  0  0
  7  9  1  0  0  0  0
  7 10  1  0  0  0  0
  5 11  1  0  0  0  0
 11 12  1  0  0  0  0
 11 13  1  0  0  0  0
 11 14  1  0  0  0  0
 14 15  1  0  0  0  0
 14 16  1  0  0  0  0
 14 17  1  0  0  0  0
 17 18  1  0  0  0  0
 17 19  1  0  0  0  0
 17 20  1  0  0  0  0
M  END
> <VConfSearch Rank>
579

> <Conf_Id>
35

> <Delta U+W>
3.004

> <U+W>
-33.272

> <U>
25.367

> <W>
-58.639

> <W(PB)>
-60.512

> <W(SA)>
1.873

> <Valence>
4.943

> <Coulomb>
19.661

> <VdW>
0.764

> <VdW6>
-5.871

> <VdW12>
6.636

> <Bond>
0.230

> <Angle>
1.857

> <Pdih>
2.855

> <Idih>
0.000

> <Tether>
0.000

$$$$
VeraChem MOL file


 20 19  0  0  0  0  0  0  0  0999 V2000     
   21.3509   19.2076   23.5521 N   0  3  0  0  0  0  0  0  0  0  0  0
   22.3137   19.4760   23.3315 H   0  0  0  0  0  0  0  0  0  0  0  0
   21.3637   18.7539   24.4694 H   0  0  0  0  0  0  0  0  0  0  0  0
   20.8030   20.0653   23.6426 H   0  0  0  0  0  0  0  0  0  0  0  0
   20.7749   18.3024   22.4979 C   0  0  2  0  0  0  0  0  0  0  0  0
   21.4129   17.4131   22.5003 H   0  0  0  0  0  0  0  0  0  0  0  0
   20.8758   18.9348   21.0985 C   0  0  0  0  0  0  0  0  0  0  0  0
   20.3344   19.8867   21.0443 H   0  0  0  0  0  0  0  0  0  0  0  0
   20.4648   18.2609   20.3367 H   0  0  0  0  0  0  0  0  0  0  0  0
   21.9237   19.1296   20.8396 H   0  0  0  0  0  0  0  0  0  0  0  0
   19.3377   17.8237   22.8278 C   0  0  0  0  0  0  0  0  0  0  0  0
   19.1255   16.9502   22.1973 H   0  0  0  0  0  0  0  0  0  0  0  0
   19.3158   17.4495   23.8596 H   0  0  0  0  0  0  0  0  0  0  0  0
   18.1827   18.8448   22.6284 C   0  0  0  0  0  0  0  0  0  0  0  0
   17.2365   18.3362   22.8605 H   0  0  0  0  0  0  0  0  0  0  0  0
   18.1091   19.1352   21.5716 H   0  0  0  0  0  0  0  0  0  0  0  0
   18.2812   20.1108   23.5096 C   0  0  0  0  0  0  0  0  0  0  0  0
   18.4419   19.8507   24.5640 H   0  0  0  0  0  0  0  0  0  0  0  0
   17.3504   20.6896   23.4482 H   0  0  0  0  0  0  0  0  0  0  0  0
   19.0918   20.7705   23.1794 H   0  0  0  0  0  0  0  0  0  0  0  0
  1  2  1  0  0  0  0
  1  3  1  0  0  0  0
  1  4  1  0  0  0  0
  1  5  1  0  0  0  0
  5  6  1  0  0  0  0
  5  7  1  0  0  0  0
  7  8  1  0  0  0  0
  7  9  1  0  0  0  0
  7 10  1  0  0  0  0
  5 11  1  0  0  0  0
 11 12  1  0  0  0  0
 11 13  1  0  0  0  0
 11 14  1  0  0  0  0
 14 15  1  0  0  0  0
 14 16  1  0  0  0  0
 14 17  1  0  0  0  0
 17 18  1  0  0  0  0
 17 19  1  0  0  0  0
 17 20  1  0  0  0  0
M  END
> <VConfSearch Rank>
580

> <Conf_Id>
55

> <Delta U+W>
2.767

> <U+W>
-33.509

> <U>
24.552

> <W>
-58.061

> <W(PB)>
-59.930

> <W(SA)>
1.869

> <Valence>
3.726

> <Coulomb>
20.219

> <VdW>
0.606

> <VdW6>
-6.395

> <VdW12>
7.001

> <Bond>
0.241

> <Angle>
2.098

> <Pdih>
1.387

> <Idih>
0.000

> <Tether>
0.000

$$$$
VeraChem MOL file


 20 19  0  0  0  0  0  0  0  0999 V2000     
   18.1317   19.2743   21.6316 N   0  3  0  0  0  0  0  0  0  0  0  0
   18.1327   18.3846   21.1266 H   0  0  0  0  0  0  0  0  0  0  0  0
   17.6227   19.9510   21.0566 H   0  0  0  0  0  0  0  0  0  0  0  0
   17.5929   19.1397   22.4908 H   0  0  0  0  0  0  0  0  0  0  0  0
   19.5313   19.7434   21.9251 C   0  0  2  0  0  0  0  0  0  0  0  0
   19.4390   20.6905   22.4658 H   0  0  0  0  0  0  0  0  0  0  0  0
   20.2973   20.0079   20.6185 C   0  0  0  0  0  0  0  0  0  0  0  0
   19.7655   20.7394   19.9977 H   0  0  0  0  0  0  0  0  0  0  0  0
   20.4171   19.0869   20.0345 H   0  0  0  0  0  0  0  0  0  0  0  0
   21.2956   20.4125   20.8266 H   0  0  0  0  0  0  0  0  0  0  0  0
   20.3145   18.7536   22.8156 C   0  0  0  0  0  0  0  0  0  0  0  0
   20.4009   17.7853   22.3049 H   0  0  0  0  0  0  0  0  0  0  0  0
   21.3378   19.1297   22.9480 H   0  0  0  0  0  0  0  0  0  0  0  0
   19.6723   18.5542   24.2096 C   0  0  0  0  0  0  0  0  0  0  0  0
   18.6666   18.1248   24.1066 H   0  0  0  0  0  0  0  0  0  0  0  0
   19.5534   19.5281   24.7052 H   0  0  0  0  0  0  0  0  0  0  0  0
   20.5247   17.6272   25.1026 C   0  0  0  0  0  0  0  0  0  0  0  0
   20.6365   16.6343   24.6478 H   0  0  0  0  0  0  0  0  0  0  0  0
   20.0543   17.4960   26.0857 H   0  0  0  0  0  0  0  0  0  0  0  0
   21.5274   18.0446   25.2628 H   0  0  0  0  0  0  0  0  0  0  0  0
  1  2  1  0  0  0  0
  1  3  1  0  0  0  0
  1  4  1  0  0  0  0
  1  5  1  0  0  0  0
  5  6  1  0  0  0  0
  5  7  1  0  0  0  0
  7  8  1  0  0  0  0
  7  9  1  0  0  0  0
  7 10  1  0  0  0  0
  5 11  1  0  0  0  0
 11 12  1  0  0  0  0
 11 13  1  0  0  0  0
 11 14  1  0  0  0  0
 14 15  1  0  0  0  0
 14 16  1  0  0  0  0
 14 17  1  0  0  0  0
 17 18  1  0  0  0  0
 17 19  1  0  0  0  0
 17 20  1  0  0  0  0
M  END
> <VConfSearch Rank>
581

> <Conf_Id>
74

> <Delta U+W>
0.000

> <U+W>
-36.276

> <U>
22.080

> <W>
-58.356

> <W(PB)>
-60.289

> <W(SA)>
1.932

> <Valence>
1.885

> <Coulomb>
19.559

> <VdW>
0.637

> <VdW6>
-4.482

> <VdW12>
5.119

> <Bond>
0.136

> <Angle>
0.867

> <Pdih>
0.882

> <Idih>
0.000

> <Tether>
0.000

$$$$
VeraChem MOL file


 20 19  0  0  0  0  0  0  0  0999 V2000     
   20.6769   17.5536   21.0068 N   0  3  0  0  0  0  0  0  0  0  0  0
   21.5854   17.3085   21.4097 H   0  0  0  0  0  0  0  0  0  0  0  0
   20.8385   18.2828   20.3076 H   0  0  0  0  0  0  0  0  0  0  0  0
   20.3337   16.7269   20.5103 H   0  0  0  0  0  0  0  0  0  0  0  0
   19.7047   18.0053   22.0619 C   0  0  2  0  0  0  0  0  0  0  0  0
   19.5931   17.1673   22.7570 H   0  0  0  0  0  0  0  0  0  0  0  0
   18.3313   18.3000   21.4314 C   0  0  0  0  0  0  0  0  0  0  0  0
   17.9873   17.4445   20.8374 H   0  0  0  0  0  0  0  0  0  0  0  0
   18.3767   19.1754   20.7717 H   0  0  0  0  0  0  0  0  0  0  0  0
   17.5714   18.4868   22.1988 H   0  0  0  0  0  0  0  0  0  0  0  0
   20.2567   19.2164   22.8493 C   0  0  0  0  0  0  0  0  0  0  0  0
   21.2774   18.9807   23.1785 H   0  0  0  0  0  0  0  0  0  0  0  0
   20.3384   20.0850   22.1824 H   0  0  0  0  0  0  0  0  0  0  0  0
   19.4137   19.5909   24.0928 C   0  0  0  0  0  0  0  0  0  0  0  0
   19.2786   18.7052   24.7295 H   0  0  0  0  0  0  0  0  0  0  0  0
   18.4114   19.9206   23.7886 H   0  0  0  0  0  0  0  0  0  0  0  0
   20.0797   20.7151   24.9151 C   0  0  0  0  0  0  0  0  0  0  0  0
   21.0700   20.4081   25.2761 H   0  0  0  0  0  0  0  0  0  0  0  0
   19.4675   20.9703   25.7899 H   0  0  0  0  0  0  0  0  0  0  0  0
   20.2023   21.6250   24.3132 H   0  0  0  0  0  0  0  0  0  0  0  0
  1  2  1  0  0  0  0
  1  3  1  0  0  0  0
  1  4  1  0  0  0  0
  1  5  1  0  0  0  0
  5  6  1  0  0  0  0
  5  7  1  0  0  0  0
  7  8  1  0  0  0  0
  7  9  1  0  0  0  0
  7 10  1  0  0  0  0
  5 11  1  0  0  0  0
 11 12  1  0  0  0  0
 11 13  1  0  0  0  0
 11 14  1  0  0  0  0
 14 15  1  0  0  0  0
 14 16  1  0  0  0  0
 14 17  1  0  0  0  0
 17 18  1  0  0  0  0
 17 19  1  0  0  0  0
 17 20  1  0  0  0  0
M  END
> <VConfSearch Rank>
582

> <Conf_Id>
80

> <Delta U+W>
0.460

> <U+W>
-35.817

> <U>
22.495

> <W>
-58.311

> <W(PB)>
-60.259

> <W(SA)>
1.948

> <Valence>
2.419

> <Coulomb>
19.304

> <VdW>
0.772

> <VdW6>
-4.635

> <VdW12>
5.407

> <Bond>
0.149

> <Angle>
1.142

> <Pdih>
1.129

> <Idih>
0.000

> <Tether>
0.000

$$$$
VeraChem MOL file


 20 19  0  0  0  0  0  0  0  0999 V2000     
   19.8526   16.7098   23.7414 N   0  3  0  0  0  0  0  0  0  0  0  0
   20.8157   16.3660   23.7871 H   0  0  0  0  0  0  0  0  0  0  0  0
   19.3923   16.2297   22.9640 H   0  0  0  0  0  0  0  0  0  0  0  0
   19.3846   16.4130   24.6020 H   0  0  0  0  0  0  0  0  0  0  0  0
   19.8029   18.2040   23.5747 C   0  0  2  0  0  0  0  0  0  0  0  0
   20.3093   18.6265   24.4481 H   0  0  0  0  0  0  0  0  0  0  0  0
   18.3444   18.6926   23.5851 C   0  0  0  0  0  0  0  0  0  0  0  0
   17.8057   18.2863   24.4499 H   0  0  0  0  0  0  0  0  0  0  0  0
   17.8139   18.3821   22.6764 H   0  0  0  0  0  0  0  0  0  0  0  0
   18.2968   19.7848   23.6615 H   0  0  0  0  0  0  0  0  0  0  0  0
   20.5771   18.6480   22.3095 C   0  0  0  0  0  0  0  0  0  0  0  0
   21.5877   18.2236   22.3760 H   0  0  0  0  0  0  0  0  0  0  0  0
   20.1254   18.2035   21.4128 H   0  0  0  0  0  0  0  0  0  0  0  0
   20.7206   20.1829   22.1337 C   0  0  0  0  0  0  0  0  0  0  0  0
   21.7130   20.3960   21.7120 H   0  0  0  0  0  0  0  0  0  0  0  0
   20.6957   20.6837   23.1117 H   0  0  0  0  0  0  0  0  0  0  0  0
   19.6608   20.7953   21.1877 C   0  0  0  0  0  0  0  0  0  0  0  0
   19.7287   20.3537   20.1849 H   0  0  0  0  0  0  0  0  0  0  0  0
   19.8167   21.8770   21.0852 H   0  0  0  0  0  0  0  0  0  0  0  0
   18.6401   20.6408   21.5550 H   0  0  0  0  0  0  0  0  0  0  0  0
  1  2  1  0  0  0  0
  1  3  1  0  0  0  0
  1  4  1  0  0  0  0
  1  5  1  0  0  0  0
  5  6  1  0  0  0  0
  5  7  1  0  0  0  0
  7  8  1  0  0  0  0
  7  9  1  0  0  0  0
  7 10  1  0  0  0  0
  5 11  1  0  0  0  0
 11 12  1  0  0  0  0
 11 13  1  0  0  0  0
 11 14  1  0  0  0  0
 14 15  1  0  0  0  0
 14 16  1  0  0  0  0
 14 17  1  0  0  0  0
 17 18  1  0  0  0  0
 17 19  1  0  0  0  0
 17 20  1  0  0  0  0
M  END
> <VConfSearch Rank>
583

> <Conf_Id>
52

> <Delta U+W>
2.995

> <U+W>
-33.282

> <U>
25.224

> <W>
-58.506

> <W(PB)>
-60.411

> <W(SA)>
1.905

> <Valence>
4.945

> <Coulomb>
19.467

> <VdW>
0.813

> <VdW6>
-5.458

> <VdW12>
6.270

> <Bond>
0.200

> <Angle>
1.675

> <Pdih>
3.070

> <Idih>
0.000

> <Tether>
0.000

$$$$
VeraChem MOL file


 20 19  0  0  0  0  0  0  0  0999 V2000     
   18.1643   19.1538   22.4365 N   0  3  0  0  0  0  0  0  0  0  0  0
   17.8423   19.8943   23.0645 H   0  0  0  0  0  0  0  0  0  0  0  0
   17.3452   18.6006   22.1703 H   0  0  0  0  0  0  0  0  0  0  0  0
   18.5214   19.6036   21.5909 H   0  0  0  0  0  0  0  0  0  0  0  0
   19.2186   18.3015   23.0887 C   0  0  2  0  0  0  0  0  0  0  0  0
   19.4759   17.5085   22.3796 H   0  0  0  0  0  0  0  0  0  0  0  0
   18.6476   17.6454   24.3573 C   0  0  0  0  0  0  0  0  0  0  0  0
   18.3866   18.3989   25.1109 H   0  0  0  0  0  0  0  0  0  0  0  0
   19.3750   16.9548   24.8018 H   0  0  0  0  0  0  0  0  0  0  0  0
   17.7444   17.0683   24.1237 H   0  0  0  0  0  0  0  0  0  0  0  0
   20.5064   19.0915   23.4228 C   0  0  0  0  0  0  0  0  0  0  0  0
   20.2481   20.0354   23.9205 H   0  0  0  0  0  0  0  0  0  0  0  0
   21.0895   18.5167   24.1547 H   0  0  0  0  0  0  0  0  0  0  0  0
   21.4354   19.3634   22.2106 C   0  0  0  0  0  0  0  0  0  0  0  0
   21.7274   18.4107   21.7468 H   0  0  0  0  0  0  0  0  0  0  0  0
   22.3649   19.8139   22.5862 H   0  0  0  0  0  0  0  0  0  0  0  0
   20.8412   20.3003   21.1343 C   0  0  0  0  0  0  0  0  0  0  0  0
   21.6208   20.6022   20.4227 H   0  0  0  0  0  0  0  0  0  0  0  0
   20.4296   21.2139   21.5829 H   0  0  0  0  0  0  0  0  0  0  0  0
   20.0556   19.8027   20.5542 H   0  0  0  0  0  0  0  0  0  0  0  0
  1  2  1  0  0  0  0
  1  3  1  0  0  0  0
  1  4  1  0  0  0  0
  1  5  1  0  0  0  0
  5  6  1  0  0  0  0
  5  7  1  0  0  0  0
  7  8  1  0  0  0  0
  7  9  1  0  0  0  0
  7 10  1  0  0  0  0
  5 11  1  0  0  0  0
 11 12  1  0  0  0  0
 11 13  1  0  0  0  0
 11 14  1  0  0  0  0
 14 15  1  0  0  0  0
 14 16  1  0  0  0  0
 14 17  1  0  0  0  0
 17 18  1  0  0  0  0
 17 19  1  0  0  0  0
 17 20  1  0  0  0  0
M  END
> <VConfSearch Rank>
584

> <Conf_Id>
54

> <Delta U+W>
2.752

> <U+W>
-33.525

> <U>
24.337

> <W>
-57.862

> <W(PB)>
-59.764

> <W(SA)>
1.901

> <Valence>
3.593

> <Coulomb>
20.067

> <VdW>
0.677

> <VdW6>
-5.466

> <VdW12>
6.144

> <Bond>
0.191

> <Angle>
1.557

> <Pdih>
1.845

> <Idih>
0.000

> <Tether>
0.000

$$$$
VeraChem MOL file


 20 19  0  0  0  0  0  0  0  0999 V2000     
   20.2448   20.6273   21.5863 N   0  3  0  0  0  0  0  0  0  0  0  0
   20.9871   21.3025   21.3844 H   0  0  0  0  0  0  0  0  0  0  0  0
   19.3517   21.1110   21.4600 H   0  0  0  0  0  0  0  0  0  0  0  0
   20.2994   19.8925   20.8774 H   0  0  0  0  0  0  0  0  0  0  0  0
   20.3767   20.0629   22.9749 C   0  0  2  0  0  0  0  0  0  0  0  0
   20.3241   20.9184   23.6555 H   0  0  0  0  0  0  0  0  0  0  0  0
   21.7500   19.3967   23.1729 C   0  0  0  0  0  0  0  0  0  0  0  0
   21.8414   18.9850   24.1856 H   0  0  0  0  0  0  0  0  0  0  0  0
   22.5547   20.1298   23.0388 H   0  0  0  0  0  0  0  0  0  0  0  0
   21.9147   18.5844   22.4552 H   0  0  0  0  0  0  0  0  0  0  0  0
   19.2110   19.1134   23.3421 C   0  0  0  0  0  0  0  0  0  0  0  0
   19.3199   18.8107   24.3920 H   0  0  0  0  0  0  0  0  0  0  0  0
   18.2720   19.6798   23.2880 H   0  0  0  0  0  0  0  0  0  0  0  0
   19.0932   17.8477   22.4542 C   0  0  0  0  0  0  0  0  0  0  0  0
   20.0045   17.2402   22.5354 H   0  0  0  0  0  0  0  0  0  0  0  0
   18.9931   18.1329   21.3984 H   0  0  0  0  0  0  0  0  0  0  0  0
   17.8799   16.9831   22.8587 C   0  0  0  0  0  0  0  0  0  0  0  0
   17.8108   16.0905   22.2235 H   0  0  0  0  0  0  0  0  0  0  0  0
   16.9420   17.5440   22.7535 H   0  0  0  0  0  0  0  0  0  0  0  0
   17.9629   16.6486   23.9010 H   0  0  0  0  0  0  0  0  0  0  0  0
  1  2  1  0  0  0  0
  1  3  1  0  0  0  0
  1  4  1  0  0  0  0
  1  5  1  0  0  0  0
  5  6  1  0  0  0  0
  5  7  1  0  0  0  0
  7  8  1  0  0  0  0
  7  9  1  0  0  0  0
  7 10  1  0  0  0  0
  5 11  1  0  0  0  0
 11 12  1  0  0  0  0
 11 13  1  0  0  0  0
 11 14  1  0  0  0  0
 14 15  1  0  0  0  0
 14 16  1  0  0  0  0
 14 17  1  0  0  0  0
 17 18  1  0  0  0  0
 17 19  1  0  0  0  0
 17 20  1  0  0  0  0
M  END
> <VConfSearch Rank>
585

> <Conf_Id>
63

> <Delta U+W>
0.420

> <U+W>
-35.856

> <U>
22.625

> <W>
-58.481

> <W(PB)>
-60.400

> <W(SA)>
1.919

> <Valence>
2.404

> <Coulomb>
19.464

> <VdW>
0.757

> <VdW6>
-5.074

> <VdW12>
5.830

> <Bond>
0.172

> <Angle>
1.207

> <Pdih>
1.025

> <Idih>
0.000

> <Tether>
0.000

$$$$
VeraChem MOL file


 20 19  0  0  0  0  0  0  0  0999 V2000     
   19.2741   20.4944   21.9390 N   0  3  0  0  0  0  0  0  0  0  0  0
   20.2114   20.7933   22.2200 H   0  0  0  0  0  0  0  0  0  0  0  0
   18.6011   21.0294   22.4932 H   0  0  0  0  0  0  0  0  0  0  0  0
   19.1477   20.7646   20.9599 H   0  0  0  0  0  0  0  0  0  0  0  0
   19.0921   19.0131   22.1308 C   0  0  2  0  0  0  0  0  0  0  0  0
   19.8430   18.5203   21.5059 H   0  0  0  0  0  0  0  0  0  0  0  0
   17.7018   18.5696   21.6472 C   0  0  0  0  0  0  0  0  0  0  0  0
   17.5513   18.8421   20.5954 H   0  0  0  0  0  0  0  0  0  0  0  0
   16.9064   19.0393   22.2391 H   0  0  0  0  0  0  0  0  0  0  0  0
   17.5901   17.4812   21.7278 H   0  0  0  0  0  0  0  0  0  0  0  0
   19.3175   18.5746   23.5957 C   0  0  0  0  0  0  0  0  0  0  0  0
   18.5619   19.0468   24.2376 H   0  0  0  0  0  0  0  0  0  0  0  0
   19.1525   17.4918   23.6739 H   0  0  0  0  0  0  0  0  0  0  0  0
   20.7281   18.9033   24.1472 C   0  0  0  0  0  0  0  0  0  0  0  0
   20.7881   18.5591   25.1892 H   0  0  0  0  0  0  0  0  0  0  0  0
   20.8795   19.9908   24.1798 H   0  0  0  0  0  0  0  0  0  0  0  0
   21.8653   18.2423   23.3353 C   0  0  0  0  0  0  0  0  0  0  0  0
   21.7352   17.1532   23.2888 H   0  0  0  0  0  0  0  0  0  0  0  0
   22.8382   18.4433   23.8024 H   0  0  0  0  0  0  0  0  0  0  0  0
   21.9061   18.6267   22.3084 H   0  0  0  0  0  0  0  0  0  0  0  0
  1  2  1  0  0  0  0
  1  3  1  0  0  0  0
  1  4  1  0  0  0  0
  1  5  1  0  0  0  0
  5  6  1  0  0  0  0
  5  7  1  0  0  0  0
  7  8  1  0  0  0  0
  7  9  1  0  0  0  0
  7 10  1  0  0  0  0
  5 11  1  0  0  0  0
 11 12  1  0  0  0  0
 11 13  1  0  0  0  0
 11 14  1  0  0  0  0
 14 15  1  0  0  0  0
 14 16  1  0  0  0  0
 14 17  1  0  0  0  0
 17 18  1  0  0  0  0
 17 19  1  0  0  0  0
 17 20  1  0  0  0  0
M  END
> <VConfSearch Rank>
586

> <Conf_Id>
50

> <Delta U+W>
0.466

> <U+W>
-35.811

> <U>
22.369

> <W>
-58.180

> <W(PB)>
-60.103

> <W(SA)>
1.923

> <Valence>
2.168

> <Coulomb>
19.636

> <VdW>
0.566

> <VdW6>
-5.263

> <VdW12>
5.829

> <Bond>
0.162

> <Angle>
1.066

> <Pdih>
0.939

> <Idih>
0.000

> <Tether>
0.000

$$$$
VeraChem MOL file


 20 19  0  0  0  0  0  0  0  0999 V2000     
   20.9211   20.8498   22.6976 N   0  3  0  0  0  0  0  0  0  0  0  0
   21.8076   20.6146   23.1524 H   0  0  0  0  0  0  0  0  0  0  0  0
   20.4361   21.5208   23.2987 H   0  0  0  0  0  0  0  0  0  0  0  0
   21.1484   21.3326   21.8241 H   0  0  0  0  0  0  0  0  0  0  0  0
   20.0833   19.6249   22.4480 C   0  0  2  0  0  0  0  0  0  0  0  0
   20.6820   18.9722   21.8051 H   0  0  0  0  0  0  0  0  0  0  0  0
   18.7956   20.0116   21.6967 C   0  0  0  0  0  0  0  0  0  0  0  0
   18.1861   20.7058   22.2886 H   0  0  0  0  0  0  0  0  0  0  0  0
   18.1813   19.1332   21.4714 H   0  0  0  0  0  0  0  0  0  0  0  0
   19.0359   20.4996   20.7442 H   0  0  0  0  0  0  0  0  0  0  0  0
   19.7741   18.8590   23.7579 C   0  0  0  0  0  0  0  0  0  0  0  0
   20.4711   19.1884   24.5399 H   0  0  0  0  0  0  0  0  0  0  0  0
   18.7727   19.1182   24.1266 H   0  0  0  0  0  0  0  0  0  0  0  0
   19.9146   17.3207   23.6335 C   0  0  0  0  0  0  0  0  0  0  0  0
   19.7541   16.8725   24.6241 H   0  0  0  0  0  0  0  0  0  0  0  0
   20.9454   17.0678   23.3478 H   0  0  0  0  0  0  0  0  0  0  0  0
   18.9322   16.6752   22.6312 C   0  0  0  0  0  0  0  0  0  0  0  0
   17.8939   16.9444   22.8646 H   0  0  0  0  0  0  0  0  0  0  0  0
   19.0104   15.5809   22.6686 H   0  0  0  0  0  0  0  0  0  0  0  0
   19.1497   16.9839   21.6012 H   0  0  0  0  0  0  0  0  0  0  0  0
  1  2  1  0  0  0  0
  1  3  1  0  0  0  0
  1  4  1  0  0  0  0
  1  5  1  0  0  0  0
  5  6  1  0  0  0  0
  5  7  1  0  0  0  0
  7  8  1  0  0  0  0
  7  9  1  0  0  0  0
  7 10  1  0  0  0  0
  5 11  1  0  0  0  0
 11 12  1  0  0  0  0
 11 13  1  0  0  0  0
 11 14  1  0  0  0  0
 14 15  1  0  0  0  0
 14 16  1  0  0  0  0
 14 17  1  0  0  0  0
 17 18  1  0  0  0  0
 17 19  1  0  0  0  0
 17 20  1  0  0  0  0
M  END
> <VConfSearch Rank>
587

> <Conf_Id>
3

> <Delta U+W>
3.093

> <U+W>
-33.184

> <U>
25.256

> <W>
-58.439

> <W(PB)>
-60.337

> <W(SA)>
1.898

> <Valence>
4.963

> <Coulomb>
19.511

> <VdW>
0.782

> <VdW6>
-5.429

> <VdW12>
6.211

> <Bond>
0.174

> <Angle>
1.377

> <Pdih>
3.412

> <Idih>
0.000

> <Tether>
0.000

$$$$
VeraChem MOL file


 20 19  0  0  0  0  0  0  0  0999 V2000     
   17.5801   18.5404   23.5693 N   0  3  0  0  0  0  0  0  0  0  0  0
   16.8765   18.0045   23.0541 H   0  0  0  0  0  0  0  0  0  0  0  0
   17.1994   19.4798   23.7128 H   0  0  0  0  0  0  0  0  0  0  0  0
   17.6788   18.1059   24.4902 H   0  0  0  0  0  0  0  0  0  0  0  0
   18.8912   18.5790   22.8331 C   0  0  2  0  0  0  0  0  0  0  0  0
   18.6870   19.0522   21.8680 H   0  0  0  0  0  0  0  0  0  0  0  0
   19.4028   17.1501   22.5753 C   0  0  0  0  0  0  0  0  0  0  0  0
   20.2822   17.1545   21.9209 H   0  0  0  0  0  0  0  0  0  0  0  0
   18.6324   16.5470   22.0793 H   0  0  0  0  0  0  0  0  0  0  0  0
   19.6747   16.6503   23.5133 H   0  0  0  0  0  0  0  0  0  0  0  0
   19.9315   19.4416   23.5868 C   0  0  0  0  0  0  0  0  0  0  0  0
   19.4817   20.4176   23.8119 H   0  0  0  0  0  0  0  0  0  0  0  0
   20.1535   18.9778   24.5571 H   0  0  0  0  0  0  0  0  0  0  0  0
   21.2598   19.6812   22.8245 C   0  0  0  0  0  0  0  0  0  0  0  0
   21.8038   18.7353   22.6990 H   0  0  0  0  0  0  0  0  0  0  0  0
   21.9082   20.3206   23.4398 H   0  0  0  0  0  0  0  0  0  0  0  0
   21.0555   20.3531   21.4476 C   0  0  0  0  0  0  0  0  0  0  0  0
   20.5104   21.3007   21.5475 H   0  0  0  0  0  0  0  0  0  0  0  0
   20.4951   19.7051   20.7618 H   0  0  0  0  0  0  0  0  0  0  0  0
   22.0237   20.5716   20.9787 H   0  0  0  0  0  0  0  0  0  0  0  0
  1  2  1  0  0  0  0
  1  3  1  0  0  0  0
  1  4  1  0  0  0  0
  1  5  1  0  0  0  0
  5  6  1  0  0  0  0
  5  7  1  0  0  0  0
  7  8  1  0  0  0  0
  7  9  1  0  0  0  0
  7 10  1  0  0  0  0
  5 11  1  0  0  0  0
 11 12  1  0  0  0  0
 11 13  1  0  0  0  0
 11 14  1  0  0  0  0
 14 15  1  0  0  0  0
 14 16  1  0  0  0  0
 14 17  1  0  0  0  0
 17 18  1  0  0  0  0
 17 19  1  0  0  0  0
 17 20  1  0  0  0  0
M  END
> <VConfSearch Rank>
588

> <Conf_Id>
64

> <Delta U+W>
0.544

> <U+W>
-35.732

> <U>
22.800

> <W>
-58.532

> <W(PB)>
-60.437

> <W(SA)>
1.905

> <Valence>
2.662

> <Coulomb>
19.485

> <VdW>
0.653

> <VdW6>
-5.460

> <VdW12>
6.113

> <Bond>
0.174

> <Angle>
1.378

> <Pdih>
1.109

> <Idih>
0.000

> <Tether>
0.000

$$$$
VeraChem MOL file


 20 19  0  0  0  0  0  0  0  0999 V2000     
   19.1185   17.1265   21.8040 N   0  3  0  0  0  0  0  0  0  0  0  0
   19.6998   17.5270   21.0643 H   0  0  0  0  0  0  0  0  0  0  0  0
   18.2375   16.8316   21.3744 H   0  0  0  0  0  0  0  0  0  0  0  0
   19.5891   16.2825   22.1414 H   0  0  0  0  0  0  0  0  0  0  0  0
   18.8854   18.1128   22.9164 C   0  0  2  0  0  0  0  0  0  0  0  0
   18.2506   17.5981   23.6445 H   0  0  0  0  0  0  0  0  0  0  0  0
   18.1038   19.3360   22.4097 C   0  0  0  0  0  0  0  0  0  0  0  0
   18.6220   19.8272   21.5779 H   0  0  0  0  0  0  0  0  0  0  0  0
   17.9598   20.0685   23.2134 H   0  0  0  0  0  0  0  0  0  0  0  0
   17.1115   19.0350   22.0524 H   0  0  0  0  0  0  0  0  0  0  0  0
   20.1957   18.4945   23.6501 C   0  0  0  0  0  0  0  0  0  0  0  0
   19.9532   19.0711   24.5524 H   0  0  0  0  0  0  0  0  0  0  0  0
   20.6494   17.5641   24.0162 H   0  0  0  0  0  0  0  0  0  0  0  0
   21.2577   19.2553   22.8083 C   0  0  0  0  0  0  0  0  0  0  0  0
   21.2055   18.9601   21.7521 H   0  0  0  0  0  0  0  0  0  0  0  0
   22.2557   18.9520   23.1545 H   0  0  0  0  0  0  0  0  0  0  0  0
   21.1615   20.7939   22.9364 C   0  0  0  0  0  0  0  0  0  0  0  0
   20.2056   21.1808   22.5671 H   0  0  0  0  0  0  0  0  0  0  0  0
   21.9592   21.2772   22.3575 H   0  0  0  0  0  0  0  0  0  0  0  0
   21.2731   21.1089   23.9820 H   0  0  0  0  0  0  0  0  0  0  0  0
  1  2  1  0  0  0  0
  1  3  1  0  0  0  0
  1  4  1  0  0  0  0
  1  5  1  0  0  0  0
  5  6  1  0  0  0  0
  5  7  1  0  0  0  0
  7  8  1  0  0  0  0
  7  9  1  0  0  0  0
  7 10  1  0  0  0  0
  5 11  1  0  0  0  0
 11 12  1  0  0  0  0
 11 13  1  0  0  0  0
 11 14  1  0  0  0  0
 14 15  1  0  0  0  0
 14 16  1  0  0  0  0
 14 17  1  0  0  0  0
 17 18  1  0  0  0  0
 17 19  1  0  0  0  0
 17 20  1  0  0  0  0
M  END
> <VConfSearch Rank>
589

> <Conf_Id>
35

> <Delta U+W>
3.004

> <U+W>
-33.272

> <U>
25.367

> <W>
-58.639

> <W(PB)>
-60.512

> <W(SA)>
1.873

> <Valence>
4.943

> <Coulomb>
19.661

> <VdW>
0.764

> <VdW6>
-5.871

> <VdW12>
6.636

> <Bond>
0.230

> <Angle>
1.857

> <Pdih>
2.855

> <Idih>
0.000

> <Tether>
0.000

$$$$
VeraChem MOL file


 20 19  0  0  0  0  0  0  0  0999 V2000     
   18.6977   19.6372   21.4705 N   0  3  0  0  0  0  0  0  0  0  0  0
   17.9980   20.3803   21.3941 H   0  0  0  0  0  0  0  0  0  0  0  0
   18.5403   18.9895   20.6938 H   0  0  0  0  0  0  0  0  0  0  0  0
   19.6170   20.0616   21.3334 H   0  0  0  0  0  0  0  0  0  0  0  0
   18.6148   18.9353   22.7983 C   0  0  2  0  0  0  0  0  0  0  0  0
   17.6116   18.4990   22.8326 H   0  0  0  0  0  0  0  0  0  0  0  0
   18.7216   19.9306   23.9672 C   0  0  0  0  0  0  0  0  0  0  0  0
   19.6703   20.4800   23.9458 H   0  0  0  0  0  0  0  0  0  0  0  0
   18.6470   19.4095   24.9297 H   0  0  0  0  0  0  0  0  0  0  0  0
   17.9079   20.6646   23.9225 H   0  0  0  0  0  0  0  0  0  0  0  0
   19.6187   17.7612   22.9282 C   0  0  0  0  0  0  0  0  0  0  0  0
   19.2844   17.1288   23.7612 H   0  0  0  0  0  0  0  0  0  0  0  0
   19.5431   17.1283   22.0344 H   0  0  0  0  0  0  0  0  0  0  0  0
   21.1103   18.1225   23.1756 C   0  0  0  0  0  0  0  0  0  0  0  0
   21.6723   17.1848   23.2879 H   0  0  0  0  0  0  0  0  0  0  0  0
   21.2211   18.6485   24.1335 H   0  0  0  0  0  0  0  0  0  0  0  0
   21.7692   18.9504   22.0489 C   0  0  0  0  0  0  0  0  0  0  0  0
   21.6000   18.4913   21.0661 H   0  0  0  0  0  0  0  0  0  0  0  0
   22.8541   19.0093   22.2057 H   0  0  0  0  0  0  0  0  0  0  0  0
   21.3913   19.9790   22.0298 H   0  0  0  0  0  0  0  0  0  0  0  0
  1  2  1  0  0  0  0
  1  3  1  0  0  0  0
  1  4  1  0  0  0  0
  1  5  1  0  0  0  0
  5  6  1  0  0  0  0
  5  7  1  0  0  0  0
  7  8  1  0  0  0  0
  7  9  1  0  0  0  0
  7 10  1  0  0  0  0
  5 11  1  0  0  0  0
 11 12  1  0  0  0  0
 11 13  1  0  0  0  0
 11 14  1  0  0  0  0
 14 15  1  0  0  0  0
 14 16  1  0  0  0  0
 14 17  1  0  0  0  0
 17 18  1  0  0  0  0
 17 19  1  0  0  0  0
 17 20  1  0  0  0  0
M  END
> <VConfSearch Rank>
590

> <Conf_Id>
55

> <Delta U+W>
2.767

> <U+W>
-33.509

> <U>
24.552

> <W>
-58.061

> <W(PB)>
-59.930

> <W(SA)>
1.869

> <Valence>
3.726

> <Coulomb>
20.219

> <VdW>
0.606

> <VdW6>
-6.395

> <VdW12>
7.001

> <Bond>
0.241

> <Angle>
2.098

> <Pdih>
1.387

> <Idih>
0.000

> <Tether>
0.000

$$$$
VeraChem MOL file


 20 19  0  0  0  0  0  0  0  0999 V2000     
   19.7988   20.3275   21.3033 N   0  3  0  0  0  0  0  0  0  0  0  0
   20.2053   21.0810   21.8631 H   0  0  0  0  0  0  0  0  0  0  0  0
   19.2864   20.7629   20.5316 H   0  0  0  0  0  0  0  0  0  0  0  0
   20.5718   19.7973   20.8935 H   0  0  0  0  0  0  0  0  0  0  0  0
   18.9028   19.4467   22.1317 C   0  0  2  0  0  0  0  0  0  0  0  0
   18.5167   18.6717   21.4622 H   0  0  0  0  0  0  0  0  0  0  0  0
   17.7100   20.2496   22.6765 C   0  0  0  0  0  0  0  0  0  0  0  0
   17.1474   20.7136   21.8571 H   0  0  0  0  0  0  0  0  0  0  0  0
   18.0429   21.0445   23.3556 H   0  0  0  0  0  0  0  0  0  0  0  0
   17.0194   19.5980   23.2261 H   0  0  0  0  0  0  0  0  0  0  0  0
   19.6565   18.7536   23.2883 C   0  0  0  0  0  0  0  0  0  0  0  0
   20.0751   19.5116   23.9637 H   0  0  0  0  0  0  0  0  0  0  0  0
   18.9383   18.1702   23.8798 H   0  0  0  0  0  0  0  0  0  0  0  0
   20.7819   17.8105   22.7988 C   0  0  0  0  0  0  0  0  0  0  0  0
   21.5441   18.3810   22.2510 H   0  0  0  0  0  0  0  0  0  0  0  0
   20.3682   17.0745   22.0950 H   0  0  0  0  0  0  0  0  0  0  0  0
   21.4568   17.0707   23.9737 C   0  0  0  0  0  0  0  0  0  0  0  0
   21.9072   17.7798   24.6804 H   0  0  0  0  0  0  0  0  0  0  0  0
   22.2524   16.4081   23.6089 H   0  0  0  0  0  0  0  0  0  0  0  0
   20.7320   16.4552   24.5224 H   0  0  0  0  0  0  0  0  0  0  0  0
  1  2  1  0  0  0  0
  1  3  1  0  0  0  0
  1  4  1  0  0  0  0
  1  5  1  0  0  0  0
  5  6  1  0  0  0  0
  5  7  1  0  0  0  0
  7  8  1  0  0  0  0
  7  9  1  0  0  0  0
  7 10  1  0  0  0  0
  5 11  1  0  0  0  0
 11 12  1  0  0  0  0
 11 13  1  0  0  0  0
 11 14  1  0  0  0  0
 14 15  1  0  0  0  0
 14 16  1  0  0  0  0
 14 17  1  0  0  0  0
 17 18  1  0  0  0  0
 17 19  1  0  0  0  0
 17 20  1  0  0  0  0
M  END
> <VConfSearch Rank>
591

> <Conf_Id>
74

> <Delta U+W>
0.000

> <U+W>
-36.276

> <U>
22.080

> <W>
-58.356

> <W(PB)>
-60.289

> <W(SA)>
1.932

> <Valence>
1.885

> <Coulomb>
19.559

> <VdW>
0.637

> <VdW6>
-4.482

> <VdW12>
5.119

> <Bond>
0.136

> <Angle>
0.867

> <Pdih>
0.882

> <Idih>
0.000

> <Tether>
0.000

$$$$
VeraChem MOL file


 20 19  0  0  0  0  0  0  0  0999 V2000     
   20.2735   18.8757   20.3901 N   0  3  0  0  0  0  0  0  0  0  0  0
   19.8579   17.9855   20.1027 H   0  0  0  0  0  0  0  0  0  0  0  0
   21.2822   18.7290   20.4773 H   0  0  0  0  0  0  0  0  0  0  0  0
   20.1278   19.5384   19.6237 H   0  0  0  0  0  0  0  0  0  0  0  0
   19.6750   19.3793   21.6748 C   0  0  2  0  0  0  0  0  0  0  0  0
   18.6046   19.5084   21.4863 H   0  0  0  0  0  0  0  0  0  0  0  0
   20.2728   20.7502   22.0411 C   0  0  0  0  0  0  0  0  0  0  0  0
   20.1853   21.4473   21.1987 H   0  0  0  0  0  0  0  0  0  0  0  0
   21.3350   20.6636   22.3014 H   0  0  0  0  0  0  0  0  0  0  0  0
   19.7464   21.2015   22.8898 H   0  0  0  0  0  0  0  0  0  0  0  0
   19.8443   18.3465   22.8133 C   0  0  0  0  0  0  0  0  0  0  0  0
   19.4985   17.3696   22.4504 H   0  0  0  0  0  0  0  0  0  0  0  0
   20.9099   18.2299   23.0513 H   0  0  0  0  0  0  0  0  0  0  0  0
   19.0580   18.6991   24.0997 C   0  0  0  0  0  0  0  0  0  0  0  0
   18.0023   18.8778   23.8515 H   0  0  0  0  0  0  0  0  0  0  0  0
   19.4437   19.6283   24.5396 H   0  0  0  0  0  0  0  0  0  0  0  0
   19.1525   17.5731   25.1517 C   0  0  0  0  0  0  0  0  0  0  0  0
   18.7359   16.6339   24.7650 H   0  0  0  0  0  0  0  0  0  0  0  0
   18.5932   17.8409   26.0576 H   0  0  0  0  0  0  0  0  0  0  0  0
   20.1955   17.3904   25.4419 H   0  0  0  0  0  0  0  0  0  0  0  0
  1  2  1  0  0  0  0
  1  3  1  0  0  0  0
  1  4  1  0  0  0  0
  1  5  1  0  0  0  0
  5  6  1  0  0  0  0
  5  7  1  0  0  0  0
  7  8  1  0  0  0  0
  7  9  1  0  0  0  0
  7 10  1  0  0  0  0
  5 11  1  0  0  0  0
 11 12  1  0  0  0  0
 11 13  1  0  0  0  0
 11 14  1  0  0  0  0
 14 15  1  0  0  0  0
 14 16  1  0  0  0  0
 14 17  1  0  0  0  0
 17 18  1  0  0  0  0
 17 19  1  0  0  0  0
 17 20  1  0  0  0  0
M  END
> <VConfSearch Rank>
592

> <Conf_Id>
80

> <Delta U+W>
0.460

> <U+W>
-35.817

> <U>
22.495

> <W>
-58.311

> <W(PB)>
-60.259

> <W(SA)>
1.948

> <Valence>
2.419

> <Coulomb>
19.304

> <VdW>
0.772

> <VdW6>
-4.635

> <VdW12>
5.407

> <Bond>
0.149

> <Angle>
1.142

> <Pdih>
1.129

> <Idih>
0.000

> <Tether>
0.000

$$$$
VeraChem MOL file


 20 19  0  0  0  0  0  0  0  0999 V2000     
   19.1375   20.1423   20.7768 N   0  3  0  0  0  0  0  0  0  0  0  0
   18.7623   19.5315   20.0462 H   0  0  0  0  0  0  0  0  0  0  0  0
   20.0986   20.3772   20.5163 H   0  0  0  0  0  0  0  0  0  0  0  0
   18.5953   21.0101   20.7532 H   0  0  0  0  0  0  0  0  0  0  0  0
   19.0762   19.4914   22.1315 C   0  0  2  0  0  0  0  0  0  0  0  0
   18.0189   19.2845   22.3242 H   0  0  0  0  0  0  0  0  0  0  0  0
   19.5777   20.4639   23.2127 C   0  0  0  0  0  0  0  0  0  0  0  0
   19.0770   21.4357   23.1221 H   0  0  0  0  0  0  0  0  0  0  0  0
   20.6591   20.6286   23.1296 H   0  0  0  0  0  0  0  0  0  0  0  0
   19.3585   20.0822   24.2163 H   0  0  0  0  0  0  0  0  0  0  0  0
   19.8375   18.1432   22.1352 C   0  0  0  0  0  0  0  0  0  0  0  0
   19.4369   17.5366   21.3123 H   0  0  0  0  0  0  0  0  0  0  0  0
   20.8973   18.3053   21.8978 H   0  0  0  0  0  0  0  0  0  0  0  0
   19.7004   17.3164   23.4411 C   0  0  0  0  0  0  0  0  0  0  0  0
   19.6487   16.2507   23.1771 H   0  0  0  0  0  0  0  0  0  0  0  0
   18.7502   17.5484   23.9423 H   0  0  0  0  0  0  0  0  0  0  0  0
   20.8853   17.5074   24.4171 C   0  0  0  0  0  0  0  0  0  0  0  0
   21.8313   17.2057   23.9489 H   0  0  0  0  0  0  0  0  0  0  0  0
   20.7472   16.8899   25.3141 H   0  0  0  0  0  0  0  0  0  0  0  0
   20.9883   18.5481   24.7438 H   0  0  0  0  0  0  0  0  0  0  0  0
  1  2  1  0  0  0  0
  1  3  1  0  0  0  0
  1  4  1  0  0  0  0
  1  5  1  0  0  0  0
  5  6  1  0  0  0  0
  5  7  1  0  0  0  0
  7  8  1  0  0  0  0
  7  9  1  0  0  0  0
  7 10  1  0  0  0  0
  5 11  1  0  0  0  0
 11 12  1  0  0  0  0
 11 13  1  0  0  0  0
 11 14  1  0  0  0  0
 14 15  1  0  0  0  0
 14 16  1  0  0  0  0
 14 17  1  0  0  0  0
 17 18  1  0  0  0  0
 17 19  1  0  0  0  0
 17 20  1  0  0  0  0
M  END
> <VConfSearch Rank>
593

> <Conf_Id>
52

> <Delta U+W>
2.995

> <U+W>
-33.282

> <U>
25.224

> <W>
-58.506

> <W(PB)>
-60.411

> <W(SA)>
1.905

> <Valence>
4.945

> <Coulomb>
19.467

> <VdW>
0.813

> <VdW6>
-5.458

> <VdW12>
6.270

> <Bond>
0.200

> <Angle>
1.675

> <Pdih>
3.070

> <Idih>
0.000

> <Tether>
0.000

$$$$
VeraChem MOL file


 20 19  0  0  0  0  0  0  0  0999 V2000     
   18.4291   18.3645   22.0629 N   0  3  0  0  0  0  0  0  0  0  0  0
   18.3147   17.4606   22.5280 H   0  0  0  0  0  0  0  0  0  0  0  0
   17.9221   18.3182   21.1750 H   0  0  0  0  0  0  0  0  0  0  0  0
   17.9697   19.0682   22.6449 H   0  0  0  0  0  0  0  0  0  0  0  0
   19.8821   18.6933   21.8530 C   0  0  2  0  0  0  0  0  0  0  0  0
   19.9225   19.6434   21.3113 H   0  0  0  0  0  0  0  0  0  0  0  0
   20.5402   17.6127   20.9784 C   0  0  0  0  0  0  0  0  0  0  0  0
   20.5406   16.6387   21.4836 H   0  0  0  0  0  0  0  0  0  0  0  0
   21.5791   17.8773   20.7453 H   0  0  0  0  0  0  0  0  0  0  0  0
   20.0057   17.5041   20.0267 H   0  0  0  0  0  0  0  0  0  0  0  0
   20.6578   18.8580   23.1817 C   0  0  0  0  0  0  0  0  0  0  0  0
   20.4264   18.0233   23.8564 H   0  0  0  0  0  0  0  0  0  0  0  0
   21.7330   18.7836   22.9708 H   0  0  0  0  0  0  0  0  0  0  0  0
   20.4269   20.2103   23.9061 C   0  0  0  0  0  0  0  0  0  0  0  0
   20.7057   21.0392   23.2404 H   0  0  0  0  0  0  0  0  0  0  0  0
   21.1170   20.2632   24.7599 H   0  0  0  0  0  0  0  0  0  0  0  0
   18.9889   20.4298   24.4288 C   0  0  0  0  0  0  0  0  0  0  0  0
   18.9571   21.3015   25.0954 H   0  0  0  0  0  0  0  0  0  0  0  0
   18.6346   19.5619   25.0004 H   0  0  0  0  0  0  0  0  0  0  0  0
   18.2872   20.6285   23.6106 H   0  0  0  0  0  0  0  0  0  0  0  0
  1  2  1  0  0  0  0
  1  3  1  0  0  0  0
  1  4  1  0  0  0  0
  1  5  1  0  0  0  0
  5  6  1  0  0  0  0
  5  7  1  0  0  0  0
  7  8  1  0  0  0  0
  7  9  1  0  0  0  0
  7 10  1  0  0  0  0
  5 11  1  0  0  0  0
 11 12  1  0  0  0  0
 11 13  1  0  0  0  0
 11 14  1  0  0  0  0
 14 15  1  0  0  0  0
 14 16  1  0  0  0  0
 14 17  1  0  0  0  0
 17 18  1  0  0  0  0
 17 19  1  0  0  0  0
 17 20  1  0  0  0  0
M  END
> <VConfSearch Rank>
594

> <Conf_Id>
54

> <Delta U+W>
2.752

> <U+W>
-33.525

> <U>
24.337

> <W>
-57.862

> <W(PB)>
-59.764

> <W(SA)>
1.901

> <Valence>
3.593

> <Coulomb>
20.067

> <VdW>
0.677

> <VdW6>
-5.466

> <VdW12>
6.144

> <Bond>
0.191

> <Angle>
1.557

> <Pdih>
1.845

> <Idih>
0.000

> <Tether>
0.000

$$$$
VeraChem MOL file


 20 19  0  0  0  0  0  0  0  0999 V2000     
   20.4441   18.2390   20.8851 N   0  3  0  0  0  0  0  0  0  0  0  0
   21.2315   18.2531   20.2313 H   0  0  0  0  0  0  0  0  0  0  0  0
   19.5931   18.1031   20.3327 H   0  0  0  0  0  0  0  0  0  0  0  0
   20.5576   17.4167   21.4821 H   0  0  0  0  0  0  0  0  0  0  0  0
   20.3801   19.5039   21.6974 C   0  0  2  0  0  0  0  0  0  0  0  0
   20.2768   20.3214   20.9769 H   0  0  0  0  0  0  0  0  0  0  0  0
   21.6910   19.7310   22.4712 C   0  0  0  0  0  0  0  0  0  0  0  0
   21.6398   20.6531   23.0634 H   0  0  0  0  0  0  0  0  0  0  0  0
   22.5342   19.8293   21.7766 H   0  0  0  0  0  0  0  0  0  0  0  0
   21.9118   18.8984   23.1495 H   0  0  0  0  0  0  0  0  0  0  0  0
   19.1417   19.5513   22.6242 C   0  0  0  0  0  0  0  0  0  0  0  0
   19.1072   20.5319   23.1172 H   0  0  0  0  0  0  0  0  0  0  0  0
   18.2395   19.4960   22.0009 H   0  0  0  0  0  0  0  0  0  0  0  0
   19.0858   18.4357   23.6997 C   0  0  0  0  0  0  0  0  0  0  0  0
   19.9555   18.5067   24.3665 H   0  0  0  0  0  0  0  0  0  0  0  0
   19.1289   17.4471   23.2233 H   0  0  0  0  0  0  0  0  0  0  0  0
   17.7988   18.5298   24.5470 C   0  0  0  0  0  0  0  0  0  0  0  0
   17.7744   17.7358   25.3046 H   0  0  0  0  0  0  0  0  0  0  0  0
   16.9039   18.4238   23.9200 H   0  0  0  0  0  0  0  0  0  0  0  0
   17.7385   19.4941   25.0683 H   0  0  0  0  0  0  0  0  0  0  0  0
  1  2  1  0  0  0  0
  1  3  1  0  0  0  0
  1  4  1  0  0  0  0
  1  5  1  0  0  0  0
  5  6  1  0  0  0  0
  5  7  1  0  0  0  0
  7  8  1  0  0  0  0
  7  9  1  0  0  0  0
  7 10  1  0  0  0  0
  5 11  1  0  0  0  0
 11 12  1  0  0  0  0
 11 13  1  0  0  0  0
 11 14  1  0  0  0  0
 14 15  1  0  0  0  0
 14 16  1  0  0  0  0
 14 17  1  0  0  0  0
 17 18  1  0  0  0  0
 17 19  1  0  0  0  0
 17 20  1  0  0  0  0
M  END
> <VConfSearch Rank>
595

> <Conf_Id>
63

> <Delta U+W>
0.420

> <U+W>
-35.856

> <U>
22.625

> <W>
-58.481

> <W(PB)>
-60.400

> <W(SA)>
1.919

> <Valence>
2.404

> <Coulomb>
19.464

> <VdW>
0.757

> <VdW6>
-5.074

> <VdW12>
5.830

> <Bond>
0.172

> <Angle>
1.207

> <Pdih>
1.025

> <Idih>
0.000

> <Tether>
0.000

$$$$
VeraChem MOL file


 20 19  0  0  0  0  0  0  0  0999 V2000     
   20.4895   18.7575   21.1977 N   0  3  0  0  0  0  0  0  0  0  0  0
   20.7388   19.7455   21.2901 H   0  0  0  0  0  0  0  0  0  0  0  0
   19.7976   18.6833   20.4479 H   0  0  0  0  0  0  0  0  0  0  0  0
   21.3283   18.2580   20.8905 H   0  0  0  0  0  0  0  0  0  0  0  0
   19.9603   18.2036   22.4928 C   0  0  2  0  0  0  0  0  0  0  0  0
   20.7575   18.3186   23.2333 H   0  0  0  0  0  0  0  0  0  0  0  0
   19.6482   16.7045   22.3551 C   0  0  0  0  0  0  0  0  0  0  0  0
   20.5392   16.1501   22.0357 H   0  0  0  0  0  0  0  0  0  0  0  0
   18.8545   16.5296   21.6181 H   0  0  0  0  0  0  0  0  0  0  0  0
   19.3218   16.2846   23.3146 H   0  0  0  0  0  0  0  0  0  0  0  0
   18.7156   18.9681   22.9980 C   0  0  0  0  0  0  0  0  0  0  0  0
   17.8977   18.8508   22.2747 H   0  0  0  0  0  0  0  0  0  0  0  0
   18.3676   18.5066   23.9317 H   0  0  0  0  0  0  0  0  0  0  0  0
   18.9567   20.4782   23.2499 C   0  0  0  0  0  0  0  0  0  0  0  0
   18.0186   20.9313   23.6000 H   0  0  0  0  0  0  0  0  0  0  0  0
   19.2036   20.9860   22.3077 H   0  0  0  0  0  0  0  0  0  0  0  0
   20.0638   20.7491   24.2941 C   0  0  0  0  0  0  0  0  0  0  0  0
   19.8386   20.2507   25.2460 H   0  0  0  0  0  0  0  0  0  0  0  0
   20.1502   21.8253   24.4924 H   0  0  0  0  0  0  0  0  0  0  0  0
   21.0433   20.3975   23.9465 H   0  0  0  0  0  0  0  0  0  0  0  0
  1  2  1  0  0  0  0
  1  3  1  0  0  0  0
  1  4  1  0  0  0  0
  1  5  1  0  0  0  0
  5  6  1  0  0  0  0
  5  7  1  0  0  0  0
  7  8  1  0  0  0  0
  7  9  1  0  0  0  0
  7 10  1  0  0  0  0
  5 11  1  0  0  0  0
 11 12  1  0  0  0  0
 11 13  1  0  0  0  0
 11 14  1  0  0  0  0
 14 15  1  0  0  0  0
 14 16  1  0  0  0  0
 14 17  1  0  0  0  0
 17 18  1  0  0  0  0
 17 19  1  0  0  0  0
 17 20  1  0  0  0  0
M  END
> <VConfSearch Rank>
596

> <Conf_Id>
50

> <Delta U+W>
0.466

> <U+W>
-35.811

> <U>
22.369

> <W>
-58.180

> <W(PB)>
-60.103

> <W(SA)>
1.923

> <Valence>
2.168

> <Coulomb>
19.636

> <VdW>
0.566

> <VdW6>
-5.263

> <VdW12>
5.829

> <Bond>
0.162

> <Angle>
1.066

> <Pdih>
0.939

> <Idih>
0.000

> <Tether>
0.000

$$$$
VeraChem MOL file


 20 19  0  0  0  0  0  0  0  0999 V2000     
   21.4879   19.4438   24.1087 N   0  3  0  0  0  0  0  0  0  0  0  0
   21.4017   20.4533   24.2552 H   0  0  0  0  0  0  0  0  0  0  0  0
   22.3327   19.2850   23.5537 H   0  0  0  0  0  0  0  0  0  0  0  0
   21.6421   19.0173   25.0263 H   0  0  0  0  0  0  0  0  0  0  0  0
   20.2687   18.8747   23.4348 C   0  0  2  0  0  0  0  0  0  0  0  0
   19.4246   19.0950   24.0957 H   0  0  0  0  0  0  0  0  0  0  0  0
   20.4056   17.3466   23.3012 C   0  0  0  0  0  0  0  0  0  0  0  0
   21.2716   17.0799   22.6827 H   0  0  0  0  0  0  0  0  0  0  0  0
   19.5158   16.9008   22.8437 H   0  0  0  0  0  0  0  0  0  0  0  0
   20.5376   16.8830   24.2865 H   0  0  0  0  0  0  0  0  0  0  0  0
   19.9974   19.5473   22.0665 C   0  0  0  0  0  0  0  0  0  0  0  0
   20.5571   20.4905   22.0124 H   0  0  0  0  0  0  0  0  0  0  0  0
   20.3869   18.9255   21.2494 H   0  0  0  0  0  0  0  0  0  0  0  0
   18.5049   19.8819   21.8166 C   0  0  0  0  0  0  0  0  0  0  0  0
   18.4215   20.4229   20.8636 H   0  0  0  0  0  0  0  0  0  0  0  0
   18.1488   20.5742   22.5924 H   0  0  0  0  0  0  0  0  0  0  0  0
   17.5794   18.6460   21.7689 C   0  0  0  0  0  0  0  0  0  0  0  0
   17.9334   17.9139   21.0315 H   0  0  0  0  0  0  0  0  0  0  0  0
   16.5608   18.9407   21.4851 H   0  0  0  0  0  0  0  0  0  0  0  0
   17.5171   18.1537   22.7474 H   0  0  0  0  0  0  0  0  0  0  0  0
  1  2  1  0  0  0  0
  1  3  1  0  0  0  0
  1  4  1  0  0  0  0
  1  5  1  0  0  0  0
  5  6  1  0  0  0  0
  5  7  1  0  0  0  0
  7  8  1  0  0  0  0
  7  9  1  0  0  0  0
  7 10  1  0  0  0  0
  5 11  1  0  0  0  0
 11 12  1  0  0  0  0
 11 13  1  0  0  0  0
 11 14  1  0  0  0  0
 14 15  1  0  0  0  0
 14 16  1  0  0  0  0
 14 17  1  0  0  0  0
 17 18  1  0  0  0  0
 17 19  1  0  0  0  0
 17 20  1  0  0  0  0
M  END
> <VConfSearch Rank>
597

> <Conf_Id>
3

> <Delta U+W>
3.093

> <U+W>
-33.184

> <U>
25.256

> <W>
-58.439

> <W(PB)>
-60.337

> <W(SA)>
1.898

> <Valence>
4.963

> <Coulomb>
19.511

> <VdW>
0.782

> <VdW6>
-5.429

> <VdW12>
6.211

> <Bond>
0.174

> <Angle>
1.377

> <Pdih>
3.412

> <Idih>
0.000

> <Tether>
0.000

$$$$
VeraChem MOL file


 20 19  0  0  0  0  0  0  0  0999 V2000     
   20.4997   19.4177   24.8359 N   0  3  0  0  0  0  0  0  0  0  0  0
   20.7541   18.6963   25.5160 H   0  0  0  0  0  0  0  0  0  0  0  0
   19.7600   19.9847   25.2591 H   0  0  0  0  0  0  0  0  0  0  0  0
   21.3164   20.0215   24.7135 H   0  0  0  0  0  0  0  0  0  0  0  0
   20.0585   18.8135   23.5310 C   0  0  2  0  0  0  0  0  0  0  0  0
   19.1912   18.1873   23.7608 H   0  0  0  0  0  0  0  0  0  0  0  0
   21.1679   17.9149   22.9548 C   0  0  0  0  0  0  0  0  0  0  0  0
   20.8141   17.3583   22.0792 H   0  0  0  0  0  0  0  0  0  0  0  0
   21.4932   17.1772   23.6984 H   0  0  0  0  0  0  0  0  0  0  0  0
   22.0426   18.5059   22.6563 H   0  0  0  0  0  0  0  0  0  0  0  0
   19.6169   19.9066   22.5287 C   0  0  0  0  0  0  0  0  0  0  0  0
   18.8869   20.5616   23.0223 H   0  0  0  0  0  0  0  0  0  0  0  0
   20.4776   20.5421   22.2816 H   0  0  0  0  0  0  0  0  0  0  0  0
   18.9861   19.3756   21.2160 C   0  0  0  0  0  0  0  0  0  0  0  0
   19.7332   18.8243   20.6293 H   0  0  0  0  0  0  0  0  0  0  0  0
   18.6910   20.2334   20.5955 H   0  0  0  0  0  0  0  0  0  0  0  0
   17.7478   18.4824   21.4569 C   0  0  0  0  0  0  0  0  0  0  0  0
   16.9870   19.0121   22.0448 H   0  0  0  0  0  0  0  0  0  0  0  0
   18.0131   17.5604   21.9893 H   0  0  0  0  0  0  0  0  0  0  0  0
   17.2910   18.1926   20.5017 H   0  0  0  0  0  0  0  0  0  0  0  0
  1  2  1  0  0  0  0
  1  3  1  0  0  0  0
  1  4  1  0  0  0  0
  1  5  1  0  0  0  0
  5  6  1  0  0  0  0
  5  7  1  0  0  0  0
  7  8  1  0  0  0  0
  7  9  1  0  0  0  0
  7 10  1  0  0  0  0
  5 11  1  0  0  0  0
 11 12  1  0  0  0  0
 11 13  1  0  0  0  0
 11 14  1  0  0  0  0
 14 15  1  0  0  0  0
 14 16  1  0  0  0  0
 14 17  1  0  0  0  0
 17 18  1  0  0  0  0
 17 19  1  0  0  0  0
 17 20  1  0  0  0  0
M  END
> <VConfSearch Rank>
598

> <Conf_Id>
64

> <Delta U+W>
0.544

> <U+W>
-35.732

> <U>
22.800

> <W>
-58.532

> <W(PB)>
-60.437

> <W(SA)>
1.905

> <Valence>
2.662

> <Coulomb>
19.485

> <VdW>
0.653

> <VdW6>
-5.460

> <VdW12>
6.113

> <Bond>
0.174

> <Angle>
1.378

> <Pdih>
1.109

> <Idih>
0.000

> <Tether>
0.000

$$$$
VeraChem MOL file


 20 19  0  0  0  0  0  0  0  0999 V2000     
   18.1117   19.7384   21.7023 N   0  3  0  0  0  0  0  0  0  0  0  0
   18.8886   20.1384   21.1716 H   0  0  0  0  0  0  0  0  0  0  0  0
   17.4616   20.5002   21.9137 H   0  0  0  0  0  0  0  0  0  0  0  0
   17.6225   19.0845   21.0851 H   0  0  0  0  0  0  0  0  0  0  0  0
   18.5925   19.0610   22.9572 C   0  0  2  0  0  0  0  0  0  0  0  0
   17.6949   18.6799   23.4542 H   0  0  0  0  0  0  0  0  0  0  0  0
   19.2497   20.0736   23.9093 C   0  0  0  0  0  0  0  0  0  0  0  0
   20.0822   20.5977   23.4256 H   0  0  0  0  0  0  0  0  0  0  0  0
   19.6268   19.5749   24.8107 H   0  0  0  0  0  0  0  0  0  0  0  0
   18.5207   20.8287   24.2274 H   0  0  0  0  0  0  0  0  0  0  0  0
   19.4962   17.8384   22.6578 C   0  0  0  0  0  0  0  0  0  0  0  0
   19.6745   17.2812   23.5869 H   0  0  0  0  0  0  0  0  0  0  0  0
   18.9222   17.1553   22.0181 H   0  0  0  0  0  0  0  0  0  0  0  0
   20.8498   18.1401   21.9564 C   0  0  0  0  0  0  0  0  0  0  0  0
   20.7660   19.0196   21.3047 H   0  0  0  0  0  0  0  0  0  0  0  0
   21.0907   17.2979   21.2926 H   0  0  0  0  0  0  0  0  0  0  0  0
   22.0299   18.3173   22.9406 C   0  0  0  0  0  0  0  0  0  0  0  0
   21.8845   19.1710   23.6115 H   0  0  0  0  0  0  0  0  0  0  0  0
   22.9653   18.4848   22.3910 H   0  0  0  0  0  0  0  0  0  0  0  0
   22.1645   17.4200   23.5585 H   0  0  0  0  0  0  0  0  0  0  0  0
  1  2  1  0  0  0  0
  1  3  1  0  0  0  0
  1  4  1  0  0  0  0
  1  5  1  0  0  0  0
  5  6  1  0  0  0  0
  5  7  1  0  0  0  0
  7  8  1  0  0  0  0
  7  9  1  0  0  0  0
  7 10  1  0  0  0  0
  5 11  1  0  0  0  0
 11 12  1  0  0  0  0
 11 13  1  0  0  0  0
 11 14  1  0  0  0  0
 14 15  1  0  0  0  0
 14 16  1  0  0  0  0
 14 17  1  0  0  0  0
 17 18  1  0  0  0  0
 17 19  1  0  0  0  0
 17 20  1  0  0  0  0
M  END
> <VConfSearch Rank>
599

> <Conf_Id>
35

> <Delta U+W>
3.004

> <U+W>
-33.272

> <U>
25.367

> <W>
-58.639

> <W(PB)>
-60.512

> <W(SA)>
1.873

> <Valence>
4.943

> <Coulomb>
19.661

> <VdW>
0.764

> <VdW6>
-5.871

> <VdW12>
6.636

> <Bond>
0.230

> <Angle>
1.857

> <Pdih>
2.855

> <Idih>
0.000

> <Tether>
0.000

$$$$
VeraChem MOL file


 20 19  0  0  0  0  0  0  0  0999 V2000     
   20.2602   17.2631   22.4577 N   0  3  0  0  0  0  0  0  0  0  0  0
   20.6151   16.6640   21.7075 H   0  0  0  0  0  0  0  0  0  0  0  0
   19.8699   16.6500   23.1783 H   0  0  0  0  0  0  0  0  0  0  0  0
   21.0586   17.7498   22.8697 H   0  0  0  0  0  0  0  0  0  0  0  0
   19.2333   18.2366   21.9475 C   0  0  2  0  0  0  0  0  0  0  0  0
   18.4191   17.6190   21.5555 H   0  0  0  0  0  0  0  0  0  0  0  0
   19.7822   19.0690   20.7752 C   0  0  0  0  0  0  0  0  0  0  0  0
   20.6655   19.6485   21.0687 H   0  0  0  0  0  0  0  0  0  0  0  0
   19.0211   19.7659   20.4032 H   0  0  0  0  0  0  0  0  0  0  0  0
   20.0708   18.4162   19.9425 H   0  0  0  0  0  0  0  0  0  0  0  0
   18.6260   19.1208   23.0668 C   0  0  0  0  0  0  0  0  0  0  0  0
   17.6964   19.5570   22.6781 H   0  0  0  0  0  0  0  0  0  0  0  0
   18.3182   18.4768   23.9009 H   0  0  0  0  0  0  0  0  0  0  0  0
   19.5033   20.2822   23.6128 C   0  0  0  0  0  0  0  0  0  0  0  0
   18.9125   20.8315   24.3592 H   0  0  0  0  0  0  0  0  0  0  0  0
   19.7161   21.0065   22.8149 H   0  0  0  0  0  0  0  0  0  0  0  0
   20.8262   19.8352   24.2754 C   0  0  0  0  0  0  0  0  0  0  0  0
   20.6526   19.0470   25.0196 H   0  0  0  0  0  0  0  0  0  0  0  0
   21.2973   20.6818   24.7918 H   0  0  0  0  0  0  0  0  0  0  0  0
   21.5462   19.4706   23.5338 H   0  0  0  0  0  0  0  0  0  0  0  0
  1  2  1  0  0  0  0
  1  3  1  0  0  0  0
  1  4  1  0  0  0  0
  1  5  1  0  0  0  0
  5  6  1  0  0  0  0
  5  7  1  0  0  0  0
  7  8  1  0  0  0  0
  7  9  1  0  0  0  0
  7 10  1  0  0  0  0
  5 11  1  0  0  0  0
 11 12  1  0  0  0  0
 11 13  1  0  0  0  0
 11 14  1  0  0  0  0
 14 15  1  0  0  0  0
 14 16  1  0  0  0  0
 14 17  1  0  0  0  0
 17 18  1  0  0  0  0
 17 19  1  0  0  0  0
 17 20  1  0  0  0  0
M  END
> <VConfSearch Rank>
600

> <Conf_Id>
55

> <Delta U+W>
2.767

> <U+W>
-33.509

> <U>
24.552

> <W>
-58.061

> <W(PB)>
-59.930

> <W(SA)>
1.869

> <Valence>
3.726

> <Coulomb>
20.219

> <VdW>
0.606

> <VdW6>
-6.395

> <VdW12>
7.001

> <Bond>
0.241

> <Angle>
2.098

> <Pdih>
1.387

> <Idih>
0.000

> <Tether>
0.000

$$$$
VeraChem MOL file


 20 19  0  0  0  0  0  0  0  0999 V2000     
   21.2953   19.6307   21.7034 N   0  3  0  0  0  0  0  0  0  0  0  0
   22.0269   19.2690   22.3202 H   0  0  0  0  0  0  0  0  0  0  0  0
   21.6893   20.4291   21.1984 H   0  0  0  0  0  0  0  0  0  0  0  0
   21.0897   18.9055   21.0118 H   0  0  0  0  0  0  0  0  0  0  0  0
   20.0649   20.0211   22.4771 C   0  0  2  0  0  0  0  0  0  0  0  0
   19.3378   20.3902   21.7470 H   0  0  0  0  0  0  0  0  0  0  0  0
   20.3829   21.1615   23.4580 C   0  0  0  0  0  0  0  0  0  0  0  0
   20.7974   22.0270   22.9265 H   0  0  0  0  0  0  0  0  0  0  0  0
   21.1117   20.8438   24.2141 H   0  0  0  0  0  0  0  0  0  0  0  0
   19.4754   21.4942   23.9771 H   0  0  0  0  0  0  0  0  0  0  0  0
   19.4323   18.8283   23.2275 C   0  0  0  0  0  0  0  0  0  0  0  0
   20.1518   18.4233   23.9515 H   0  0  0  0  0  0  0  0  0  0  0  0
   18.5739   19.1906   23.8088 H   0  0  0  0  0  0  0  0  0  0  0  0
   18.9533   17.7019   22.2801 C   0  0  0  0  0  0  0  0  0  0  0  0
   19.8048   17.2833   21.7268 H   0  0  0  0  0  0  0  0  0  0  0  0
   18.2608   18.1156   21.5334 H   0  0  0  0  0  0  0  0  0  0  0  0
   18.2508   16.5662   23.0546 C   0  0  0  0  0  0  0  0  0  0  0  0
   18.9281   16.1112   23.7891 H   0  0  0  0  0  0  0  0  0  0  0  0
   17.9192   15.7762   22.3682 H   0  0  0  0  0  0  0  0  0  0  0  0
   17.3676   16.9393   23.5893 H   0  0  0  0  0  0  0  0  0  0  0  0
  1  2  1  0  0  0  0
  1  3  1  0  0  0  0
  1  4  1  0  0  0  0
  1  5  1  0  0  0  0
  5  6  1  0  0  0  0
  5  7  1  0  0  0  0
  7  8  1  0  0  0  0
  7  9  1  0  0  0  0
  7 10  1  0  0  0  0
  5 11  1  0  0  0  0
 11 12  1  0  0  0  0
 11 13  1  0  0  0  0
 11 14  1  0  0  0  0
 14 15  1  0  0  0  0
 14 16  1  0  0  0  0
 14 17  1  0  0  0  0
 17 18  1  0  0  0  0
 17 19  1  0  0  0  0
 17 20  1  0  0  0  0
M  END
> <VConfSearch Rank>
601

> <Conf_Id>
74

> <Delta U+W>
0.000

> <U+W>
-36.276

> <U>
22.080

> <W>
-58.356

> <W(PB)>
-60.289

> <W(SA)>
1.932

> <Valence>
1.885

> <Coulomb>
19.559

> <VdW>
0.637

> <VdW6>
-4.482

> <VdW12>
5.119

> <Bond>
0.136

> <Angle>
0.867

> <Pdih>
0.882

> <Idih>
0.000

> <Tether>
0.000

$$$$
VeraChem MOL file


 20 19  0  0  0  0  0  0  0  0999 V2000     
   19.3376   16.9766   24.0349 N   0  3  0  0  0  0  0  0  0  0  0  0
   19.0287   17.3814   24.9229 H   0  0  0  0  0  0  0  0  0  0  0  0
   20.3099   16.6816   24.1544 H   0  0  0  0  0  0  0  0  0  0  0  0
   18.7807   16.1322   23.8780 H   0  0  0  0  0  0  0  0  0  0  0  0
   19.1915   17.9517   22.8989 C   0  0  2  0  0  0  0  0  0  0  0  0
   18.1283   18.2058   22.8458 H   0  0  0  0  0  0  0  0  0  0  0  0
   19.5999   17.2888   21.5705 C   0  0  0  0  0  0  0  0  0  0  0  0
   19.0594   16.3451   21.4275 H   0  0  0  0  0  0  0  0  0  0  0  0
   20.6750   17.0713   21.5491 H   0  0  0  0  0  0  0  0  0  0  0  0
   19.3617   17.9303   20.7144 H   0  0  0  0  0  0  0  0  0  0  0  0
   19.9859   19.2503   23.1709 C   0  0  0  0  0  0  0  0  0  0  0  0
   19.7281   19.6113   24.1754 H   0  0  0  0  0  0  0  0  0  0  0  0
   21.0615   19.0294   23.1870 H   0  0  0  0  0  0  0  0  0  0  0  0
   19.7010   20.3824   22.1539 C   0  0  0  0  0  0  0  0  0  0  0  0
   18.6182   20.5605   22.0912 H   0  0  0  0  0  0  0  0  0  0  0  0
   20.0339   20.0860   21.1503 H   0  0  0  0  0  0  0  0  0  0  0  0
   20.4132   21.6944   22.5476 C   0  0  0  0  0  0  0  0  0  0  0  0
   20.0749   22.0492   23.5299 H   0  0  0  0  0  0  0  0  0  0  0  0
   20.2037   22.4844   21.8147 H   0  0  0  0  0  0  0  0  0  0  0  0
   21.5014   21.5555   22.5907 H   0  0  0  0  0  0  0  0  0  0  0  0
  1  2  1  0  0  0  0
  1  3  1  0  0  0  0
  1  4  1  0  0  0  0
  1  5  1  0  0  0  0
  5  6  1  0  0  0  0
  5  7  1  0  0  0  0
  7  8  1  0  0  0  0
  7  9  1  0  0  0  0
  7 10  1  0  0  0  0
  5 11  1  0  0  0  0
 11 12  1  0  0  0  0
 11 13  1  0  0  0  0
 11 14  1  0  0  0  0
 14 15  1  0  0  0  0
 14 16  1  0  0  0  0
 14 17  1  0  0  0  0
 17 18  1  0  0  0  0
 17 19  1  0  0  0  0
 17 20  1  0  0  0  0
M  END
> <VConfSearch Rank>
602

> <Conf_Id>
80

> <Delta U+W>
0.460

> <U+W>
-35.817

> <U>
22.495

> <W>
-58.311

> <W(PB)>
-60.259

> <W(SA)>
1.948

> <Valence>
2.419

> <Coulomb>
19.304

> <VdW>
0.772

> <VdW6>
-4.635

> <VdW12>
5.407

> <Bond>
0.149

> <Angle>
1.142

> <Pdih>
1.129

> <Idih>
0.000

> <Tether>
0.000

$$$$
VeraChem MOL file


 20 19  0  0  0  0  0  0  0  0999 V2000     
   19.5728   20.9024   21.4375 N   0  3  0  0  0  0  0  0  0  0  0  0
   19.1877   20.7138   20.5081 H   0  0  0  0  0  0  0  0  0  0  0  0
   20.5824   21.0296   21.3309 H   0  0  0  0  0  0  0  0  0  0  0  0
   19.1849   21.7967   21.7497 H   0  0  0  0  0  0  0  0  0  0  0  0
   19.2549   19.7961   22.4060 C   0  0  2  0  0  0  0  0  0  0  0  0
   18.1632   19.7395   22.4586 H   0  0  0  0  0  0  0  0  0  0  0  0
   19.7834   20.1473   23.8073 C   0  0  0  0  0  0  0  0  0  0  0  0
   19.4606   21.1532   24.1023 H   0  0  0  0  0  0  0  0  0  0  0  0
   20.8796   20.1181   23.8384 H   0  0  0  0  0  0  0  0  0  0  0  0
   19.3939   19.4517   24.5594 H   0  0  0  0  0  0  0  0  0  0  0  0
   19.7818   18.4355   21.8878 C   0  0  0  0  0  0  0  0  0  0  0  0
   19.3828   18.2921   20.8750 H   0  0  0  0  0  0  0  0  0  0  0  0
   20.8737   18.4690   21.7763 H   0  0  0  0  0  0  0  0  0  0  0  0
   19.3666   17.2052   22.7373 C   0  0  0  0  0  0  0  0  0  0  0  0
   19.1723   16.3615   22.0602 H   0  0  0  0  0  0  0  0  0  0  0  0
   18.4166   17.4008   23.2543 H   0  0  0  0  0  0  0  0  0  0  0  0
   20.4497   16.7628   23.7493 C   0  0  0  0  0  0  0  0  0  0  0  0
   21.3805   16.4925   23.2339 H   0  0  0  0  0  0  0  0  0  0  0  0
   20.1134   15.8817   24.3110 H   0  0  0  0  0  0  0  0  0  0  0  0
   20.6831   17.5495   24.4754 H   0  0  0  0  0  0  0  0  0  0  0  0
  1  2  1  0  0  0  0
  1  3  1  0  0  0  0
  1  4  1  0  0  0  0
  1  5  1  0  0  0  0
  5  6  1  0  0  0  0
  5  7  1  0  0  0  0
  7  8  1  0  0  0  0
  7  9  1  0  0  0  0
  7 10  1  0  0  0  0
  5 11  1  0  0  0  0
 11 12  1  0  0  0  0
 11 13  1  0  0  0  0
 11 14  1  0  0  0  0
 14 15  1  0  0  0  0
 14 16  1  0  0  0  0
 14 17  1  0  0  0  0
 17 18  1  0  0  0  0
 17 19  1  0  0  0  0
 17 20  1  0  0  0  0
M  END
> <VConfSearch Rank>
603

> <Conf_Id>
52

> <Delta U+W>
2.995

> <U+W>
-33.282

> <U>
25.224

> <W>
-58.506

> <W(PB)>
-60.411

> <W(SA)>
1.905

> <Valence>
4.945

> <Coulomb>
19.467

> <VdW>
0.813

> <VdW6>
-5.458

> <VdW12>
6.270

> <Bond>
0.200

> <Angle>
1.675

> <Pdih>
3.070

> <Idih>
0.000

> <Tether>
0.000

$$$$
VeraChem MOL file


 20 19  0  0  0  0  0  0  0  0999 V2000     
   20.5490   19.7268   23.9641 N   0  3  0  0  0  0  0  0  0  0  0  0
   21.1844   19.0063   24.3157 H   0  0  0  0  0  0  0  0  0  0  0  0
   20.4261   20.4169   24.7100 H   0  0  0  0  0  0  0  0  0  0  0  0
   21.0176   20.1940   23.1849 H   0  0  0  0  0  0  0  0  0  0  0  0
   19.2335   19.1361   23.5354 C   0  0  2  0  0  0  0  0  0  0  0  0
   18.5948   19.9670   23.2199 H   0  0  0  0  0  0  0  0  0  0  0  0
   18.5607   18.4393   24.7302 C   0  0  0  0  0  0  0  0  0  0  0  0
   19.1548   17.5848   25.0776 H   0  0  0  0  0  0  0  0  0  0  0  0
   17.5625   18.0738   24.4586 H   0  0  0  0  0  0  0  0  0  0  0  0
   18.4403   19.1357   25.5692 H   0  0  0  0  0  0  0  0  0  0  0  0
   19.3754   18.1541   22.3481 C   0  0  0  0  0  0  0  0  0  0  0  0
   20.1997   17.4541   22.5377 H   0  0  0  0  0  0  0  0  0  0  0  0
   18.4671   17.5393   22.2921 H   0  0  0  0  0  0  0  0  0  0  0  0
   19.5558   18.8297   20.9634 C   0  0  0  0  0  0  0  0  0  0  0  0
   18.7029   19.4927   20.7609 H   0  0  0  0  0  0  0  0  0  0  0  0
   19.5192   18.0465   20.1932 H   0  0  0  0  0  0  0  0  0  0  0  0
   20.8741   19.6186   20.7925 C   0  0  0  0  0  0  0  0  0  0  0  0
   21.0189   19.8904   19.7388 H   0  0  0  0  0  0  0  0  0  0  0  0
   21.7408   19.0205   21.1031 H   0  0  0  0  0  0  0  0  0  0  0  0
   20.8628   20.5536   21.3643 H   0  0  0  0  0  0  0  0  0  0  0  0
  1  2  1  0  0  0  0
  1  3  1  0  0  0  0
  1  4  1  0  0  0  0
  1  5  1  0  0  0  0
  5  6  1  0  0  0  0
  5  7  1  0  0  0  0
  7  8  1  0  0  0  0
  7  9  1  0  0  0  0
  7 10  1  0  0  0  0
  5 11  1  0  0  0  0
 11 12  1  0  0  0  0
 11 13  1  0  0  0  0
 11 14  1  0  0  0  0
 14 15  1  0  0  0  0
 14 16  1  0  0  0  0
 14 17  1  0  0  0  0
 17 18  1  0  0  0  0
 17 19  1  0  0  0  0
 17 20  1  0  0  0  0
M  END
> <VConfSearch Rank>
604

> <Conf_Id>
54

> <Delta U+W>
2.752

> <U+W>
-33.525

> <U>
24.337

> <W>
-57.862

> <W(PB)>
-59.764

> <W(SA)>
1.901

> <Valence>
3.593

> <Coulomb>
20.067

> <VdW>
0.677

> <VdW6>
-5.466

> <VdW12>
6.144

> <Bond>
0.191

> <Angle>
1.557

> <Pdih>
1.845

> <Idih>
0.000

> <Tether>
0.000

$$$$
VeraChem MOL file


 20 19  0  0  0  0  0  0  0  0999 V2000     
   19.5715   18.9051   20.6399 N   0  3  0  0  0  0  0  0  0  0  0  0
   20.0313   19.1486   19.7585 H   0  0  0  0  0  0  0  0  0  0  0  0
   18.5618   18.9568   20.4801 H   0  0  0  0  0  0  0  0  0  0  0  0
   19.8007   17.9299   20.8446 H   0  0  0  0  0  0  0  0  0  0  0  0
   20.0023   19.8174   21.7562 C   0  0  2  0  0  0  0  0  0  0  0  0
   19.7329   20.8302   21.4403 H   0  0  0  0  0  0  0  0  0  0  0  0
   21.5297   19.7807   21.9421 C   0  0  0  0  0  0  0  0  0  0  0  0
   21.8395   20.4456   22.7578 H   0  0  0  0  0  0  0  0  0  0  0  0
   22.0353   20.1178   21.0290 H   0  0  0  0  0  0  0  0  0  0  0  0
   21.8871   18.7692   22.1683 H   0  0  0  0  0  0  0  0  0  0  0  0
   19.2483   19.5344   23.0777 C   0  0  0  0  0  0  0  0  0  0  0  0
   19.5420   20.2883   23.8200 H   0  0  0  0  0  0  0  0  0  0  0  0
   18.1748   19.6855   22.9039 H   0  0  0  0  0  0  0  0  0  0  0  0
   19.4732   18.1189   23.6694 C   0  0  0  0  0  0  0  0  0  0  0  0
   20.5364   17.9673   23.8987 H   0  0  0  0  0  0  0  0  0  0  0  0
   19.1928   17.3518   22.9351 H   0  0  0  0  0  0  0  0  0  0  0  0
   18.6498   17.9063   24.9579 C   0  0  0  0  0  0  0  0  0  0  0  0
   18.8208   16.9016   25.3660 H   0  0  0  0  0  0  0  0  0  0  0  0
   17.5747   18.0110   24.7620 H   0  0  0  0  0  0  0  0  0  0  0  0
   18.9291   18.6350   25.7301 H   0  0  0  0  0  0  0  0  0  0  0  0
  1  2  1  0  0  0  0
  1  3  1  0  0  0  0
  1  4  1  0  0  0  0
  1  5  1  0  0  0  0
  5  6  1  0  0  0  0
  5  7  1  0  0  0  0
  7  8  1  0  0  0  0
  7  9  1  0  0  0  0
  7 10  1  0  0  0  0
  5 11  1  0  0  0  0
 11 12  1  0  0  0  0
 11 13  1  0  0  0  0
 11 14  1  0  0  0  0
 14 15  1  0  0  0  0
 14 16  1  0  0  0  0
 14 17  1  0  0  0  0
 17 18  1  0  0  0  0
 17 19  1  0  0  0  0
 17 20  1  0  0  0  0
M  END
> <VConfSearch Rank>
605

> <Conf_Id>
63

> <Delta U+W>
0.420

> <U+W>
-35.856

> <U>
22.625

> <W>
-58.481

> <W(PB)>
-60.400

> <W(SA)>
1.919

> <Valence>
2.404

> <Coulomb>
19.464

> <VdW>
0.757

> <VdW6>
-5.074

> <VdW12>
5.830

> <Bond>
0.172

> <Angle>
1.207

> <Pdih>
1.025

> <Idih>
0.000

> <Tether>
0.000

$$$$
VeraChem MOL file


 20 19  0  0  0  0  0  0  0  0999 V2000     
   18.8110   20.4690   22.3646 N   0  3  0  0  0  0  0  0  0  0  0  0
   18.9937   20.7258   23.3380 H   0  0  0  0  0  0  0  0  0  0  0  0
   17.8089   20.2824   22.2781 H   0  0  0  0  0  0  0  0  0  0  0  0
   19.0206   21.2881   21.7877 H   0  0  0  0  0  0  0  0  0  0  0  0
   19.6313   19.2775   21.9502 C   0  0  2  0  0  0  0  0  0  0  0  0
   20.6812   19.5614   22.0695 H   0  0  0  0  0  0  0  0  0  0  0  0
   19.3920   18.9420   20.4691 C   0  0  0  0  0  0  0  0  0  0  0  0
   19.6211   19.8059   19.8332 H   0  0  0  0  0  0  0  0  0  0  0  0
   18.3487   18.6532   20.2903 H   0  0  0  0  0  0  0  0  0  0  0  0
   20.0355   18.1133   20.1483 H   0  0  0  0  0  0  0  0  0  0  0  0
   19.3611   18.0380   22.8332 C   0  0  0  0  0  0  0  0  0  0  0  0
   18.3146   17.7272   22.7144 H   0  0  0  0  0  0  0  0  0  0  0  0
   19.9724   17.2010   22.4705 H   0  0  0  0  0  0  0  0  0  0  0  0
   19.6579   18.2540   24.3389 C   0  0  0  0  0  0  0  0  0  0  0  0
   19.4322   17.3241   24.8796 H   0  0  0  0  0  0  0  0  0  0  0  0
   18.9834   19.0152   24.7539 H   0  0  0  0  0  0  0  0  0  0  0  0
   21.1259   18.6507   24.6163 C   0  0  0  0  0  0  0  0  0  0  0  0
   21.8200   17.9034   24.2102 H   0  0  0  0  0  0  0  0  0  0  0  0
   21.3070   18.7229   25.6966 H   0  0  0  0  0  0  0  0  0  0  0  0
   21.3729   19.6240   24.1741 H   0  0  0  0  0  0  0  0  0  0  0  0
  1  2  1  0  0  0  0
  1  3  1  0  0  0  0
  1  4  1  0  0  0  0
  1  5  1  0  0  0  0
  5  6  1  0  0  0  0
  5  7  1  0  0  0  0
  7  8  1  0  0  0  0
  7  9  1  0  0  0  0
  7 10  1  0  0  0  0
  5 11  1  0  0  0  0
 11 12  1  0  0  0  0
 11 13  1  0  0  0  0
 11 14  1  0  0  0  0
 14 15  1  0  0  0  0
 14 16  1  0  0  0  0
 14 17  1  0  0  0  0
 17 18  1  0  0  0  0
 17 19  1  0  0  0  0
 17 20  1  0  0  0  0
M  END
> <VConfSearch Rank>
606

> <Conf_Id>
50

> <Delta U+W>
0.466

> <U+W>
-35.811

> <U>
22.369

> <W>
-58.180

> <W(PB)>
-60.103

> <W(SA)>
1.923

> <Valence>
2.168

> <Coulomb>
19.636

> <VdW>
0.566

> <VdW6>
-5.263

> <VdW12>
5.829

> <Bond>
0.162

> <Angle>
1.066

> <Pdih>
0.939

> <Idih>
0.000

> <Tether>
0.000

$$$$
VeraChem MOL file


 20 19  0  0  0  0  0  0  0  0999 V2000     
   21.9088   19.5358   22.6203 N   0  3  0  0  0  0  0  0  0  0  0  0
   22.2110   19.2221   21.6939 H   0  0  0  0  0  0  0  0  0  0  0  0
   22.4200   18.9835   23.3135 H   0  0  0  0  0  0  0  0  0  0  0  0
   22.2108   20.5083   22.7235 H   0  0  0  0  0  0  0  0  0  0  0  0
   20.4202   19.4000   22.7939 C   0  0  2  0  0  0  0  0  0  0  0  0
   19.9649   20.0174   22.0134 H   0  0  0  0  0  0  0  0  0  0  0  0
   19.9977   19.9512   24.1686 C   0  0  0  0  0  0  0  0  0  0  0  0
   20.4713   19.3884   24.9826 H   0  0  0  0  0  0  0  0  0  0  0  0
   18.9127   19.8960   24.3087 H   0  0  0  0  0  0  0  0  0  0  0  0
   20.2905   21.0035   24.2694 H   0  0  0  0  0  0  0  0  0  0  0  0
   19.9452   17.9400   22.5917 C   0  0  0  0  0  0  0  0  0  0  0  0
   20.7305   17.3753   22.0719 H   0  0  0  0  0  0  0  0  0  0  0  0
   19.8152   17.4410   23.5613 H   0  0  0  0  0  0  0  0  0  0  0  0
   18.6510   17.8122   21.7488 C   0  0  0  0  0  0  0  0  0  0  0  0
   18.4372   16.7454   21.5938 H   0  0  0  0  0  0  0  0  0  0  0  0
   18.8198   18.2377   20.7496 H   0  0  0  0  0  0  0  0  0  0  0  0
   17.4125   18.4793   22.3871 C   0  0  0  0  0  0  0  0  0  0  0  0
   17.2415   18.1059   23.4051 H   0  0  0  0  0  0  0  0  0  0  0  0
   16.5131   18.2628   21.7960 H   0  0  0  0  0  0  0  0  0  0  0  0
   17.5216   19.5702   22.4292 H   0  0  0  0  0  0  0  0  0  0  0  0
  1  2  1  0  0  0  0
  1  3  1  0  0  0  0
  1  4  1  0  0  0  0
  1  5  1  0  0  0  0
  5  6  1  0  0  0  0
  5  7  1  0  0  0  0
  7  8  1  0  0  0  0
  7  9  1  0  0  0  0
  7 10  1  0  0  0  0
  5 11  1  0  0  0  0
 11 12  1  0  0  0  0
 11 13  1  0  0  0  0
 11 14  1  0  0  0  0
 14 15  1  0  0  0  0
 14 16  1  0  0  0  0
 14 17  1  0  0  0  0
 17 18  1  0  0  0  0
 17 19  1  0  0  0  0
 17 20  1  0  0  0  0
M  END
> <VConfSearch Rank>
607

> <Conf_Id>
3

> <Delta U+W>
3.093

> <U+W>
-33.184

> <U>
25.256

> <W>
-58.439

> <W(PB)>
-60.337

> <W(SA)>
1.898

> <Valence>
4.963

> <Coulomb>
19.511

> <VdW>
0.782

> <VdW6>
-5.429

> <VdW12>
6.211

> <Bond>
0.174

> <Angle>
1.377

> <Pdih>
3.412

> <Idih>
0.000

> <Tether>
0.000

$$$$
VeraChem MOL file


 20 19  0  0  0  0  0  0  0  0999 V2000     
   20.9878   20.2602   21.4462 N   0  3  0  0  0  0  0  0  0  0  0  0
   21.5623   21.0222   21.8162 H   0  0  0  0  0  0  0  0  0  0  0  0
   20.3214   20.6753   20.7895 H   0  0  0  0  0  0  0  0  0  0  0  0
   21.6059   19.6470   20.9089 H   0  0  0  0  0  0  0  0  0  0  0  0
   20.2890   19.5120   22.5482 C   0  0  2  0  0  0  0  0  0  0  0  0
   19.6602   20.2435   23.0645 H   0  0  0  0  0  0  0  0  0  0  0  0
   21.3149   18.9574   23.5532 C   0  0  0  0  0  0  0  0  0  0  0  0
   20.8193   18.5312   24.4331 H   0  0  0  0  0  0  0  0  0  0  0  0
   21.9779   19.7554   23.9091 H   0  0  0  0  0  0  0  0  0  0  0  0
   21.9362   18.1770   23.0966 H   0  0  0  0  0  0  0  0  0  0  0  0
   19.3746   18.4012   21.9785 C   0  0  0  0  0  0  0  0  0  0  0  0
   18.7227   18.8413   21.2125 H   0  0  0  0  0  0  0  0  0  0  0  0
   19.9903   17.6536   21.4611 H   0  0  0  0  0  0  0  0  0  0  0  0
   18.4827   17.6857   23.0252 C   0  0  0  0  0  0  0  0  0  0  0  0
   19.1037   17.1213   23.7338 H   0  0  0  0  0  0  0  0  0  0  0  0
   17.8636   16.9391   22.5084 H   0  0  0  0  0  0  0  0  0  0  0  0
   17.5584   18.6547   23.7972 C   0  0  0  0  0  0  0  0  0  0  0  0
   16.9289   19.2330   23.1084 H   0  0  0  0  0  0  0  0  0  0  0  0
   18.1345   19.3595   24.4099 H   0  0  0  0  0  0  0  0  0  0  0  0
   16.8940   18.0979   24.4707 H   0  0  0  0  0  0  0  0  0  0  0  0
  1  2  1  0  0  0  0
  1  3  1  0  0  0  0
  1  4  1  0  0  0  0
  1  5  1  0  0  0  0
  5  6  1  0  0  0  0
  5  7  1  0  0  0  0
  7  8  1  0  0  0  0
  7  9  1  0  0  0  0
  7 10  1  0  0  0  0
  5 11  1  0  0  0  0
 11 12  1  0  0  0  0
 11 13  1  0  0  0  0
 11 14  1  0  0  0  0
 14 15  1  0  0  0  0
 14 16  1  0  0  0  0
 14 17  1  0  0  0  0
 17 18  1  0  0  0  0
 17 19  1  0  0  0  0
 17 20  1  0  0  0  0
M  END
> <VConfSearch Rank>
608

> <Conf_Id>
64

> <Delta U+W>
0.544

> <U+W>
-35.732

> <U>
22.800

> <W>
-58.532

> <W(PB)>
-60.437

> <W(SA)>
1.905

> <Valence>
2.662

> <Coulomb>
19.485

> <VdW>
0.653

> <VdW6>
-5.460

> <VdW12>
6.113

> <Bond>
0.174

> <Angle>
1.378

> <Pdih>
1.109

> <Idih>
0.000

> <Tether>
0.000

$$$$
VeraChem MOL file


 20 19  0  0  0  0  0  0  0  0999 V2000     
   18.9230   20.8482   22.6598 N   0  3  0  0  0  0  0  0  0  0  0  0
   19.9124   21.0573   22.5092 H   0  0  0  0  0  0  0  0  0  0  0  0
   18.5818   21.4884   23.3818 H   0  0  0  0  0  0  0  0  0  0  0  0
   18.4260   21.0746   21.7941 H   0  0  0  0  0  0  0  0  0  0  0  0
   18.7176   19.4112   23.0567 C   0  0  2  0  0  0  0  0  0  0  0  0
   17.6395   19.2927   23.2040 H   0  0  0  0  0  0  0  0  0  0  0  0
   19.4004   19.1109   24.4011 C   0  0  0  0  0  0  0  0  0  0  0  0
   20.4721   19.3392   24.3670 H   0  0  0  0  0  0  0  0  0  0  0  0
   19.2761   18.0562   24.6758 H   0  0  0  0  0  0  0  0  0  0  0  0
   18.9561   19.7172   25.1999 H   0  0  0  0  0  0  0  0  0  0  0  0
   19.1312   18.4251   21.9353 C   0  0  0  0  0  0  0  0  0  0  0  0
   18.8021   17.4120   22.2016 H   0  0  0  0  0  0  0  0  0  0  0  0
   18.5552   18.6883   21.0384 H   0  0  0  0  0  0  0  0  0  0  0  0
   20.6386   18.4071   21.5579 C   0  0  0  0  0  0  0  0  0  0  0  0
   21.0920   19.3956   21.7082 H   0  0  0  0  0  0  0  0  0  0  0  0
   20.7233   18.1999   20.4818 H   0  0  0  0  0  0  0  0  0  0  0  0
   21.4517   17.3283   22.3114 C   0  0  0  0  0  0  0  0  0  0  0  0
   21.4529   17.4925   23.3944 H   0  0  0  0  0  0  0  0  0  0  0  0
   22.4968   17.3320   21.9756 H   0  0  0  0  0  0  0  0  0  0  0  0
   21.0458   16.3262   22.1212 H   0  0  0  0  0  0  0  0  0  0  0  0
  1  2  1  0  0  0  0
  1  3  1  0  0  0  0
  1  4  1  0  0  0  0
  1  5  1  0  0  0  0
  5  6  1  0  0  0  0
  5  7  1  0  0  0  0
  7  8  1  0  0  0  0
  7  9  1  0  0  0  0
  7 10  1  0  0  0  0
  5 11  1  0  0  0  0
 11 12  1  0  0  0  0
 11 13  1  0  0  0  0
 11 14  1  0  0  0  0
 14 15  1  0  0  0  0
 14 16  1  0  0  0  0
 14 17  1  0  0  0  0
 17 18  1  0  0  0  0
 17 19  1  0  0  0  0
 17 20  1  0  0  0  0
M  END
> <VConfSearch Rank>
609

> <Conf_Id>
35

> <Delta U+W>
3.004

> <U+W>
-33.272

> <U>
25.367

> <W>
-58.639

> <W(PB)>
-60.512

> <W(SA)>
1.873

> <Valence>
4.943

> <Coulomb>
19.661

> <VdW>
0.764

> <VdW6>
-5.871

> <VdW12>
6.636

> <Bond>
0.230

> <Angle>
1.857

> <Pdih>
2.855

> <Idih>
0.000

> <Tether>
0.000

$$$$
VeraChem MOL file


 20 19  0  0  0  0  0  0  0  0999 V2000     
   19.3642   18.4812   24.3547 N   0  3  0  0  0  0  0  0  0  0  0  0
   19.7121   18.6101   25.3086 H   0  0  0  0  0  0  0  0  0  0  0  0
   18.7253   17.6817   24.3689 H   0  0  0  0  0  0  0  0  0  0  0  0
   18.8148   19.3074   24.1108 H   0  0  0  0  0  0  0  0  0  0  0  0
   20.4903   18.2691   23.3804 C   0  0  2  0  0  0  0  0  0  0  0  0
   20.9930   17.3558   23.7137 H   0  0  0  0  0  0  0  0  0  0  0  0
   21.5193   19.4112   23.4542 C   0  0  0  0  0  0  0  0  0  0  0  0
   21.0643   20.3816   23.2229 H   0  0  0  0  0  0  0  0  0  0  0  0
   22.3419   19.2396   22.7491 H   0  0  0  0  0  0  0  0  0  0  0  0
   21.9514   19.4746   24.4603 H   0  0  0  0  0  0  0  0  0  0  0  0
   20.0000   18.0080   21.9331 C   0  0  0  0  0  0  0  0  0  0  0  0
   20.8341   17.5628   21.3749 H   0  0  0  0  0  0  0  0  0  0  0  0
   19.2204   17.2355   21.9558 H   0  0  0  0  0  0  0  0  0  0  0  0
   19.4860   19.2311   21.1229 C   0  0  0  0  0  0  0  0  0  0  0  0
   19.2232   18.8834   20.1140 H   0  0  0  0  0  0  0  0  0  0  0  0
   20.2944   19.9612   20.9812 H   0  0  0  0  0  0  0  0  0  0  0  0
   18.2509   19.9345   21.7301 C   0  0  0  0  0  0  0  0  0  0  0  0
   17.4562   19.2138   21.9626 H   0  0  0  0  0  0  0  0  0  0  0  0
   17.8410   20.6633   21.0187 H   0  0  0  0  0  0  0  0  0  0  0  0
   18.5079   20.4857   22.6420 H   0  0  0  0  0  0  0  0  0  0  0  0
  1  2  1  0  0  0  0
  1  3  1  0  0  0  0
  1  4  1  0  0  0  0
  1  5  1  0  0  0  0
  5  6  1  0  0  0  0
  5  7  1  0  0  0  0
  7  8  1  0  0  0  0
  7  9  1  0  0  0  0
  7 10  1  0  0  0  0
  5 11  1  0  0  0  0
 11 12  1  0  0  0  0
 11 13  1  0  0  0  0
 11 14  1  0  0  0  0
 14 15  1  0  0  0  0
 14 16  1  0  0  0  0
 14 17  1  0  0  0  0
 17 18  1  0  0  0  0
 17 19  1  0  0  0  0
 17 20  1  0  0  0  0
M  END
> <VConfSearch Rank>
610

> <Conf_Id>
55

> <Delta U+W>
2.767

> <U+W>
-33.509

> <U>
24.552

> <W>
-58.061

> <W(PB)>
-59.930

> <W(SA)>
1.869

> <Valence>
3.726

> <Coulomb>
20.219

> <VdW>
0.606

> <VdW6>
-6.395

> <VdW12>
7.001

> <Bond>
0.241

> <Angle>
2.098

> <Pdih>
1.387

> <Idih>
0.000

> <Tether>
0.000

$$$$
VeraChem MOL file


 20 19  0  0  0  0  0  0  0  0999 V2000     
   19.9096   17.0154   22.4070 N   0  3  0  0  0  0  0  0  0  0  0  0
   20.8773   17.0146   22.0752 H   0  0  0  0  0  0  0  0  0  0  0  0
   19.4553   16.1815   22.0250 H   0  0  0  0  0  0  0  0  0  0  0  0
   19.9331   16.9093   23.4243 H   0  0  0  0  0  0  0  0  0  0  0  0
   19.1878   18.2715   21.9992 C   0  0  2  0  0  0  0  0  0  0  0  0
   18.1704   18.1925   22.3947 H   0  0  0  0  0  0  0  0  0  0  0  0
   19.1020   18.3720   20.4674 C   0  0  0  0  0  0  0  0  0  0  0  0
   18.6081   17.4873   20.0471 H   0  0  0  0  0  0  0  0  0  0  0  0
   20.0996   18.4523   20.0179 H   0  0  0  0  0  0  0  0  0  0  0  0
   18.5199   19.2517   20.1661 H   0  0  0  0  0  0  0  0  0  0  0  0
   19.8359   19.5453   22.5853 C   0  0  0  0  0  0  0  0  0  0  0  0
   20.8682   19.6358   22.2219 H   0  0  0  0  0  0  0  0  0  0  0  0
   19.2939   20.4234   22.2095 H   0  0  0  0  0  0  0  0  0  0  0  0
   19.8217   19.5751   24.1327 C   0  0  0  0  0  0  0  0  0  0  0  0
   20.4062   18.7363   24.5342 H   0  0  0  0  0  0  0  0  0  0  0  0
   18.7920   19.4485   24.4961 H   0  0  0  0  0  0  0  0  0  0  0  0
   20.3985   20.8973   24.6826 C   0  0  0  0  0  0  0  0  0  0  0  0
   21.4387   21.0383   24.3613 H   0  0  0  0  0  0  0  0  0  0  0  0
   20.3820   20.9007   25.7802 H   0  0  0  0  0  0  0  0  0  0  0  0
   19.8137   21.7590   24.3351 H   0  0  0  0  0  0  0  0  0  0  0  0
  1  2  1  0  0  0  0
  1  3  1  0  0  0  0
  1  4  1  0  0  0  0
  1  5  1  0  0  0  0
  5  6  1  0  0  0  0
  5  7  1  0  0  0  0
  7  8  1  0  0  0  0
  7  9  1  0  0  0  0
  7 10  1  0  0  0  0
  5 11  1  0  0  0  0
 11 12  1  0  0  0  0
 11 13  1  0  0  0  0
 11 14  1  0  0  0  0
 14 15  1  0  0  0  0
 14 16  1  0  0  0  0
 14 17  1  0  0  0  0
 17 18  1  0  0  0  0
 17 19  1  0  0  0  0
 17 20  1  0  0  0  0
M  END
> <VConfSearch Rank>
611

> <Conf_Id>
74

> <Delta U+W>
0.000

> <U+W>
-36.276

> <U>
22.080

> <W>
-58.356

> <W(PB)>
-60.289

> <W(SA)>
1.932

> <Valence>
1.885

> <Coulomb>
19.559

> <VdW>
0.637

> <VdW6>
-4.482

> <VdW12>
5.119

> <Bond>
0.136

> <Angle>
0.867

> <Pdih>
0.882

> <Idih>
0.000

> <Tether>
0.000

$$$$
VeraChem MOL file


 20 19  0  0  0  0  0  0  0  0999 V2000     
   20.5536   16.8063   21.9912 N   0  3  0  0  0  0  0  0  0  0  0  0
   19.8379   16.5301   21.3135 H   0  0  0  0  0  0  0  0  0  0  0  0
   20.3784   16.2826   22.8524 H   0  0  0  0  0  0  0  0  0  0  0  0
   21.4556   16.4927   21.6227 H   0  0  0  0  0  0  0  0  0  0  0  0
   20.5444   18.2905   22.2353 C   0  0  2  0  0  0  0  0  0  0  0  0
   20.7414   18.7631   21.2680 H   0  0  0  0  0  0  0  0  0  0  0  0
   21.6753   18.6790   23.2053 C   0  0  0  0  0  0  0  0  0  0  0  0
   22.6372   18.2852   22.8548 H   0  0  0  0  0  0  0  0  0  0  0  0
   21.4909   18.2802   24.2106 H   0  0  0  0  0  0  0  0  0  0  0  0
   21.7802   19.7674   23.2810 H   0  0  0  0  0  0  0  0  0  0  0  0
   19.1600   18.7669   22.7331 C   0  0  0  0  0  0  0  0  0  0  0  0
   18.3917   18.3669   22.0583 H   0  0  0  0  0  0  0  0  0  0  0  0
   18.9561   18.3394   23.7239 H   0  0  0  0  0  0  0  0  0  0  0  0
   19.0113   20.3070   22.7888 C   0  0  0  0  0  0  0  0  0  0  0  0
   19.2766   20.7405   21.8143 H   0  0  0  0  0  0  0  0  0  0  0  0
   19.7064   20.7307   23.5259 H   0  0  0  0  0  0  0  0  0  0  0  0
   17.5732   20.7274   23.1612 C   0  0  0  0  0  0  0  0  0  0  0  0
   16.8492   20.3590   22.4228 H   0  0  0  0  0  0  0  0  0  0  0  0
   17.4867   21.8211   23.1998 H   0  0  0  0  0  0  0  0  0  0  0  0
   17.2886   20.3325   24.1453 H   0  0  0  0  0  0  0  0  0  0  0  0
  1  2  1  0  0  0  0
  1  3  1  0  0  0  0
  1  4  1  0  0  0  0
  1  5  1  0  0  0  0
  5  6  1  0  0  0  0
  5  7  1  0  0  0  0
  7  8  1  0  0  0  0
  7  9  1  0  0  0  0
  7 10  1  0  0  0  0
  5 11  1  0  0  0  0
 11 12  1  0  0  0  0
 11 13  1  0  0  0  0
 11 14  1  0  0  0  0
 14 15  1  0  0  0  0
 14 16  1  0  0  0  0
 14 17  1  0  0  0  0
 17 18  1  0  0  0  0
 17 19  1  0  0  0  0
 17 20  1  0  0  0  0
M  END
> <VConfSearch Rank>
612

> <Conf_Id>
80

> <Delta U+W>
0.460

> <U+W>
-35.817

> <U>
22.495

> <W>
-58.311

> <W(PB)>
-60.259

> <W(SA)>
1.948

> <Valence>
2.419

> <Coulomb>
19.304

> <VdW>
0.772

> <VdW6>
-4.635

> <VdW12>
5.407

> <Bond>
0.149

> <Angle>
1.142

> <Pdih>
1.129

> <Idih>
0.000

> <Tether>
0.000

$$$$
VeraChem MOL file


 20 19  0  0  0  0  0  0  0  0999 V2000     
   20.4810   21.0638   23.4299 N   0  3  0  0  0  0  0  0  0  0  0  0
   20.1212   21.7923   22.8072 H   0  0  0  0  0  0  0  0  0  0  0  0
   21.4631   20.9111   23.1876 H   0  0  0  0  0  0  0  0  0  0  0  0
   20.4574   21.4406   24.3812 H   0  0  0  0  0  0  0  0  0  0  0  0
   19.6815   19.7943   23.3204 C   0  0  2  0  0  0  0  0  0  0  0  0
   18.6560   20.0530   23.6017 H   0  0  0  0  0  0  0  0  0  0  0  0
   20.2025   18.7491   24.3217 C   0  0  0  0  0  0  0  0  0  0  0  0
   20.2840   19.1818   25.3263 H   0  0  0  0  0  0  0  0  0  0  0  0
   21.1920   18.3764   24.0296 H   0  0  0  0  0  0  0  0  0  0  0  0
   19.5158   17.8980   24.3936 H   0  0  0  0  0  0  0  0  0  0  0  0
   19.6625   19.2735   21.8624 C   0  0  0  0  0  0  0  0  0  0  0  0
   19.3140   20.0958   21.2236 H   0  0  0  0  0  0  0  0  0  0  0  0
   20.6833   19.0473   21.5270 H   0  0  0  0  0  0  0  0  0  0  0  0
   18.7334   18.0560   21.6132 C   0  0  0  0  0  0  0  0  0  0  0  0
   18.2706   18.1656   20.6223 H   0  0  0  0  0  0  0  0  0  0  0  0
   17.9037   18.0545   22.3340 H   0  0  0  0  0  0  0  0  0  0  0  0
   19.4761   16.6993   21.6435 C   0  0  0  0  0  0  0  0  0  0  0  0
   20.2585   16.6636   20.8743 H   0  0  0  0  0  0  0  0  0  0  0  0
   18.7785   15.8752   21.4458 H   0  0  0  0  0  0  0  0  0  0  0  0
   19.9486   16.5082   22.6134 H   0  0  0  0  0  0  0  0  0  0  0  0
  1  2  1  0  0  0  0
  1  3  1  0  0  0  0
  1  4  1  0  0  0  0
  1  5  1  0  0  0  0
  5  6  1  0  0  0  0
  5  7  1  0  0  0  0
  7  8  1  0  0  0  0
  7  9  1  0  0  0  0
  7 10  1  0  0  0  0
  5 11  1  0  0  0  0
 11 12  1  0  0  0  0
 11 13  1  0  0  0  0
 11 14  1  0  0  0  0
 14 15  1  0  0  0  0
 14 16  1  0  0  0  0
 14 17  1  0  0  0  0
 17 18  1  0  0  0  0
 17 19  1  0  0  0  0
 17 20  1  0  0  0  0
M  END
> <VConfSearch Rank>
613

> <Conf_Id>
52

> <Delta U+W>
2.995

> <U+W>
-33.282

> <U>
25.224

> <W>
-58.506

> <W(PB)>
-60.411

> <W(SA)>
1.905

> <Valence>
4.945

> <Coulomb>
19.467

> <VdW>
0.813

> <VdW6>
-5.458

> <VdW12>
6.270

> <Bond>
0.200

> <Angle>
1.675

> <Pdih>
3.070

> <Idih>
0.000

> <Tether>
0.000

$$$$
VeraChem MOL file


 20 19  0  0  0  0  0  0  0  0999 V2000     
   20.1610   20.3559   23.5593 N   0  3  0  0  0  0  0  0  0  0  0  0
   20.5399   20.0155   24.4464 H   0  0  0  0  0  0  0  0  0  0  0  0
   19.8757   21.3286   23.7015 H   0  0  0  0  0  0  0  0  0  0  0  0
   20.9245   20.3541   22.8797 H   0  0  0  0  0  0  0  0  0  0  0  0
   19.0114   19.5057   23.0916 C   0  0  2  0  0  0  0  0  0  0  0  0
   18.6307   19.9571   22.1701 H   0  0  0  0  0  0  0  0  0  0  0  0
   17.8854   19.5290   24.1392 C   0  0  0  0  0  0  0  0  0  0  0  0
   18.2106   19.0715   25.0819 H   0  0  0  0  0  0  0  0  0  0  0  0
   17.0051   18.9820   23.7795 H   0  0  0  0  0  0  0  0  0  0  0  0
   17.5712   20.5588   24.3493 H   0  0  0  0  0  0  0  0  0  0  0  0
   19.4301   18.0486   22.7821 C   0  0  0  0  0  0  0  0  0  0  0  0
   20.0434   17.6529   23.6024 H   0  0  0  0  0  0  0  0  0  0  0  0
   18.5276   17.4235   22.7544 H   0  0  0  0  0  0  0  0  0  0  0  0
   20.1611   17.8558   21.4275 C   0  0  0  0  0  0  0  0  0  0  0  0
   19.5211   18.2109   20.6075 H   0  0  0  0  0  0  0  0  0  0  0  0
   20.2947   16.7776   21.2612 H   0  0  0  0  0  0  0  0  0  0  0  0
   21.5452   18.5375   21.3337 C   0  0  0  0  0  0  0  0  0  0  0  0
   22.0781   18.1913   20.4384 H   0  0  0  0  0  0  0  0  0  0  0  0
   22.1689   18.2973   22.2047 H   0  0  0  0  0  0  0  0  0  0  0  0
   21.4547   19.6266   21.2494 H   0  0  0  0  0  0  0  0  0  0  0  0
  1  2  1  0  0  0  0
  1  3  1  0  0  0  0
  1  4  1  0  0  0  0
  1  5  1  0  0  0  0
  5  6  1  0  0  0  0
  5  7  1  0  0  0  0
  7  8  1  0  0  0  0
  7  9  1  0  0  0  0
  7 10  1  0  0  0  0
  5 11  1  0  0  0  0
 11 12  1  0  0  0  0
 11 13  1  0  0  0  0
 11 14  1  0  0  0  0
 14 15  1  0  0  0  0
 14 16  1  0  0  0  0
 14 17  1  0  0  0  0
 17 18  1  0  0  0  0
 17 19  1  0  0  0  0
 17 20  1  0  0  0  0
M  END
> <VConfSearch Rank>
614

> <Conf_Id>
54

> <Delta U+W>
2.752

> <U+W>
-33.525

> <U>
24.337

> <W>
-57.862

> <W(PB)>
-59.764

> <W(SA)>
1.901

> <Valence>
3.593

> <Coulomb>
20.067

> <VdW>
0.677

> <VdW6>
-5.466

> <VdW12>
6.144

> <Bond>
0.191

> <Angle>
1.557

> <Pdih>
1.845

> <Idih>
0.000

> <Tether>
0.000

$$$$
VeraChem MOL file


 20 19  0  0  0  0  0  0  0  0999 V2000     
   19.5880   20.8722   21.9459 N   0  3  0  0  0  0  0  0  0  0  0  0
   19.0286   21.7289   21.9739 H   0  0  0  0  0  0  0  0  0  0  0  0
   20.0025   20.8106   21.0120 H   0  0  0  0  0  0  0  0  0  0  0  0
   20.3530   20.9852   22.6149 H   0  0  0  0  0  0  0  0  0  0  0  0
   18.7550   19.6599   22.2625 C   0  0  2  0  0  0  0  0  0  0  0  0
   17.9604   19.6338   21.5102 H   0  0  0  0  0  0  0  0  0  0  0  0
   18.0839   19.7947   23.6410 C   0  0  0  0  0  0  0  0  0  0  0  0
   17.4790   18.9083   23.8688 H   0  0  0  0  0  0  0  0  0  0  0  0
   17.4169   20.6653   23.6593 H   0  0  0  0  0  0  0  0  0  0  0  0
   18.8222   19.9224   24.4415 H   0  0  0  0  0  0  0  0  0  0  0  0
   19.5536   18.3409   22.1307 C   0  0  0  0  0  0  0  0  0  0  0  0
   18.8687   17.4967   22.2853 H   0  0  0  0  0  0  0  0  0  0  0  0
   19.9104   18.2532   21.0961 H   0  0  0  0  0  0  0  0  0  0  0  0
   20.7585   18.2058   23.0973 C   0  0  0  0  0  0  0  0  0  0  0  0
   20.4151   18.2391   24.1398 H   0  0  0  0  0  0  0  0  0  0  0  0
   21.4497   19.0485   22.9620 H   0  0  0  0  0  0  0  0  0  0  0  0
   21.5244   16.8854   22.8665 C   0  0  0  0  0  0  0  0  0  0  0  0
   22.3725   16.8029   23.5586 H   0  0  0  0  0  0  0  0  0  0  0  0
   21.9190   16.8307   21.8434 H   0  0  0  0  0  0  0  0  0  0  0  0
   20.8726   16.0170   23.0282 H   0  0  0  0  0  0  0  0  0  0  0  0
  1  2  1  0  0  0  0
  1  3  1  0  0  0  0
  1  4  1  0  0  0  0
  1  5  1  0  0  0  0
  5  6  1  0  0  0  0
  5  7  1  0  0  0  0
  7  8  1  0  0  0  0
  7  9  1  0  0  0  0
  7 10  1  0  0  0  0
  5 11  1  0  0  0  0
 11 12  1  0  0  0  0
 11 13  1  0  0  0  0
 11 14  1  0  0  0  0
 14 15  1  0  0  0  0
 14 16  1  0  0  0  0
 14 17  1  0  0  0  0
 17 18  1  0  0  0  0
 17 19  1  0  0  0  0
 17 20  1  0  0  0  0
M  END
> <VConfSearch Rank>
615

> <Conf_Id>
63

> <Delta U+W>
0.420

> <U+W>
-35.856

> <U>
22.625

> <W>
-58.481

> <W(PB)>
-60.400

> <W(SA)>
1.919

> <Valence>
2.404

> <Coulomb>
19.464

> <VdW>
0.757

> <VdW6>
-5.074

> <VdW12>
5.830

> <Bond>
0.172

> <Angle>
1.207

> <Pdih>
1.025

> <Idih>
0.000

> <Tether>
0.000

$$$$
VeraChem MOL file


 20 19  0  0  0  0  0  0  0  0999 V2000     
   17.9465   18.9861   23.1063 N   0  3  0  0  0  0  0  0  0  0  0  0
   17.8468   18.6632   22.1406 H   0  0  0  0  0  0  0  0  0  0  0  0
   17.5953   19.9460   23.1479 H   0  0  0  0  0  0  0  0  0  0  0  0
   17.3310   18.4098   23.6865 H   0  0  0  0  0  0  0  0  0  0  0  0
   19.3768   18.9020   23.5661 C   0  0  2  0  0  0  0  0  0  0  0  0
   19.6694   17.8503   23.4932 H   0  0  0  0  0  0  0  0  0  0  0  0
   19.5006   19.3320   25.0369 C   0  0  0  0  0  0  0  0  0  0  0  0
   18.8547   18.7181   25.6767 H   0  0  0  0  0  0  0  0  0  0  0  0
   19.2137   20.3826   25.1696 H   0  0  0  0  0  0  0  0  0  0  0  0
   20.5314   19.2119   25.3926 H   0  0  0  0  0  0  0  0  0  0  0  0
   20.3322   19.7334   22.6802 C   0  0  0  0  0  0  0  0  0  0  0  0
   20.0645   20.7959   22.7529 H   0  0  0  0  0  0  0  0  0  0  0  0
   21.3528   19.6468   23.0764 H   0  0  0  0  0  0  0  0  0  0  0  0
   20.3413   19.3141   21.1882 C   0  0  0  0  0  0  0  0  0  0  0  0
   21.0428   19.9620   20.6442 H   0  0  0  0  0  0  0  0  0  0  0  0
   19.3555   19.4917   20.7375 H   0  0  0  0  0  0  0  0  0  0  0  0
   20.7539   17.8396   20.9758 C   0  0  0  0  0  0  0  0  0  0  0  0
   21.7380   17.6377   21.4185 H   0  0  0  0  0  0  0  0  0  0  0  0
   20.8155   17.6081   19.9045 H   0  0  0  0  0  0  0  0  0  0  0  0
   20.0288   17.1477   21.4222 H   0  0  0  0  0  0  0  0  0  0  0  0
  1  2  1  0  0  0  0
  1  3  1  0  0  0  0
  1  4  1  0  0  0  0
  1  5  1  0  0  0  0
  5  6  1  0  0  0  0
  5  7  1  0  0  0  0
  7  8  1  0  0  0  0
  7  9  1  0  0  0  0
  7 10  1  0  0  0  0
  5 11  1  0  0  0  0
 11 12  1  0  0  0  0
 11 13  1  0  0  0  0
 11 14  1  0  0  0  0
 14 15  1  0  0  0  0
 14 16  1  0  0  0  0
 14 17  1  0  0  0  0
 17 18  1  0  0  0  0
 17 19  1  0  0  0  0
 17 20  1  0  0  0  0
M  END
> <VConfSearch Rank>
616

> <Conf_Id>
50

> <Delta U+W>
0.466

> <U+W>
-35.811

> <U>
22.369

> <W>
-58.180

> <W(PB)>
-60.103

> <W(SA)>
1.923

> <Valence>
2.168

> <Coulomb>
19.636

> <VdW>
0.566

> <VdW6>
-5.263

> <VdW12>
5.829

> <Bond>
0.162

> <Angle>
1.066

> <Pdih>
0.939

> <Idih>
0.000

> <Tether>
0.000

$$$$
VeraChem MOL file


 20 19  0  0  0  0  0  0  0  0999 V2000     
   21.8343   18.0259   22.7072 N   0  3  0  0  0  0  0  0  0  0  0  0
   22.3735   18.7000   22.1567 H   0  0  0  0  0  0  0  0  0  0  0  0
   21.7862   17.1576   22.1682 H   0  0  0  0  0  0  0  0  0  0  0  0
   22.3731   17.8283   23.5548 H   0  0  0  0  0  0  0  0  0  0  0  0
   20.4623   18.5492   23.0363 C   0  0  2  0  0  0  0  0  0  0  0  0
   20.6163   19.4717   23.6046 H   0  0  0  0  0  0  0  0  0  0  0  0
   19.7131   17.5400   23.9264 C   0  0  0  0  0  0  0  0  0  0  0  0
   19.5789   16.5813   23.4103 H   0  0  0  0  0  0  0  0  0  0  0  0
   18.7222   17.9108   24.2098 H   0  0  0  0  0  0  0  0  0  0  0  0
   20.2720   17.3514   24.8512 H   0  0  0  0  0  0  0  0  0  0  0  0
   19.6553   18.8978   21.7613 C   0  0  0  0  0  0  0  0  0  0  0  0
   20.3450   18.9809   20.9110 H   0  0  0  0  0  0  0  0  0  0  0  0
   18.9689   18.0795   21.5060 H   0  0  0  0  0  0  0  0  0  0  0  0
   18.8780   20.2352   21.8568 C   0  0  0  0  0  0  0  0  0  0  0  0
   18.4036   20.4353   20.8858 H   0  0  0  0  0  0  0  0  0  0  0  0
   19.5849   21.0596   22.0265 H   0  0  0  0  0  0  0  0  0  0  0  0
   17.7915   20.2578   22.9546 C   0  0  0  0  0  0  0  0  0  0  0  0
   17.0925   19.4195   22.8378 H   0  0  0  0  0  0  0  0  0  0  0  0
   17.2105   21.1877   22.8997 H   0  0  0  0  0  0  0  0  0  0  0  0
   18.2335   20.2067   23.9574 H   0  0  0  0  0  0  0  0  0  0  0  0
  1  2  1  0  0  0  0
  1  3  1  0  0  0  0
  1  4  1  0  0  0  0
  1  5  1  0  0  0  0
  5  6  1  0  0  0  0
  5  7  1  0  0  0  0
  7  8  1  0  0  0  0
  7  9  1  0  0  0  0
  7 10  1  0  0  0  0
  5 11  1  0  0  0  0
 11 12  1  0  0  0  0
 11 13  1  0  0  0  0
 11 14  1  0  0  0  0
 14 15  1  0  0  0  0
 14 16  1  0  0  0  0
 14 17  1  0  0  0  0
 17 18  1  0  0  0  0
 17 19  1  0  0  0  0
 17 20  1  0  0  0  0
M  END
> <VConfSearch Rank>
617

> <Conf_Id>
3

> <Delta U+W>
3.093

> <U+W>
-33.184

> <U>
25.256

> <W>
-58.439

> <W(PB)>
-60.337

> <W(SA)>
1.898

> <Valence>
4.963

> <Coulomb>
19.511

> <VdW>
0.782

> <VdW6>
-5.429

> <VdW12>
6.211

> <Bond>
0.174

> <Angle>
1.377

> <Pdih>
3.412

> <Idih>
0.000

> <Tether>
0.000

$$$$
VeraChem MOL file


 20 19  0  0  0  0  0  0  0  0999 V2000     
   18.1373   20.2382   23.8330 N   0  3  0  0  0  0  0  0  0  0  0  0
   17.8569   21.1631   23.4959 H   0  0  0  0  0  0  0  0  0  0  0  0
   18.5416   20.3658   24.7647 H   0  0  0  0  0  0  0  0  0  0  0  0
   17.2847   19.6834   23.9424 H   0  0  0  0  0  0  0  0  0  0  0  0
   19.1081   19.5797   22.8916 C   0  0  2  0  0  0  0  0  0  0  0  0
   19.9776   20.2416   22.8355 H   0  0  0  0  0  0  0  0  0  0  0  0
   18.4943   19.4632   21.4846 C   0  0  0  0  0  0  0  0  0  0  0  0
   19.2348   19.1148   20.7553 H   0  0  0  0  0  0  0  0  0  0  0  0
   18.1324   20.4391   21.1384 H   0  0  0  0  0  0  0  0  0  0  0  0
   17.6488   18.7643   21.4768 H   0  0  0  0  0  0  0  0  0  0  0  0
   19.5751   18.2091   23.4372 C   0  0  0  0  0  0  0  0  0  0  0  0
   19.9267   18.3429   24.4687 H   0  0  0  0  0  0  0  0  0  0  0  0
   18.7151   17.5287   23.4947 H   0  0  0  0  0  0  0  0  0  0  0  0
   20.7046   17.5294   22.6215 C   0  0  0  0  0  0  0  0  0  0  0  0
   20.3426   17.2590   21.6204 H   0  0  0  0  0  0  0  0  0  0  0  0
   20.9702   16.5817   23.1104 H   0  0  0  0  0  0  0  0  0  0  0  0
   21.9739   18.4030   22.4998 C   0  0  0  0  0  0  0  0  0  0  0  0
   22.3532   18.6886   23.4897 H   0  0  0  0  0  0  0  0  0  0  0  0
   21.7795   19.3196   21.9288 H   0  0  0  0  0  0  0  0  0  0  0  0
   22.7707   17.8536   21.9817 H   0  0  0  0  0  0  0  0  0  0  0  0
  1  2  1  0  0  0  0
  1  3  1  0  0  0  0
  1  4  1  0  0  0  0
  1  5  1  0  0  0  0
  5  6  1  0  0  0  0
  5  7  1  0  0  0  0
  7  8  1  0  0  0  0
  7  9  1  0  0  0  0
  7 10  1  0  0  0  0
  5 11  1  0  0  0  0
 11 12  1  0  0  0  0
 11 13  1  0  0  0  0
 11 14  1  0  0  0  0
 14 15  1  0  0  0  0
 14 16  1  0  0  0  0
 14 17  1  0  0  0  0
 17 18  1  0  0  0  0
 17 19  1  0  0  0  0
 17 20  1  0  0  0  0
M  END
> <VConfSearch Rank>
618

> <Conf_Id>
64

> <Delta U+W>
0.544

> <U+W>
-35.732

> <U>
22.800

> <W>
-58.532

> <W(PB)>
-60.437

> <W(SA)>
1.905

> <Valence>
2.662

> <Coulomb>
19.485

> <VdW>
0.653

> <VdW6>
-5.460

> <VdW12>
6.113

> <Bond>
0.174

> <Angle>
1.378

> <Pdih>
1.109

> <Idih>
0.000

> <Tether>
0.000

$$$$
VeraChem MOL file


 20 19  0  0  0  0  0  0  0  0999 V2000     
   20.0818   20.5900   23.9577 N   0  3  0  0  0  0  0  0  0  0  0  0
   19.1412   20.2908   24.2241 H   0  0  0  0  0  0  0  0  0  0  0  0
   20.0508   21.6029   23.8132 H   0  0  0  0  0  0  0  0  0  0  0  0
   20.6974   20.4162   24.7567 H   0  0  0  0  0  0  0  0  0  0  0  0
   20.5596   19.8725   22.7241 C   0  0  2  0  0  0  0  0  0  0  0  0
   21.5594   20.2668   22.5170 H   0  0  0  0  0  0  0  0  0  0  0  0
   19.6728   20.2115   21.5148 C   0  0  0  0  0  0  0  0  0  0  0  0
   18.6218   19.9656   21.7061 H   0  0  0  0  0  0  0  0  0  0  0  0
   20.0030   19.6654   20.6225 H   0  0  0  0  0  0  0  0  0  0  0  0
   19.7281   21.2832   21.2880 H   0  0  0  0  0  0  0  0  0  0  0  0
   20.7139   18.3476   22.9517 C   0  0  0  0  0  0  0  0  0  0  0  0
   21.2257   17.9006   22.0894 H   0  0  0  0  0  0  0  0  0  0  0  0
   21.4008   18.2102   23.7972 H   0  0  0  0  0  0  0  0  0  0  0  0
   19.4071   17.5625   23.2539 C   0  0  0  0  0  0  0  0  0  0  0  0
   18.6835   18.1953   23.7842 H   0  0  0  0  0  0  0  0  0  0  0  0
   19.6484   16.7416   23.9438 H   0  0  0  0  0  0  0  0  0  0  0  0
   18.7526   16.9444   21.9960 C   0  0  0  0  0  0  0  0  0  0  0  0
   18.4410   17.7074   21.2744 H   0  0  0  0  0  0  0  0  0  0  0  0
   17.8606   16.3675   22.2725 H   0  0  0  0  0  0  0  0  0  0  0  0
   19.4453   16.2608   21.4881 H   0  0  0  0  0  0  0  0  0  0  0  0
  1  2  1  0  0  0  0
  1  3  1  0  0  0  0
  1  4  1  0  0  0  0
  1  5  1  0  0  0  0
  5  6  1  0  0  0  0
  5  7  1  0  0  0  0
  7  8  1  0  0  0  0
  7  9  1  0  0  0  0
  7 10  1  0  0  0  0
  5 11  1  0  0  0  0
 11 12  1  0  0  0  0
 11 13  1  0  0  0  0
 11 14  1  0  0  0  0
 14 15  1  0  0  0  0
 14 16  1  0  0  0  0
 14 17  1  0  0  0  0
 17 18  1  0  0  0  0
 17 19  1  0  0  0  0
 17 20  1  0  0  0  0
M  END
> <VConfSearch Rank>
619

> <Conf_Id>
35

> <Delta U+W>
3.004

> <U+W>
-33.272

> <U>
25.367

> <W>
-58.639

> <W(PB)>
-60.512

> <W(SA)>
1.873

> <Valence>
4.943

> <Coulomb>
19.661

> <VdW>
0.764

> <VdW6>
-5.871

> <VdW12>
6.636

> <Bond>
0.230

> <Angle>
1.857

> <Pdih>
2.855

> <Idih>
0.000

> <Tether>
0.000

$$$$
VeraChem MOL file


 20 19  0  0  0  0  0  0  0  0999 V2000     
   18.8865   20.1106   21.6817 N   0  3  0  0  0  0  0  0  0  0  0  0
   18.2255   20.8825   21.8031 H   0  0  0  0  0  0  0  0  0  0  0  0
   18.8111   19.7948   20.7111 H   0  0  0  0  0  0  0  0  0  0  0  0
   19.8283   20.4859   21.8091 H   0  0  0  0  0  0  0  0  0  0  0  0
   18.6113   18.9911   22.6480 C   0  0  2  0  0  0  0  0  0  0  0  0
   17.5993   18.6476   22.4119 H   0  0  0  0  0  0  0  0  0  0  0  0
   18.5964   19.4953   24.1019 C   0  0  0  0  0  0  0  0  0  0  0  0
   19.5561   19.9438   24.3849 H   0  0  0  0  0  0  0  0  0  0  0  0
   18.3822   18.6735   24.7963 H   0  0  0  0  0  0  0  0  0  0  0  0
   17.8179   20.2561   24.2369 H   0  0  0  0  0  0  0  0  0  0  0  0
   19.5538   17.7757   22.4536 C   0  0  0  0  0  0  0  0  0  0  0  0
   19.0956   16.9157   22.9594 H   0  0  0  0  0  0  0  0  0  0  0  0
   19.5752   17.5092   21.3889 H   0  0  0  0  0  0  0  0  0  0  0  0
   21.0112   17.9128   22.9769 C   0  0  0  0  0  0  0  0  0  0  0  0
   21.5252   16.9570   22.8033 H   0  0  0  0  0  0  0  0  0  0  0  0
   21.0132   18.0543   24.0662 H   0  0  0  0  0  0  0  0  0  0  0  0
   21.8351   19.0350   22.3055 C   0  0  0  0  0  0  0  0  0  0  0  0
   21.7804   18.9690   21.2110 H   0  0  0  0  0  0  0  0  0  0  0  0
   22.8920   18.9529   22.5910 H   0  0  0  0  0  0  0  0  0  0  0  0
   21.4943   20.0286   22.6185 H   0  0  0  0  0  0  0  0  0  0  0  0
  1  2  1  0  0  0  0
  1  3  1  0  0  0  0
  1  4  1  0  0  0  0
  1  5  1  0  0  0  0
  5  6  1  0  0  0  0
  5  7  1  0  0  0  0
  7  8  1  0  0  0  0
  7  9  1  0  0  0  0
  7 10  1  0  0  0  0
  5 11  1  0  0  0  0
 11 12  1  0  0  0  0
 11 13  1  0  0  0  0
 11 14  1  0  0  0  0
 14 15  1  0  0  0  0
 14 16  1  0  0  0  0
 14 17  1  0  0  0  0
 17 18  1  0  0  0  0
 17 19  1  0  0  0  0
 17 20  1  0  0  0  0
M  END
> <VConfSearch Rank>
620

> <Conf_Id>
55

> <Delta U+W>
2.767

> <U+W>
-33.509

> <U>
24.552

> <W>
-58.061

> <W(PB)>
-59.930

> <W(SA)>
1.869

> <Valence>
3.726

> <Coulomb>
20.219

> <VdW>
0.606

> <VdW6>
-6.395

> <VdW12>
7.001

> <Bond>
0.241

> <Angle>
2.098

> <Pdih>
1.387

> <Idih>
0.000

> <Tether>
0.000

$$$$
VeraChem MOL file


 20 19  0  0  0  0  0  0  0  0999 V2000     
   18.8217   17.8146   24.0342 N   0  3  0  0  0  0  0  0  0  0  0  0
   19.4178   16.9889   23.9371 H   0  0  0  0  0  0  0  0  0  0  0  0
   17.9139   17.4962   24.3838 H   0  0  0  0  0  0  0  0  0  0  0  0
   19.2344   18.4086   24.7577 H   0  0  0  0  0  0  0  0  0  0  0  0
   18.6819   18.5504   22.7288 C   0  0  2  0  0  0  0  0  0  0  0  0
   18.0379   19.4141   22.9216 H   0  0  0  0  0  0  0  0  0  0  0  0
   17.9939   17.6622   21.6792 C   0  0  0  0  0  0  0  0  0  0  0  0
   17.0151   17.3223   22.0393 H   0  0  0  0  0  0  0  0  0  0  0  0
   18.5997   16.7769   21.4491 H   0  0  0  0  0  0  0  0  0  0  0  0
   17.8304   18.2159   20.7463 H   0  0  0  0  0  0  0  0  0  0  0  0
   20.0346   19.0674   22.1911 C   0  0  0  0  0  0  0  0  0  0  0  0
   20.7093   18.2199   22.0112 H   0  0  0  0  0  0  0  0  0  0  0  0
   19.8686   19.5471   21.2172 H   0  0  0  0  0  0  0  0  0  0  0  0
   20.7141   20.0851   23.1388 C   0  0  0  0  0  0  0  0  0  0  0  0
   20.9424   19.6120   24.1034 H   0  0  0  0  0  0  0  0  0  0  0  0
   20.0243   20.9152   23.3467 H   0  0  0  0  0  0  0  0  0  0  0  0
   22.0191   20.6447   22.5329 C   0  0  0  0  0  0  0  0  0  0  0  0
   22.7421   19.8410   22.3416 H   0  0  0  0  0  0  0  0  0  0  0  0
   22.4879   21.3629   23.2181 H   0  0  0  0  0  0  0  0  0  0  0  0
   21.8249   21.1625   21.5846 H   0  0  0  0  0  0  0  0  0  0  0  0
  1  2  1  0  0  0  0
  1  3  1  0  0  0  0
  1  4  1  0  0  0  0
  1  5  1  0  0  0  0
  5  6  1  0  0  0  0
  5  7  1  0  0  0  0
  7  8  1  0  0  0  0
  7  9  1  0  0  0  0
  7 10  1  0  0  0  0
  5 11  1  0  0  0  0
 11 12  1  0  0  0  0
 11 13  1  0  0  0  0
 11 14  1  0  0  0  0
 14 15  1  0  0  0  0
 14 16  1  0  0  0  0
 14 17  1  0  0  0  0
 17 18  1  0  0  0  0
 17 19  1  0  0  0  0
 17 20  1  0  0  0  0
M  END
> <VConfSearch Rank>
621

> <Conf_Id>
74

> <Delta U+W>
0.000

> <U+W>
-36.276

> <U>
22.080

> <W>
-58.356

> <W(PB)>
-60.289

> <W(SA)>
1.932

> <Valence>
1.885

> <Coulomb>
19.559

> <VdW>
0.637

> <VdW6>
-4.482

> <VdW12>
5.119

> <Bond>
0.136

> <Angle>
0.867

> <Pdih>
0.882

> <Idih>
0.000

> <Tether>
0.000

$$$$
VeraChem MOL file


 20 19  0  0  0  0  0  0  0  0999 V2000     
   21.2760   20.6510   23.3598 N   0  3  0  0  0  0  0  0  0  0  0  0
   20.7494   21.4981   23.1299 H   0  0  0  0  0  0  0  0  0  0  0  0
   21.9667   20.5090   22.6185 H   0  0  0  0  0  0  0  0  0  0  0  0
   21.7914   20.8407   24.2235 H   0  0  0  0  0  0  0  0  0  0  0  0
   20.3719   19.4580   23.5086 C   0  0  2  0  0  0  0  0  0  0  0  0
   19.6756   19.6983   24.3182 H   0  0  0  0  0  0  0  0  0  0  0  0
   21.1871   18.2185   23.9205 C   0  0  0  0  0  0  0  0  0  0  0  0
   21.7985   18.4346   24.8052 H   0  0  0  0  0  0  0  0  0  0  0  0
   21.8582   17.8983   23.1137 H   0  0  0  0  0  0  0  0  0  0  0  0
   20.5329   17.3776   24.1776 H   0  0  0  0  0  0  0  0  0  0  0  0
   19.5508   19.2144   22.2210 C   0  0  0  0  0  0  0  0  0  0  0  0
   19.0826   20.1619   21.9231 H   0  0  0  0  0  0  0  0  0  0  0  0
   20.2239   18.9296   21.4015 H   0  0  0  0  0  0  0  0  0  0  0  0
   18.4410   18.1466   22.3797 C   0  0  0  0  0  0  0  0  0  0  0  0
   17.8044   18.3984   23.2396 H   0  0  0  0  0  0  0  0  0  0  0  0
   18.8845   17.1639   22.5884 H   0  0  0  0  0  0  0  0  0  0  0  0
   17.5678   18.0396   21.1109 C   0  0  0  0  0  0  0  0  0  0  0  0
   17.0702   18.9932   20.8912 H   0  0  0  0  0  0  0  0  0  0  0  0
   16.7894   17.2763   21.2392 H   0  0  0  0  0  0  0  0  0  0  0  0
   18.1722   17.7604   20.2380 H   0  0  0  0  0  0  0  0  0  0  0  0
  1  2  1  0  0  0  0
  1  3  1  0  0  0  0
  1  4  1  0  0  0  0
  1  5  1  0  0  0  0
  5  6  1  0  0  0  0
  5  7  1  0  0  0  0
  7  8  1  0  0  0  0
  7  9  1  0  0  0  0
  7 10  1  0  0  0  0
  5 11  1  0  0  0  0
 11 12  1  0  0  0  0
 11 13  1  0  0  0  0
 11 14  1  0  0  0  0
 14 15  1  0  0  0  0
 14 16  1  0  0  0  0
 14 17  1  0  0  0  0
 17 18  1  0  0  0  0
 17 19  1  0  0  0  0
 17 20  1  0  0  0  0
M  END
> <VConfSearch Rank>
622

> <Conf_Id>
80

> <Delta U+W>
0.460

> <U+W>
-35.817

> <U>
22.495

> <W>
-58.311

> <W(PB)>
-60.259

> <W(SA)>
1.948

> <Valence>
2.419

> <Coulomb>
19.304

> <VdW>
0.772

> <VdW6>
-4.635

> <VdW12>
5.407

> <Bond>
0.149

> <Angle>
1.142

> <Pdih>
1.129

> <Idih>
0.000

> <Tether>
0.000

$$$$
VeraChem MOL file


 20 19  0  0  0  0  0  0  0  0999 V2000     
   21.4878   20.1427   21.6413 N   0  3  0  0  0  0  0  0  0  0  0  0
   22.3061   19.5576   21.4516 H   0  0  0  0  0  0  0  0  0  0  0  0
   21.7051   20.7176   22.4591 H   0  0  0  0  0  0  0  0  0  0  0  0
   21.3779   20.7761   20.8448 H   0  0  0  0  0  0  0  0  0  0  0  0
   20.2513   19.3148   21.8611 C   0  0  2  0  0  0  0  0  0  0  0  0
   20.0970   18.7442   20.9400 H   0  0  0  0  0  0  0  0  0  0  0  0
   19.0300   20.2267   22.0687 C   0  0  0  0  0  0  0  0  0  0  0  0
   18.9699   20.9806   21.2742 H   0  0  0  0  0  0  0  0  0  0  0  0
   19.0825   20.7496   23.0316 H   0  0  0  0  0  0  0  0  0  0  0  0
   18.0989   19.6497   22.0347 H   0  0  0  0  0  0  0  0  0  0  0  0
   20.4549   18.3089   23.0205 C   0  0  0  0  0  0  0  0  0  0  0  0
   21.3638   17.7331   22.8010 H   0  0  0  0  0  0  0  0  0  0  0  0
   20.6603   18.8451   23.9564 H   0  0  0  0  0  0  0  0  0  0  0  0
   19.2943   17.2993   23.2239 C   0  0  0  0  0  0  0  0  0  0  0  0
   19.7213   16.3279   23.5107 H   0  0  0  0  0  0  0  0  0  0  0  0
   18.7665   17.1275   22.2753 H   0  0  0  0  0  0  0  0  0  0  0  0
   18.2962   17.7239   24.3268 C   0  0  0  0  0  0  0  0  0  0  0  0
   18.8022   17.8245   25.2958 H   0  0  0  0  0  0  0  0  0  0  0  0
   17.5068   16.9697   24.4414 H   0  0  0  0  0  0  0  0  0  0  0  0
   17.8109   18.6796   24.0997 H   0  0  0  0  0  0  0  0  0  0  0  0
  1  2  1  0  0  0  0
  1  3  1  0  0  0  0
  1  4  1  0  0  0  0
  1  5  1  0  0  0  0
  5  6  1  0  0  0  0
  5  7  1  0  0  0  0
  7  8  1  0  0  0  0
  7  9  1  0  0  0  0
  7 10  1  0  0  0  0
  5 11  1  0  0  0  0
 11 12  1  0  0  0  0
 11 13  1  0  0  0  0
 11 14  1  0  0  0  0
 14 15  1  0  0  0  0
 14 16  1  0  0  0  0
 14 17  1  0  0  0  0
 17 18  1  0  0  0  0
 17 19  1  0  0  0  0
 17 20  1  0  0  0  0
M  END
> <VConfSearch Rank>
623

> <Conf_Id>
52

> <Delta U+W>
2.995

> <U+W>
-33.282

> <U>
25.224

> <W>
-58.506

> <W(PB)>
-60.411

> <W(SA)>
1.905

> <Valence>
4.945

> <Coulomb>
19.467

> <VdW>
0.813

> <VdW6>
-5.458

> <VdW12>
6.270

> <Bond>
0.200

> <Angle>
1.675

> <Pdih>
3.070

> <Idih>
0.000

> <Tether>
0.000

$$$$
VeraChem MOL file


 20 19  0  0  0  0  0  0  0  0999 V2000     
   19.6757   20.0208   21.4722 N   0  3  0  0  0  0  0  0  0  0  0  0
   20.3154   19.6184   20.7828 H   0  0  0  0  0  0  0  0  0  0  0  0
   19.5532   21.0091   21.2358 H   0  0  0  0  0  0  0  0  0  0  0  0
   18.7705   19.5605   21.3547 H   0  0  0  0  0  0  0  0  0  0  0  0
   20.1987   19.8480   22.8721 C   0  0  2  0  0  0  0  0  0  0  0  0
   19.4903   20.3424   23.5440 H   0  0  0  0  0  0  0  0  0  0  0  0
   21.5611   20.5485   23.0100 C   0  0  0  0  0  0  0  0  0  0  0  0
   22.3157   20.0796   22.3661 H   0  0  0  0  0  0  0  0  0  0  0  0
   21.9205   20.5046   24.0456 H   0  0  0  0  0  0  0  0  0  0  0  0
   21.4840   21.6068   22.7317 H   0  0  0  0  0  0  0  0  0  0  0  0
   20.3109   18.3628   23.2915 C   0  0  0  0  0  0  0  0  0  0  0  0
   20.8048   17.7861   22.4984 H   0  0  0  0  0  0  0  0  0  0  0  0
   20.9710   18.2952   24.1666 H   0  0  0  0  0  0  0  0  0  0  0  0
   18.9665   17.6936   23.6805 C   0  0  0  0  0  0  0  0  0  0  0  0
   18.5015   18.2498   24.5067 H   0  0  0  0  0  0  0  0  0  0  0  0
   19.1849   16.6917   24.0760 H   0  0  0  0  0  0  0  0  0  0  0  0
   17.9538   17.5490   22.5218 C   0  0  0  0  0  0  0  0  0  0  0  0
   17.1250   16.8948   22.8226 H   0  0  0  0  0  0  0  0  0  0  0  0
   18.4227   17.1039   21.6345 H   0  0  0  0  0  0  0  0  0  0  0  0
   17.5140   18.5144   22.2463 H   0  0  0  0  0  0  0  0  0  0  0  0
  1  2  1  0  0  0  0
  1  3  1  0  0  0  0
  1  4  1  0  0  0  0
  1  5  1  0  0  0  0
  5  6  1  0  0  0  0
  5  7  1  0  0  0  0
  7  8  1  0  0  0  0
  7  9  1  0  0  0  0
  7 10  1  0  0  0  0
  5 11  1  0  0  0  0
 11 12  1  0  0  0  0
 11 13  1  0  0  0  0
 11 14  1  0  0  0  0
 14 15  1  0  0  0  0
 14 16  1  0  0  0  0
 14 17  1  0  0  0  0
 17 18  1  0  0  0  0
 17 19  1  0  0  0  0
 17 20  1  0  0  0  0
M  END
> <VConfSearch Rank>
624

> <Conf_Id>
54

> <Delta U+W>
2.752

> <U+W>
-33.525

> <U>
24.337

> <W>
-57.862

> <W(PB)>
-59.764

> <W(SA)>
1.901

> <Valence>
3.593

> <Coulomb>
20.067

> <VdW>
0.677

> <VdW6>
-5.466

> <VdW12>
6.144

> <Bond>
0.191

> <Angle>
1.557

> <Pdih>
1.845

> <Idih>
0.000

> <Tether>
0.000

$$$$
VeraChem MOL file


 20 19  0  0  0  0  0  0  0  0999 V2000     
   17.9485   19.2053   23.6643 N   0  3  0  0  0  0  0  0  0  0  0  0
   17.3804   19.8621   24.2060 H   0  0  0  0  0  0  0  0  0  0  0  0
   17.6994   18.2618   23.9731 H   0  0  0  0  0  0  0  0  0  0  0  0
   17.6664   19.2928   22.6854 H   0  0  0  0  0  0  0  0  0  0  0  0
   19.4185   19.4745   23.8392 C   0  0  2  0  0  0  0  0  0  0  0  0
   19.6190   19.3750   24.9106 H   0  0  0  0  0  0  0  0  0  0  0  0
   19.7685   20.9175   23.4341 C   0  0  0  0  0  0  0  0  0  0  0  0
   20.8411   21.1092   23.5613 H   0  0  0  0  0  0  0  0  0  0  0  0
   19.2264   21.6344   24.0628 H   0  0  0  0  0  0  0  0  0  0  0  0
   19.5041   21.1218   22.3898 H   0  0  0  0  0  0  0  0  0  0  0  0
   20.3026   18.4347   23.1096 C   0  0  0  0  0  0  0  0  0  0  0  0
   21.3549   18.6347   23.3511 H   0  0  0  0  0  0  0  0  0  0  0  0
   20.0826   17.4415   23.5225 H   0  0  0  0  0  0  0  0  0  0  0  0
   20.1300   18.3945   21.5691 C   0  0  0  0  0  0  0  0  0  0  0  0
   20.3958   19.3660   21.1314 H   0  0  0  0  0  0  0  0  0  0  0  0
   19.0798   18.2045   21.3100 H   0  0  0  0  0  0  0  0  0  0  0  0
   21.0116   17.3009   20.9288 C   0  0  0  0  0  0  0  0  0  0  0  0
   20.8805   17.2859   19.8390 H   0  0  0  0  0  0  0  0  0  0  0  0
   20.7492   16.3064   21.3126 H   0  0  0  0  0  0  0  0  0  0  0  0
   22.0748   17.4781   21.1372 H   0  0  0  0  0  0  0  0  0  0  0  0
  1  2  1  0  0  0  0
  1  3  1  0  0  0  0
  1  4  1  0  0  0  0
  1  5  1  0  0  0  0
  5  6  1  0  0  0  0
  5  7  1  0  0  0  0
  7  8  1  0  0  0  0
  7  9  1  0  0  0  0
  7 10  1  0  0  0  0
  5 11  1  0  0  0  0
 11 12  1  0  0  0  0
 11 13  1  0  0  0  0
 11 14  1  0  0  0  0
 14 15  1  0  0  0  0
 14 16  1  0  0  0  0
 14 17  1  0  0  0  0
 17 18  1  0  0  0  0
 17 19  1  0  0  0  0
 17 20  1  0  0  0  0
M  END
> <VConfSearch Rank>
625

> <Conf_Id>
63

> <Delta U+W>
0.420

> <U+W>
-35.856

> <U>
22.625

> <W>
-58.481

> <W(PB)>
-60.400

> <W(SA)>
1.919

> <Valence>
2.404

> <Coulomb>
19.464

> <VdW>
0.757

> <VdW6>
-5.074

> <VdW12>
5.830

> <Bond>
0.172

> <Angle>
1.207

> <Pdih>
1.025

> <Idih>
0.000

> <Tether>
0.000

$$$$
VeraChem MOL file


 20 19  0  0  0  0  0  0  0  0999 V2000     
   21.1562   19.7794   22.1829 N   0  3  0  0  0  0  0  0  0  0  0  0
   20.5458   20.5854   22.0263 H   0  0  0  0  0  0  0  0  0  0  0  0
   21.4245   19.4134   21.2661 H   0  0  0  0  0  0  0  0  0  0  0  0
   22.0070   20.1237   22.6358 H   0  0  0  0  0  0  0  0  0  0  0  0
   20.4729   18.7299   23.0170 C   0  0  2  0  0  0  0  0  0  0  0  0
   20.2246   19.2002   23.9732 H   0  0  0  0  0  0  0  0  0  0  0  0
   21.4230   17.5536   23.2951 C   0  0  0  0  0  0  0  0  0  0  0  0
   22.3378   17.9020   23.7900 H   0  0  0  0  0  0  0  0  0  0  0  0
   21.7094   17.0456   22.3658 H   0  0  0  0  0  0  0  0  0  0  0  0
   20.9482   16.8168   23.9549 H   0  0  0  0  0  0  0  0  0  0  0  0
   19.1630   18.2226   22.3720 C   0  0  0  0  0  0  0  0  0  0  0  0
   19.3935   17.7318   21.4171 H   0  0  0  0  0  0  0  0  0  0  0  0
   18.7240   17.4491   23.0160 H   0  0  0  0  0  0  0  0  0  0  0  0
   18.1041   19.3283   22.1310 C   0  0  0  0  0  0  0  0  0  0  0  0
   17.2174   18.8723   21.6686 H   0  0  0  0  0  0  0  0  0  0  0  0
   18.4792   20.0620   21.4047 H   0  0  0  0  0  0  0  0  0  0  0  0
   17.6763   20.0508   23.4288 C   0  0  0  0  0  0  0  0  0  0  0  0
   17.2971   19.3366   24.1713 H   0  0  0  0  0  0  0  0  0  0  0  0
   16.8764   20.7733   23.2209 H   0  0  0  0  0  0  0  0  0  0  0  0
   18.5110   20.6025   23.8792 H   0  0  0  0  0  0  0  0  0  0  0  0
  1  2  1  0  0  0  0
  1  3  1  0  0  0  0
  1  4  1  0  0  0  0
  1  5  1  0  0  0  0
  5  6  1  0  0  0  0
  5  7  1  0  0  0  0
  7  8  1  0  0  0  0
  7  9  1  0  0  0  0
  7 10  1  0  0  0  0
  5 11  1  0  0  0  0
 11 12  1  0  0  0  0
 11 13  1  0  0  0  0
 11 14  1  0  0  0  0
 14 15  1  0  0  0  0
 14 16  1  0  0  0  0
 14 17  1  0  0  0  0
 17 18  1  0  0  0  0
 17 19  1  0  0  0  0
 17 20  1  0  0  0  0
M  END
> <VConfSearch Rank>
626

> <Conf_Id>
50

> <Delta U+W>
0.466

> <U+W>
-35.811

> <U>
22.369

> <W>
-58.180

> <W(PB)>
-60.103

> <W(SA)>
1.923

> <Valence>
2.168

> <Coulomb>
19.636

> <VdW>
0.566

> <VdW6>
-5.263

> <VdW12>
5.829

> <Bond>
0.162

> <Angle>
1.066

> <Pdih>
0.939

> <Idih>
0.000

> <Tether>
0.000

$$$$
VeraChem MOL file


 20 19  0  0  0  0  0  0  0  0999 V2000     
   21.8062   18.0196   22.4273 N   0  3  0  0  0  0  0  0  0  0  0  0
   21.8127   17.7253   21.4468 H   0  0  0  0  0  0  0  0  0  0  0  0
   21.8693   17.1753   23.0018 H   0  0  0  0  0  0  0  0  0  0  0  0
   22.6607   18.5603   22.5861 H   0  0  0  0  0  0  0  0  0  0  0  0
   20.5771   18.8225   22.7577 C   0  0  2  0  0  0  0  0  0  0  0  0
   20.5959   19.6944   22.0965 H   0  0  0  0  0  0  0  0  0  0  0  0
   20.6421   19.3085   24.2177 C   0  0  0  0  0  0  0  0  0  0  0  0
   20.6731   18.4621   24.9150 H   0  0  0  0  0  0  0  0  0  0  0  0
   19.7745   19.9252   24.4760 H   0  0  0  0  0  0  0  0  0  0  0  0
   21.5401   19.9163   24.3828 H   0  0  0  0  0  0  0  0  0  0  0  0
   19.2763   18.0312   22.4748 C   0  0  0  0  0  0  0  0  0  0  0  0
   19.5075   17.1829   21.8172 H   0  0  0  0  0  0  0  0  0  0  0  0
   18.8870   17.5890   23.4016 H   0  0  0  0  0  0  0  0  0  0  0  0
   18.1724   18.8668   21.7785 C   0  0  0  0  0  0  0  0  0  0  0  0
   17.3244   18.2062   21.5493 H   0  0  0  0  0  0  0  0  0  0  0  0
   18.5440   19.2328   20.8110 H   0  0  0  0  0  0  0  0  0  0  0  0
   17.6603   20.0602   22.6152 C   0  0  0  0  0  0  0  0  0  0  0  0
   17.3207   19.7326   23.6063 H   0  0  0  0  0  0  0  0  0  0  0  0
   16.8119   20.5437   22.1139 H   0  0  0  0  0  0  0  0  0  0  0  0
   18.4396   20.8211   22.7471 H   0  0  0  0  0  0  0  0  0  0  0  0
  1  2  1  0  0  0  0
  1  3  1  0  0  0  0
  1  4  1  0  0  0  0
  1  5  1  0  0  0  0
  5  6  1  0  0  0  0
  5  7  1  0  0  0  0
  7  8  1  0  0  0  0
  7  9  1  0  0  0  0
  7 10  1  0  0  0  0
  5 11  1  0  0  0  0
 11 12  1  0  0  0  0
 11 13  1  0  0  0  0
 11 14  1  0  0  0  0
 14 15  1  0  0  0  0
 14 16  1  0  0  0  0
 14 17  1  0  0  0  0
 17 18  1  0  0  0  0
 17 19  1  0  0  0  0
 17 20  1  0  0  0  0
M  END
> <VConfSearch Rank>
627

> <Conf_Id>
3

> <Delta U+W>
3.093

> <U+W>
-33.184

> <U>
25.256

> <W>
-58.439

> <W(PB)>
-60.337

> <W(SA)>
1.898

> <Valence>
4.963

> <Coulomb>
19.511

> <VdW>
0.782

> <VdW6>
-5.429

> <VdW12>
6.211

> <Bond>
0.174

> <Angle>
1.377

> <Pdih>
3.412

> <Idih>
0.000

> <Tether>
0.000

$$$$
VeraChem MOL file


 20 19  0  0  0  0  0  0  0  0999 V2000     
   18.3079   17.2871   21.9873 N   0  3  0  0  0  0  0  0  0  0  0  0
   17.4675   17.4730   21.4334 H   0  0  0  0  0  0  0  0  0  0  0  0
   18.0078   16.8078   22.8406 H   0  0  0  0  0  0  0  0  0  0  0  0
   18.8843   16.6312   21.4542 H   0  0  0  0  0  0  0  0  0  0  0  0
   19.0557   18.5551   22.2963 C   0  0  2  0  0  0  0  0  0  0  0  0
   18.3642   19.1894   22.8590 H   0  0  0  0  0  0  0  0  0  0  0  0
   19.4342   19.2843   20.9943 C   0  0  0  0  0  0  0  0  0  0  0  0
   19.8547   20.2752   21.2013 H   0  0  0  0  0  0  0  0  0  0  0  0
   18.5495   19.4329   20.3631 H   0  0  0  0  0  0  0  0  0  0  0  0
   20.1712   18.7114   20.4181 H   0  0  0  0  0  0  0  0  0  0  0  0
   20.2907   18.2745   23.1853 C   0  0  0  0  0  0  0  0  0  0  0  0
   19.9711   17.6851   24.0547 H   0  0  0  0  0  0  0  0  0  0  0  0
   20.9996   17.6430   22.6335 H   0  0  0  0  0  0  0  0  0  0  0  0
   21.0299   19.5371   23.6974 C   0  0  0  0  0  0  0  0  0  0  0  0
   21.4798   20.0831   22.8573 H   0  0  0  0  0  0  0  0  0  0  0  0
   21.8689   19.2202   24.3326 H   0  0  0  0  0  0  0  0  0  0  0  0
   20.1182   20.4856   24.5088 C   0  0  0  0  0  0  0  0  0  0  0  0
   19.6543   19.9605   25.3539 H   0  0  0  0  0  0  0  0  0  0  0  0
   19.3193   20.9075   23.8861 H   0  0  0  0  0  0  0  0  0  0  0  0
   20.6993   21.3243   24.9139 H   0  0  0  0  0  0  0  0  0  0  0  0
  1  2  1  0  0  0  0
  1  3  1  0  0  0  0
  1  4  1  0  0  0  0
  1  5  1  0  0  0  0
  5  6  1  0  0  0  0
  5  7  1  0  0  0  0
  7  8  1  0  0  0  0
  7  9  1  0  0  0  0
  7 10  1  0  0  0  0
  5 11  1  0  0  0  0
 11 12  1  0  0  0  0
 11 13  1  0  0  0  0
 11 14  1  0  0  0  0
 14 15  1  0  0  0  0
 14 16  1  0  0  0  0
 14 17  1  0  0  0  0
 17 18  1  0  0  0  0
 17 19  1  0  0  0  0
 17 20  1  0  0  0  0
M  END
> <VConfSearch Rank>
628

> <Conf_Id>
64

> <Delta U+W>
0.544

> <U+W>
-35.732

> <U>
22.800

> <W>
-58.532

> <W(PB)>
-60.437

> <W(SA)>
1.905

> <Valence>
2.662

> <Coulomb>
19.485

> <VdW>
0.653

> <VdW6>
-5.460

> <VdW12>
6.113

> <Bond>
0.174

> <Angle>
1.378

> <Pdih>
1.109

> <Idih>
0.000

> <Tether>
0.000

$$$$
VeraChem MOL file


 20 19  0  0  0  0  0  0  0  0999 V2000     
   21.8917   18.8541   22.5644 N   0  3  0  0  0  0  0  0  0  0  0  0
   21.6281   19.1056   21.6091 H   0  0  0  0  0  0  0  0  0  0  0  0
   22.5760   18.0954   22.5029 H   0  0  0  0  0  0  0  0  0  0  0  0
   22.3695   19.6613   22.9739 H   0  0  0  0  0  0  0  0  0  0  0  0
   20.6925   18.4489   23.3784 C   0  0  2  0  0  0  0  0  0  0  0  0
   21.0774   18.1906   24.3699 H   0  0  0  0  0  0  0  0  0  0  0  0
   20.0369   17.1856   22.7970 C   0  0  0  0  0  0  0  0  0  0  0  0
   19.7459   17.3298   21.7500 H   0  0  0  0  0  0  0  0  0  0  0  0
   19.1455   16.9074   23.3726 H   0  0  0  0  0  0  0  0  0  0  0  0
   20.7345   16.3401   22.8352 H   0  0  0  0  0  0  0  0  0  0  0  0
   19.6906   19.6148   23.5726 C   0  0  0  0  0  0  0  0  0  0  0  0
   18.9311   19.3233   24.3100 H   0  0  0  0  0  0  0  0  0  0  0  0
   20.2393   20.4446   24.0372 H   0  0  0  0  0  0  0  0  0  0  0  0
   18.9994   20.1479   22.2869 C   0  0  0  0  0  0  0  0  0  0  0  0
   19.6566   20.0382   21.4143 H   0  0  0  0  0  0  0  0  0  0  0  0
   18.8364   21.2285   22.4044 H   0  0  0  0  0  0  0  0  0  0  0  0
   17.6271   19.4919   22.0055 C   0  0  0  0  0  0  0  0  0  0  0  0
   17.7119   18.4136   21.8316 H   0  0  0  0  0  0  0  0  0  0  0  0
   17.1663   19.9350   21.1132 H   0  0  0  0  0  0  0  0  0  0  0  0
   16.9380   19.6462   22.8460 H   0  0  0  0  0  0  0  0  0  0  0  0
  1  2  1  0  0  0  0
  1  3  1  0  0  0  0
  1  4  1  0  0  0  0
  1  5  1  0  0  0  0
  5  6  1  0  0  0  0
  5  7  1  0  0  0  0
  7  8  1  0  0  0  0
  7  9  1  0  0  0  0
  7 10  1  0  0  0  0
  5 11  1  0  0  0  0
 11 12  1  0  0  0  0
 11 13  1  0  0  0  0
 11 14  1  0  0  0  0
 14 15  1  0  0  0  0
 14 16  1  0  0  0  0
 14 17  1  0  0  0  0
 17 18  1  0  0  0  0
 17 19  1  0  0  0  0
 17 20  1  0  0  0  0
M  END
> <VConfSearch Rank>
629

> <Conf_Id>
35

> <Delta U+W>
3.004

> <U+W>
-33.272

> <U>
25.367

> <W>
-58.639

> <W(PB)>
-60.512

> <W(SA)>
1.873

> <Valence>
4.943

> <Coulomb>
19.661

> <VdW>
0.764

> <VdW6>
-5.871

> <VdW12>
6.636

> <Bond>
0.230

> <Angle>
1.857

> <Pdih>
2.855

> <Idih>
0.000

> <Tether>
0.000

$$$$
VeraChem MOL file


 20 19  0  0  0  0  0  0  0  0999 V2000     
   19.2242   18.8210   21.0191 N   0  3  0  0  0  0  0  0  0  0  0  0
   18.8193   19.4187   20.2936 H   0  0  0  0  0  0  0  0  0  0  0  0
   19.0298   17.8507   20.7580 H   0  0  0  0  0  0  0  0  0  0  0  0
   20.2379   18.9472   20.9945 H   0  0  0  0  0  0  0  0  0  0  0  0
   18.6677   19.1479   22.3777 C   0  0  2  0  0  0  0  0  0  0  0  0
   17.5926   18.9569   22.3034 H   0  0  0  0  0  0  0  0  0  0  0  0
   18.8458   20.6393   22.7135 C   0  0  0  0  0  0  0  0  0  0  0  0
   19.9028   20.9309   22.7136 H   0  0  0  0  0  0  0  0  0  0  0  0
   18.4251   20.8686   23.7003 H   0  0  0  0  0  0  0  0  0  0  0  0
   18.3257   21.2637   21.9770 H   0  0  0  0  0  0  0  0  0  0  0  0
   19.2113   18.2215   23.4956 C   0  0  0  0  0  0  0  0  0  0  0  0
   18.5400   18.3141   24.3595 H   0  0  0  0  0  0  0  0  0  0  0  0
   19.1205   17.1778   23.1676 H   0  0  0  0  0  0  0  0  0  0  0  0
   20.6618   18.4784   23.9920 C   0  0  0  0  0  0  0  0  0  0  0  0
   20.8712   17.7722   24.8076 H   0  0  0  0  0  0  0  0  0  0  0  0
   20.7394   19.4779   24.4410 H   0  0  0  0  0  0  0  0  0  0  0  0
   21.7535   18.3080   22.9112 C   0  0  0  0  0  0  0  0  0  0  0  0
   21.6472   17.3503   22.3851 H   0  0  0  0  0  0  0  0  0  0  0  0
   22.7498   18.3253   23.3717 H   0  0  0  0  0  0  0  0  0  0  0  0
   21.7251   19.1212   22.1769 H   0  0  0  0  0  0  0  0  0  0  0  0
  1  2  1  0  0  0  0
  1  3  1  0  0  0  0
  1  4  1  0  0  0  0
  1  5  1  0  0  0  0
  5  6  1  0  0  0  0
  5  7  1  0  0  0  0
  7  8  1  0  0  0  0
  7  9  1  0  0  0  0
  7 10  1  0  0  0  0
  5 11  1  0  0  0  0
 11 12  1  0  0  0  0
 11 13  1  0  0  0  0
 11 14  1  0  0  0  0
 14 15  1  0  0  0  0
 14 16  1  0  0  0  0
 14 17  1  0  0  0  0
 17 18  1  0  0  0  0
 17 19  1  0  0  0  0
 17 20  1  0  0  0  0
M  END
> <VConfSearch Rank>
630

> <Conf_Id>
55

> <Delta U+W>
2.767

> <U+W>
-33.509

> <U>
24.552

> <W>
-58.061

> <W(PB)>
-59.930

> <W(SA)>
1.869

> <Valence>
3.726

> <Coulomb>
20.219

> <VdW>
0.606

> <VdW6>
-6.395

> <VdW12>
7.001

> <Bond>
0.241

> <Angle>
2.098

> <Pdih>
1.387

> <Idih>
0.000

> <Tether>
0.000

$$$$
VeraChem MOL file


 20 19  0  0  0  0  0  0  0  0999 V2000     
   18.0920   18.9941   23.7910 N   0  3  0  0  0  0  0  0  0  0  0  0
   18.2471   19.8987   24.2429 H   0  0  0  0  0  0  0  0  0  0  0  0
   17.4661   18.4546   24.3950 H   0  0  0  0  0  0  0  0  0  0  0  0
   17.5926   19.1693   22.9155 H   0  0  0  0  0  0  0  0  0  0  0  0
   19.3882   18.2677   23.5518 C   0  0  2  0  0  0  0  0  0  0  0  0
   19.1334   17.3207   23.0660 H   0  0  0  0  0  0  0  0  0  0  0  0
   20.0844   17.9519   24.8858 C   0  0  0  0  0  0  0  0  0  0  0  0
   19.4260   17.3654   25.5384 H   0  0  0  0  0  0  0  0  0  0  0  0
   20.3613   18.8712   25.4170 H   0  0  0  0  0  0  0  0  0  0  0  0
   20.9965   17.3651   24.7206 H   0  0  0  0  0  0  0  0  0  0  0  0
   20.3421   19.0470   22.6197 C   0  0  0  0  0  0  0  0  0  0  0  0
   20.5952   20.0141   23.0743 H   0  0  0  0  0  0  0  0  0  0  0  0
   21.2832   18.4884   22.5288 H   0  0  0  0  0  0  0  0  0  0  0  0
   19.7568   19.2715   21.2046 C   0  0  0  0  0  0  0  0  0  0  0  0
   18.8427   19.8776   21.2633 H   0  0  0  0  0  0  0  0  0  0  0  0
   19.4706   18.3056   20.7647 H   0  0  0  0  0  0  0  0  0  0  0  0
   20.7677   19.9767   20.2750 C   0  0  0  0  0  0  0  0  0  0  0  0
   21.0506   20.9601   20.6728 H   0  0  0  0  0  0  0  0  0  0  0  0
   20.3360   20.1290   19.2772 H   0  0  0  0  0  0  0  0  0  0  0  0
   21.6814   19.3795   20.1583 H   0  0  0  0  0  0  0  0  0  0  0  0
  1  2  1  0  0  0  0
  1  3  1  0  0  0  0
  1  4  1  0  0  0  0
  1  5  1  0  0  0  0
  5  6  1  0  0  0  0
  5  7  1  0  0  0  0
  7  8  1  0  0  0  0
  7  9  1  0  0  0  0
  7 10  1  0  0  0  0
  5 11  1  0  0  0  0
 11 12  1  0  0  0  0
 11 13  1  0  0  0  0
 11 14  1  0  0  0  0
 14 15  1  0  0  0  0
 14 16  1  0  0  0  0
 14 17  1  0  0  0  0
 17 18  1  0  0  0  0
 17 19  1  0  0  0  0
 17 20  1  0  0  0  0
M  END
> <VConfSearch Rank>
631

> <Conf_Id>
74

> <Delta U+W>
0.000

> <U+W>
-36.276

> <U>
22.080

> <W>
-58.356

> <W(PB)>
-60.289

> <W(SA)>
1.932

> <Valence>
1.885

> <Coulomb>
19.559

> <VdW>
0.637

> <VdW6>
-4.482

> <VdW12>
5.119

> <Bond>
0.136

> <Angle>
0.867

> <Pdih>
0.882

> <Idih>
0.000

> <Tether>
0.000

$$$$
VeraChem MOL file


 20 19  0  0  0  0  0  0  0  0999 V2000     
   19.1087   21.0079   21.7119 N   0  3  0  0  0  0  0  0  0  0  0  0
   19.5983   21.6850   22.3032 H   0  0  0  0  0  0  0  0  0  0  0  0
   18.1249   21.0107   21.9927 H   0  0  0  0  0  0  0  0  0  0  0  0
   19.1517   21.3590   20.7514 H   0  0  0  0  0  0  0  0  0  0  0  0
   19.7114   19.6343   21.8237 C   0  0  2  0  0  0  0  0  0  0  0  0
   20.7536   19.7281   21.5029 H   0  0  0  0  0  0  0  0  0  0  0  0
   18.9959   18.6582   20.8718 C   0  0  0  0  0  0  0  0  0  0  0  0
   18.9742   19.0599   19.8513 H   0  0  0  0  0  0  0  0  0  0  0  0
   17.9608   18.4809   21.1892 H   0  0  0  0  0  0  0  0  0  0  0  0
   19.5124   17.6925   20.8279 H   0  0  0  0  0  0  0  0  0  0  0  0
   19.6992   19.1356   23.2874 C   0  0  0  0  0  0  0  0  0  0  0  0
   20.1246   19.9212   23.9257 H   0  0  0  0  0  0  0  0  0  0  0  0
   18.6627   18.9923   23.6206 H   0  0  0  0  0  0  0  0  0  0  0  0
   20.5038   17.8318   23.5107 C   0  0  0  0  0  0  0  0  0  0  0  0
   21.5237   17.9541   23.1197 H   0  0  0  0  0  0  0  0  0  0  0  0
   20.0469   17.0019   22.9553 H   0  0  0  0  0  0  0  0  0  0  0  0
   20.5713   17.4530   25.0059 C   0  0  0  0  0  0  0  0  0  0  0  0
   21.0624   18.2407   25.5921 H   0  0  0  0  0  0  0  0  0  0  0  0
   21.1416   16.5254   25.1455 H   0  0  0  0  0  0  0  0  0  0  0  0
   19.5664   17.2957   25.4191 H   0  0  0  0  0  0  0  0  0  0  0  0
  1  2  1  0  0  0  0
  1  3  1  0  0  0  0
  1  4  1  0  0  0  0
  1  5  1  0  0  0  0
  5  6  1  0  0  0  0
  5  7  1  0  0  0  0
  7  8  1  0  0  0  0
  7  9  1  0  0  0  0
  7 10  1  0  0  0  0
  5 11  1  0  0  0  0
 11 12  1  0  0  0  0
 11 13  1  0  0  0  0
 11 14  1  0  0  0  0
 14 15  1  0  0  0  0
 14 16  1  0  0  0  0
 14 17  1  0  0  0  0
 17 18  1  0  0  0  0
 17 19  1  0  0  0  0
 17 20  1  0  0  0  0
M  END
> <VConfSearch Rank>
632

> <Conf_Id>
80

> <Delta U+W>
0.460

> <U+W>
-35.817

> <U>
22.495

> <W>
-58.311

> <W(PB)>
-60.259

> <W(SA)>
1.948

> <Valence>
2.419

> <Coulomb>
19.304

> <VdW>
0.772

> <VdW6>
-4.635

> <VdW12>
5.407

> <Bond>
0.149

> <Angle>
1.142

> <Pdih>
1.129

> <Idih>
0.000

> <Tether>
0.000

$$$$
VeraChem MOL file


 20 19  0  0  0  0  0  0  0  0999 V2000     
   17.8067   18.4646   21.3868 N   0  3  0  0  0  0  0  0  0  0  0  0
   17.0517   19.1168   21.6159 H   0  0  0  0  0  0  0  0  0  0  0  0
   17.5849   17.5705   21.8318 H   0  0  0  0  0  0  0  0  0  0  0  0
   17.7803   18.3154   20.3746 H   0  0  0  0  0  0  0  0  0  0  0  0
   19.1458   18.9857   21.8319 C   0  0  2  0  0  0  0  0  0  0  0  0
   19.2969   19.9323   21.3038 H   0  0  0  0  0  0  0  0  0  0  0  0
   20.2623   18.0171   21.4058 C   0  0  0  0  0  0  0  0  0  0  0  0
   20.1725   17.7663   20.3417 H   0  0  0  0  0  0  0  0  0  0  0  0
   20.2207   17.0837   21.9807 H   0  0  0  0  0  0  0  0  0  0  0  0
   21.2501   18.4704   21.5465 H   0  0  0  0  0  0  0  0  0  0  0  0
   19.1508   19.2780   23.3524 C   0  0  0  0  0  0  0  0  0  0  0  0
   18.3028   19.9431   23.5626 H   0  0  0  0  0  0  0  0  0  0  0  0
   18.9542   18.3567   23.9166 H   0  0  0  0  0  0  0  0  0  0  0  0
   20.4351   19.9685   23.8829 C   0  0  0  0  0  0  0  0  0  0  0  0
   20.1493   20.6869   24.6642 H   0  0  0  0  0  0  0  0  0  0  0  0
   20.9067   20.5618   23.0870 H   0  0  0  0  0  0  0  0  0  0  0  0
   21.4559   18.9810   24.4958 C   0  0  0  0  0  0  0  0  0  0  0  0
   21.0159   18.4372   25.3418 H   0  0  0  0  0  0  0  0  0  0  0  0
   22.3356   19.5208   24.8696 H   0  0  0  0  0  0  0  0  0  0  0  0
   21.8057   18.2422   23.7662 H   0  0  0  0  0  0  0  0  0  0  0  0
  1  2  1  0  0  0  0
  1  3  1  0  0  0  0
  1  4  1  0  0  0  0
  1  5  1  0  0  0  0
  5  6  1  0  0  0  0
  5  7  1  0  0  0  0
  7  8  1  0  0  0  0
  7  9  1  0  0  0  0
  7 10  1  0  0  0  0
  5 11  1  0  0  0  0
 11 12  1  0  0  0  0
 11 13  1  0  0  0  0
 11 14  1  0  0  0  0
 14 15  1  0  0  0  0
 14 16  1  0  0  0  0
 14 17  1  0  0  0  0
 17 18  1  0  0  0  0
 17 19  1  0  0  0  0
 17 20  1  0  0  0  0
M  END
> <VConfSearch Rank>
633

> <Conf_Id>
52

> <Delta U+W>
2.995

> <U+W>
-33.282

> <U>
25.224

> <W>
-58.506

> <W(PB)>
-60.411

> <W(SA)>
1.905

> <Valence>
4.945

> <Coulomb>
19.467

> <VdW>
0.813

> <VdW6>
-5.458

> <VdW12>
6.270

> <Bond>
0.200

> <Angle>
1.675

> <Pdih>
3.070

> <Idih>
0.000

> <Tether>
0.000

$$$$
VeraChem MOL file


 20 19  0  0  0  0  0  0  0  0999 V2000     
   20.2310   19.0413   24.2936 N   0  3  0  0  0  0  0  0  0  0  0  0
   21.2181   18.7744   24.2656 H   0  0  0  0  0  0  0  0  0  0  0  0
   19.8923   18.8624   25.2427 H   0  0  0  0  0  0  0  0  0  0  0  0
   20.1820   20.0496   24.1329 H   0  0  0  0  0  0  0  0  0  0  0  0
   19.4293   18.2855   23.2692 C   0  0  2  0  0  0  0  0  0  0  0  0
   18.3842   18.5863   23.3918 H   0  0  0  0  0  0  0  0  0  0  0  0
   19.5297   16.7746   23.5395 C   0  0  0  0  0  0  0  0  0  0  0  0
   20.5591   16.4163   23.4140 H   0  0  0  0  0  0  0  0  0  0  0  0
   18.8854   16.2108   22.8534 H   0  0  0  0  0  0  0  0  0  0  0  0
   19.2083   16.5404   24.5619 H   0  0  0  0  0  0  0  0  0  0  0  0
   19.8594   18.6034   21.8172 C   0  0  0  0  0  0  0  0  0  0  0  0
   20.9529   18.5551   21.7315 H   0  0  0  0  0  0  0  0  0  0  0  0
   19.4720   17.8158   21.1571 H   0  0  0  0  0  0  0  0  0  0  0  0
   19.3396   19.9574   21.2667 C   0  0  0  0  0  0  0  0  0  0  0  0
   18.2417   19.9787   21.3124 H   0  0  0  0  0  0  0  0  0  0  0  0
   19.5989   20.0153   20.2002 H   0  0  0  0  0  0  0  0  0  0  0  0
   19.9096   21.2079   21.9743 C   0  0  0  0  0  0  0  0  0  0  0  0
   19.6575   22.1127   21.4059 H   0  0  0  0  0  0  0  0  0  0  0  0
   21.0036   21.1591   22.0524 H   0  0  0  0  0  0  0  0  0  0  0  0
   19.4857   21.3333   22.9774 H   0  0  0  0  0  0  0  0  0  0  0  0
  1  2  1  0  0  0  0
  1  3  1  0  0  0  0
  1  4  1  0  0  0  0
  1  5  1  0  0  0  0
  5  6  1  0  0  0  0
  5  7  1  0  0  0  0
  7  8  1  0  0  0  0
  7  9  1  0  0  0  0
  7 10  1  0  0  0  0
  5 11  1  0  0  0  0
 11 12  1  0  0  0  0
 11 13  1  0  0  0  0
 11 14  1  0  0  0  0
 14 15  1  0  0  0  0
 14 16  1  0  0  0  0
 14 17  1  0  0  0  0
 17 18  1  0  0  0  0
 17 19  1  0  0  0  0
 17 20  1  0  0  0  0
M  END
> <VConfSearch Rank>
634

> <Conf_Id>
54

> <Delta U+W>
2.752

> <U+W>
-33.525

> <U>
24.337

> <W>
-57.862

> <W(PB)>
-59.764

> <W(SA)>
1.901

> <Valence>
3.593

> <Coulomb>
20.067

> <VdW>
0.677

> <VdW6>
-5.466

> <VdW12>
6.144

> <Bond>
0.191

> <Angle>
1.557

> <Pdih>
1.845

> <Idih>
0.000

> <Tether>
0.000

$$$$
VeraChem MOL file


 20 19  0  0  0  0  0  0  0  0999 V2000     
   20.3009   18.5918   20.7374 N   0  3  0  0  0  0  0  0  0  0  0  0
   20.2787   18.9683   19.7858 H   0  0  0  0  0  0  0  0  0  0  0  0
   20.2862   17.5713   20.6605 H   0  0  0  0  0  0  0  0  0  0  0  0
   21.1986   18.8562   21.1494 H   0  0  0  0  0  0  0  0  0  0  0  0
   19.1475   19.1015   21.5583 C   0  0  2  0  0  0  0  0  0  0  0  0
   18.2401   18.7868   21.0334 H   0  0  0  0  0  0  0  0  0  0  0  0
   19.1430   20.6397   21.6106 C   0  0  0  0  0  0  0  0  0  0  0  0
   18.3019   21.0072   22.2113 H   0  0  0  0  0  0  0  0  0  0  0  0
   19.0378   21.0573   20.6018 H   0  0  0  0  0  0  0  0  0  0  0  0
   20.0712   21.0343   22.0406 H   0  0  0  0  0  0  0  0  0  0  0  0
   19.1011   18.4712   22.9710 C   0  0  0  0  0  0  0  0  0  0  0  0
   18.1913   18.8146   23.4809 H   0  0  0  0  0  0  0  0  0  0  0  0
   18.9930   17.3840   22.8624 H   0  0  0  0  0  0  0  0  0  0  0  0
   20.3327   18.7732   23.8633 C   0  0  0  0  0  0  0  0  0  0  0  0
   20.4277   19.8550   24.0266 H   0  0  0  0  0  0  0  0  0  0  0  0
   21.2534   18.4439   23.3632 H   0  0  0  0  0  0  0  0  0  0  0  0
   20.2256   18.0696   25.2333 C   0  0  0  0  0  0  0  0  0  0  0  0
   21.1026   18.2942   25.8542 H   0  0  0  0  0  0  0  0  0  0  0  0
   20.1679   16.9797   25.1147 H   0  0  0  0  0  0  0  0  0  0  0  0
   19.3330   18.4016   25.7794 H   0  0  0  0  0  0  0  0  0  0  0  0
  1  2  1  0  0  0  0
  1  3  1  0  0  0  0
  1  4  1  0  0  0  0
  1  5  1  0  0  0  0
  5  6  1  0  0  0  0
  5  7  1  0  0  0  0
  7  8  1  0  0  0  0
  7  9  1  0  0  0  0
  7 10  1  0  0  0  0
  5 11  1  0  0  0  0
 11 12  1  0  0  0  0
 11 13  1  0  0  0  0
 11 14  1  0  0  0  0
 14 15  1  0  0  0  0
 14 16  1  0  0  0  0
 14 17  1  0  0  0  0
 17 18  1  0  0  0  0
 17 19  1  0  0  0  0
 17 20  1  0  0  0  0
M  END
> <VConfSearch Rank>
635

> <Conf_Id>
63

> <Delta U+W>
0.420

> <U+W>
-35.856

> <U>
22.625

> <W>
-58.481

> <W(PB)>
-60.400

> <W(SA)>
1.919

> <Valence>
2.404

> <Coulomb>
19.464

> <VdW>
0.757

> <VdW6>
-5.074

> <VdW12>
5.830

> <Bond>
0.172

> <Angle>
1.207

> <Pdih>
1.025

> <Idih>
0.000

> <Tether>
0.000

$$$$
VeraChem MOL file


 20 19  0  0  0  0  0  0  0  0999 V2000     
   21.4044   18.8056   22.3704 N   0  3  0  0  0  0  0  0  0  0  0  0
   21.2666   19.6478   21.8060 H   0  0  0  0  0  0  0  0  0  0  0  0
   21.5467   18.0233   21.7268 H   0  0  0  0  0  0  0  0  0  0  0  0
   22.2727   18.9297   22.8978 H   0  0  0  0  0  0  0  0  0  0  0  0
   20.2338   18.5619   23.2838 C   0  0  2  0  0  0  0  0  0  0  0  0
   20.1551   19.4377   23.9350 H   0  0  0  0  0  0  0  0  0  0  0  0
   20.4824   17.3293   24.1683 C   0  0  0  0  0  0  0  0  0  0  0  0
   21.4050   17.4481   24.7496 H   0  0  0  0  0  0  0  0  0  0  0  0
   20.5743   16.4182   23.5640 H   0  0  0  0  0  0  0  0  0  0  0  0
   19.6584   17.1865   24.8784 H   0  0  0  0  0  0  0  0  0  0  0  0
   18.9032   18.4108   22.5120 C   0  0  0  0  0  0  0  0  0  0  0  0
   18.9565   17.5260   21.8639 H   0  0  0  0  0  0  0  0  0  0  0  0
   18.0943   18.2171   23.2290 H   0  0  0  0  0  0  0  0  0  0  0  0
   18.5224   19.6446   21.6549 C   0  0  0  0  0  0  0  0  0  0  0  0
   17.5705   19.4396   21.1453 H   0  0  0  0  0  0  0  0  0  0  0  0
   19.2637   19.7978   20.8589 H   0  0  0  0  0  0  0  0  0  0  0  0
   18.3760   20.9388   22.4874 C   0  0  0  0  0  0  0  0  0  0  0  0
   17.6390   20.8098   23.2908 H   0  0  0  0  0  0  0  0  0  0  0  0
   18.0372   21.7679   21.8528 H   0  0  0  0  0  0  0  0  0  0  0  0
   19.3289   21.2383   22.9415 H   0  0  0  0  0  0  0  0  0  0  0  0
  1  2  1  0  0  0  0
  1  3  1  0  0  0  0
  1  4  1  0  0  0  0
  1  5  1  0  0  0  0
  5  6  1  0  0  0  0
  5  7  1  0  0  0  0
  7  8  1  0  0  0  0
  7  9  1  0  0  0  0
  7 10  1  0  0  0  0
  5 11  1  0  0  0  0
 11 12  1  0  0  0  0
 11 13  1  0  0  0  0
 11 14  1  0  0  0  0
 14 15  1  0  0  0  0
 14 16  1  0  0  0  0
 14 17  1  0  0  0  0
 17 18  1  0  0  0  0
 17 19  1  0  0  0  0
 17 20  1  0  0  0  0
M  END
> <VConfSearch Rank>
636

> <Conf_Id>
50

> <Delta U+W>
0.466

> <U+W>
-35.811

> <U>
22.369

> <W>
-58.180

> <W(PB)>
-60.103

> <W(SA)>
1.923

> <Valence>
2.168

> <Coulomb>
19.636

> <VdW>
0.566

> <VdW6>
-5.263

> <VdW12>
5.829

> <Bond>
0.162

> <Angle>
1.066

> <Pdih>
0.939

> <Idih>
0.000

> <Tether>
0.000

$$$$
VeraChem MOL file


 20 19  0  0  0  0  0  0  0  0999 V2000     
   18.3704   19.4225   24.5778 N   0  3  0  0  0  0  0  0  0  0  0  0
   18.8479   20.2092   25.0263 H   0  0  0  0  0  0  0  0  0  0  0  0
   18.4198   18.6270   25.2194 H   0  0  0  0  0  0  0  0  0  0  0  0
   17.3838   19.6796   24.4875 H   0  0  0  0  0  0  0  0  0  0  0  0
   18.9783   19.0932   23.2412 C   0  0  2  0  0  0  0  0  0  0  0  0
   18.8821   19.9972   22.6317 H   0  0  0  0  0  0  0  0  0  0  0  0
   18.1861   17.9571   22.5677 C   0  0  0  0  0  0  0  0  0  0  0  0
   18.2170   17.0418   23.1717 H   0  0  0  0  0  0  0  0  0  0  0  0
   18.5868   17.7192   21.5763 H   0  0  0  0  0  0  0  0  0  0  0  0
   17.1349   18.2427   22.4391 H   0  0  0  0  0  0  0  0  0  0  0  0
   20.4838   18.7499   23.3594 C   0  0  0  0  0  0  0  0  0  0  0  0
   20.8595   19.1094   24.3265 H   0  0  0  0  0  0  0  0  0  0  0  0
   20.6292   17.6615   23.3723 H   0  0  0  0  0  0  0  0  0  0  0  0
   21.3624   19.3919   22.2560 C   0  0  0  0  0  0  0  0  0  0  0  0
   22.4156   19.1586   22.4662 H   0  0  0  0  0  0  0  0  0  0  0  0
   21.2762   20.4864   22.3083 H   0  0  0  0  0  0  0  0  0  0  0  0
   21.0250   18.9192   20.8245 C   0  0  0  0  0  0  0  0  0  0  0  0
   21.0606   17.8246   20.7498 H   0  0  0  0  0  0  0  0  0  0  0  0
   21.7477   19.3272   20.1059 H   0  0  0  0  0  0  0  0  0  0  0  0
   20.0286   19.2580   20.5148 H   0  0  0  0  0  0  0  0  0  0  0  0
  1  2  1  0  0  0  0
  1  3  1  0  0  0  0
  1  4  1  0  0  0  0
  1  5  1  0  0  0  0
  5  6  1  0  0  0  0
  5  7  1  0  0  0  0
  7  8  1  0  0  0  0
  7  9  1  0  0  0  0
  7 10  1  0  0  0  0
  5 11  1  0  0  0  0
 11 12  1  0  0  0  0
 11 13  1  0  0  0  0
 11 14  1  0  0  0  0
 14 15  1  0  0  0  0
 14 16  1  0  0  0  0
 14 17  1  0  0  0  0
 17 18  1  0  0  0  0
 17 19  1  0  0  0  0
 17 20  1  0  0  0  0
M  END
> <VConfSearch Rank>
637

> <Conf_Id>
3

> <Delta U+W>
3.093

> <U+W>
-33.184

> <U>
25.256

> <W>
-58.439

> <W(PB)>
-60.337

> <W(SA)>
1.898

> <Valence>
4.963

> <Coulomb>
19.511

> <VdW>
0.782

> <VdW6>
-5.429

> <VdW12>
6.211

> <Bond>
0.174

> <Angle>
1.377

> <Pdih>
3.412

> <Idih>
0.000

> <Tether>
0.000

$$$$
VeraChem MOL file


 20 19  0  0  0  0  0  0  0  0999 V2000     
   20.0092   16.7610   23.3553 N   0  3  0  0  0  0  0  0  0  0  0  0
   20.6146   16.1257   22.8286 H   0  0  0  0  0  0  0  0  0  0  0  0
   19.0658   16.3640   23.3374 H   0  0  0  0  0  0  0  0  0  0  0  0
   20.3282   16.7488   24.3273 H   0  0  0  0  0  0  0  0  0  0  0  0
   20.0377   18.1512   22.7818 C   0  0  2  0  0  0  0  0  0  0  0  0
   19.6874   18.0640   21.7490 H   0  0  0  0  0  0  0  0  0  0  0  0
   21.4787   18.6929   22.7623 C   0  0  0  0  0  0  0  0  0  0  0  0
   21.5384   19.6447   22.2219 H   0  0  0  0  0  0  0  0  0  0  0  0
   22.1496   17.9891   22.2546 H   0  0  0  0  0  0  0  0  0  0  0  0
   21.8575   18.8506   23.7797 H   0  0  0  0  0  0  0  0  0  0  0  0
   19.0738   19.0914   23.5443 C   0  0  0  0  0  0  0  0  0  0  0  0
   18.0854   18.6160   23.5940 H   0  0  0  0  0  0  0  0  0  0  0  0
   19.4139   19.1957   24.5831 H   0  0  0  0  0  0  0  0  0  0  0  0
   18.9057   20.5015   22.9227 C   0  0  0  0  0  0  0  0  0  0  0  0
   19.8507   21.0585   22.9787 H   0  0  0  0  0  0  0  0  0  0  0  0
   18.1864   21.0698   23.5289 H   0  0  0  0  0  0  0  0  0  0  0  0
   18.4076   20.4634   21.4599 C   0  0  0  0  0  0  0  0  0  0  0  0
   17.4639   19.9085   21.3784 H   0  0  0  0  0  0  0  0  0  0  0  0
   19.1424   19.9911   20.7959 H   0  0  0  0  0  0  0  0  0  0  0  0
   18.2311   21.4807   21.0872 H   0  0  0  0  0  0  0  0  0  0  0  0
  1  2  1  0  0  0  0
  1  3  1  0  0  0  0
  1  4  1  0  0  0  0
  1  5  1  0  0  0  0
  5  6  1  0  0  0  0
  5  7  1  0  0  0  0
  7  8  1  0  0  0  0
  7  9  1  0  0  0  0
  7 10  1  0  0  0  0
  5 11  1  0  0  0  0
 11 12  1  0  0  0  0
 11 13  1  0  0  0  0
 11 14  1  0  0  0  0
 14 15  1  0  0  0  0
 14 16  1  0  0  0  0
 14 17  1  0  0  0  0
 17 18  1  0  0  0  0
 17 19  1  0  0  0  0
 17 20  1  0  0  0  0
M  END
> <VConfSearch Rank>
638

> <Conf_Id>
64

> <Delta U+W>
0.544

> <U+W>
-35.732

> <U>
22.800

> <W>
-58.532

> <W(PB)>
-60.437

> <W(SA)>
1.905

> <Valence>
2.662

> <Coulomb>
19.485

> <VdW>
0.653

> <VdW6>
-5.460

> <VdW12>
6.113

> <Bond>
0.174

> <Angle>
1.378

> <Pdih>
1.109

> <Idih>
0.000

> <Tether>
0.000

$$$$
VeraChem MOL file


 20 19  0  0  0  0  0  0  0  0999 V2000     
   18.3586   19.5610   21.2785 N   0  3  0  0  0  0  0  0  0  0  0  0
   18.6479   20.4464   21.6999 H   0  0  0  0  0  0  0  0  0  0  0  0
   17.3355   19.5570   21.2477 H   0  0  0  0  0  0  0  0  0  0  0  0
   18.6913   19.5582   20.3106 H   0  0  0  0  0  0  0  0  0  0  0  0
   18.8905   18.3836   22.0503 C   0  0  2  0  0  0  0  0  0  0  0  0
   18.5203   17.4938   21.5314 H   0  0  0  0  0  0  0  0  0  0  0  0
   18.3145   18.3570   23.4755 C   0  0  0  0  0  0  0  0  0  0  0  0
   18.5333   19.2862   24.0144 H   0  0  0  0  0  0  0  0  0  0  0  0
   18.7252   17.5158   24.0475 H   0  0  0  0  0  0  0  0  0  0  0  0
   17.2246   18.2381   23.4457 H   0  0  0  0  0  0  0  0  0  0  0  0
   20.4381   18.3111   22.0225 C   0  0  0  0  0  0  0  0  0  0  0  0
   20.7654   17.3515   22.4438 H   0  0  0  0  0  0  0  0  0  0  0  0
   20.7461   18.2830   20.9690 H   0  0  0  0  0  0  0  0  0  0  0  0
   21.1930   19.4773   22.7193 C   0  0  0  0  0  0  0  0  0  0  0  0
   20.6178   20.4102   22.6551 H   0  0  0  0  0  0  0  0  0  0  0  0
   22.1262   19.6630   22.1692 H   0  0  0  0  0  0  0  0  0  0  0  0
   21.5643   19.1810   24.1914 C   0  0  0  0  0  0  0  0  0  0  0  0
   20.6793   19.0277   24.8185 H   0  0  0  0  0  0  0  0  0  0  0  0
   22.1313   20.0178   24.6194 H   0  0  0  0  0  0  0  0  0  0  0  0
   22.1915   18.2831   24.2654 H   0  0  0  0  0  0  0  0  0  0  0  0
  1  2  1  0  0  0  0
  1  3  1  0  0  0  0
  1  4  1  0  0  0  0
  1  5  1  0  0  0  0
  5  6  1  0  0  0  0
  5  7  1  0  0  0  0
  7  8  1  0  0  0  0
  7  9  1  0  0  0  0
  7 10  1  0  0  0  0
  5 11  1  0  0  0  0
 11 12  1  0  0  0  0
 11 13  1  0  0  0  0
 11 14  1  0  0  0  0
 14 15  1  0  0  0  0
 14 16  1  0  0  0  0
 14 17  1  0  0  0  0
 17 18  1  0  0  0  0
 17 19  1  0  0  0  0
 17 20  1  0  0  0  0
M  END
> <VConfSearch Rank>
639

> <Conf_Id>
35

> <Delta U+W>
3.004

> <U+W>
-33.272

> <U>
25.367

> <W>
-58.639

> <W(PB)>
-60.512

> <W(SA)>
1.873

> <Valence>
4.943

> <Coulomb>
19.661

> <VdW>
0.764

> <VdW6>
-5.871

> <VdW12>
6.636

> <Bond>
0.230

> <Angle>
1.857

> <Pdih>
2.855

> <Idih>
0.000

> <Tether>
0.000

$$$$
VeraChem MOL file


 20 19  0  0  0  0  0  0  0  0999 V2000     
   21.2148   20.0325   22.9406 N   0  3  0  0  0  0  0  0  0  0  0  0
   22.0083   20.1168   23.5816 H   0  0  0  0  0  0  0  0  0  0  0  0
   21.1123   20.9317   22.4626 H   0  0  0  0  0  0  0  0  0  0  0  0
   21.4598   19.3365   22.2338 H   0  0  0  0  0  0  0  0  0  0  0  0
   19.9556   19.6491   23.6686 C   0  0  2  0  0  0  0  0  0  0  0  0
   19.7707   20.4640   24.3755 H   0  0  0  0  0  0  0  0  0  0  0  0
   20.1522   18.3641   24.4923 C   0  0  0  0  0  0  0  0  0  0  0  0
   20.4350   17.5157   23.8578 H   0  0  0  0  0  0  0  0  0  0  0  0
   19.2321   18.1014   25.0287 H   0  0  0  0  0  0  0  0  0  0  0  0
   20.9439   18.5034   25.2385 H   0  0  0  0  0  0  0  0  0  0  0  0
   18.7167   19.5719   22.7398 C   0  0  0  0  0  0  0  0  0  0  0  0
   17.8222   19.6025   23.3758 H   0  0  0  0  0  0  0  0  0  0  0  0
   18.6717   20.4842   22.1308 H   0  0  0  0  0  0  0  0  0  0  0  0
   18.5973   18.3301   21.8122 C   0  0  0  0  0  0  0  0  0  0  0  0
   17.6502   18.4089   21.2604 H   0  0  0  0  0  0  0  0  0  0  0  0
   18.5133   17.4135   22.4117 H   0  0  0  0  0  0  0  0  0  0  0  0
   19.7441   18.1776   20.7873 C   0  0  0  0  0  0  0  0  0  0  0  0
   19.9081   19.1098   20.2312 H   0  0  0  0  0  0  0  0  0  0  0  0
   19.4999   17.3942   20.0580 H   0  0  0  0  0  0  0  0  0  0  0  0
   20.6823   17.8838   21.2719 H   0  0  0  0  0  0  0  0  0  0  0  0
  1  2  1  0  0  0  0
  1  3  1  0  0  0  0
  1  4  1  0  0  0  0
  1  5  1  0  0  0  0
  5  6  1  0  0  0  0
  5  7  1  0  0  0  0
  7  8  1  0  0  0  0
  7  9  1  0  0  0  0
  7 10  1  0  0  0  0
  5 11  1  0  0  0  0
 11 12  1  0  0  0  0
 11 13  1  0  0  0  0
 11 14  1  0  0  0  0
 14 15  1  0  0  0  0
 14 16  1  0  0  0  0
 14 17  1  0  0  0  0
 17 18  1  0  0  0  0
 17 19  1  0  0  0  0
 17 20  1  0  0  0  0
M  END
> <VConfSearch Rank>
640

> <Conf_Id>
55

> <Delta U+W>
2.767

> <U+W>
-33.509

> <U>
24.552

> <W>
-58.061

> <W(PB)>
-59.930

> <W(SA)>
1.869

> <Valence>
3.726

> <Coulomb>
20.219

> <VdW>
0.606

> <VdW6>
-6.395

> <VdW12>
7.001

> <Bond>
0.241

> <Angle>
2.098

> <Pdih>
1.387

> <Idih>
0.000

> <Tether>
0.000

$$$$
VeraChem MOL file


 20 19  0  0  0  0  0  0  0  0999 V2000     
   18.3613   20.2554   22.1883 N   0  3  0  0  0  0  0  0  0  0  0  0
   18.5953   20.3017   21.1934 H   0  0  0  0  0  0  0  0  0  0  0  0
   17.8890   21.1302   22.4317 H   0  0  0  0  0  0  0  0  0  0  0  0
   17.6824   19.4998   22.3097 H   0  0  0  0  0  0  0  0  0  0  0  0
   19.5873   20.0376   23.0336 C   0  0  2  0  0  0  0  0  0  0  0  0
   19.2493   19.9966   24.0738 H   0  0  0  0  0  0  0  0  0  0  0  0
   20.5594   21.2201   22.8898 C   0  0  0  0  0  0  0  0  0  0  0  0
   20.0666   22.1629   23.1573 H   0  0  0  0  0  0  0  0  0  0  0  0
   20.9292   21.3078   21.8606 H   0  0  0  0  0  0  0  0  0  0  0  0
   21.4240   21.0974   23.5540 H   0  0  0  0  0  0  0  0  0  0  0  0
   20.3054   18.7095   22.7067 C   0  0  0  0  0  0  0  0  0  0  0  0
   20.6346   18.7152   21.6591 H   0  0  0  0  0  0  0  0  0  0  0  0
   21.2138   18.6380   23.3196 H   0  0  0  0  0  0  0  0  0  0  0  0
   19.4256   17.4641   22.9719 C   0  0  0  0  0  0  0  0  0  0  0  0
   18.5358   17.4836   22.3282 H   0  0  0  0  0  0  0  0  0  0  0  0
   19.0672   17.4782   24.0109 H   0  0  0  0  0  0  0  0  0  0  0  0
   20.2010   16.1538   22.7167 C   0  0  0  0  0  0  0  0  0  0  0  0
   20.5468   16.0957   21.6764 H   0  0  0  0  0  0  0  0  0  0  0  0
   19.5622   15.2817   22.9080 H   0  0  0  0  0  0  0  0  0  0  0  0
   21.0778   16.0786   23.3730 H   0  0  0  0  0  0  0  0  0  0  0  0
  1  2  1  0  0  0  0
  1  3  1  0  0  0  0
  1  4  1  0  0  0  0
  1  5  1  0  0  0  0
  5  6  1  0  0  0  0
  5  7  1  0  0  0  0
  7  8  1  0  0  0  0
  7  9  1  0  0  0  0
  7 10  1  0  0  0  0
  5 11  1  0  0  0  0
 11 12  1  0  0  0  0
 11 13  1  0  0  0  0
 11 14  1  0  0  0  0
 14 15  1  0  0  0  0
 14 16  1  0  0  0  0
 14 17  1  0  0  0  0
 17 18  1  0  0  0  0
 17 19  1  0  0  0  0
 17 20  1  0  0  0  0
M  END
> <VConfSearch Rank>
641

> <Conf_Id>
74

> <Delta U+W>
0.000

> <U+W>
-36.276

> <U>
22.080

> <W>
-58.356

> <W(PB)>
-60.289

> <W(SA)>
1.932

> <Valence>
1.885

> <Coulomb>
19.559

> <VdW>
0.637

> <VdW6>
-4.482

> <VdW12>
5.119

> <Bond>
0.136

> <Angle>
0.867

> <Pdih>
0.882

> <Idih>
0.000

> <Tether>
0.000

$$$$
VeraChem MOL file


 20 19  0  0  0  0  0  0  0  0999 V2000     
   21.6376   20.3605   23.0037 N   0  3  0  0  0  0  0  0  0  0  0  0
   21.3499   20.9346   23.8009 H   0  0  0  0  0  0  0  0  0  0  0  0
   21.5188   20.9266   22.1598 H   0  0  0  0  0  0  0  0  0  0  0  0
   22.6392   20.1778   23.1088 H   0  0  0  0  0  0  0  0  0  0  0  0
   20.8495   19.0817   22.9268 C   0  0  2  0  0  0  0  0  0  0  0  0
   21.0389   18.5463   23.8624 H   0  0  0  0  0  0  0  0  0  0  0  0
   21.3535   18.2134   21.7593 C   0  0  0  0  0  0  0  0  0  0  0  0
   22.4392   18.0712   21.8242 H   0  0  0  0  0  0  0  0  0  0  0  0
   21.1291   18.6795   20.7919 H   0  0  0  0  0  0  0  0  0  0  0  0
   20.8959   17.2176   21.7757 H   0  0  0  0  0  0  0  0  0  0  0  0
   19.3322   19.3646   22.8303 C   0  0  0  0  0  0  0  0  0  0  0  0
   19.0597   20.0723   23.6243 H   0  0  0  0  0  0  0  0  0  0  0  0
   19.1091   19.8648   21.8785 H   0  0  0  0  0  0  0  0  0  0  0  0
   18.4499   18.1006   22.9747 C   0  0  0  0  0  0  0  0  0  0  0  0
   18.7171   17.5653   23.8967 H   0  0  0  0  0  0  0  0  0  0  0  0
   18.6335   17.4101   22.1407 H   0  0  0  0  0  0  0  0  0  0  0  0
   16.9475   18.4551   23.0062 C   0  0  0  0  0  0  0  0  0  0  0  0
   16.7134   19.1117   23.8544 H   0  0  0  0  0  0  0  0  0  0  0  0
   16.3372   17.5480   23.1051 H   0  0  0  0  0  0  0  0  0  0  0  0
   16.6431   18.9666   22.0838 H   0  0  0  0  0  0  0  0  0  0  0  0
  1  2  1  0  0  0  0
  1  3  1  0  0  0  0
  1  4  1  0  0  0  0
  1  5  1  0  0  0  0
  5  6  1  0  0  0  0
  5  7  1  0  0  0  0
  7  8  1  0  0  0  0
  7  9  1  0  0  0  0
  7 10  1  0  0  0  0
  5 11  1  0  0  0  0
 11 12  1  0  0  0  0
 11 13  1  0  0  0  0
 11 14  1  0  0  0  0
 14 15  1  0  0  0  0
 14 16  1  0  0  0  0
 14 17  1  0  0  0  0
 17 18  1  0  0  0  0
 17 19  1  0  0  0  0
 17 20  1  0  0  0  0
M  END
> <VConfSearch Rank>
642

> <Conf_Id>
80

> <Delta U+W>
0.460

> <U+W>
-35.817

> <U>
22.495

> <W>
-58.311

> <W(PB)>
-60.259

> <W(SA)>
1.948

> <Valence>
2.419

> <Coulomb>
19.304

> <VdW>
0.772

> <VdW6>
-4.635

> <VdW12>
5.407

> <Bond>
0.149

> <Angle>
1.142

> <Pdih>
1.129

> <Idih>
0.000

> <Tether>
0.000

$$$$
VeraChem MOL file


 20 19  0  0  0  0  0  0  0  0999 V2000     
   18.3046   17.3841   23.9171 N   0  3  0  0  0  0  0  0  0  0  0  0
   17.9731   16.6303   23.3092 H   0  0  0  0  0  0  0  0  0  0  0  0
   17.5409   18.0580   24.0141 H   0  0  0  0  0  0  0  0  0  0  0  0
   18.4696   16.9765   24.8414 H   0  0  0  0  0  0  0  0  0  0  0  0
   19.5473   18.0328   23.3715 C   0  0  2  0  0  0  0  0  0  0  0  0
   20.3028   17.2434   23.3096 H   0  0  0  0  0  0  0  0  0  0  0  0
   20.0582   19.1080   24.3457 C   0  0  0  0  0  0  0  0  0  0  0  0
   20.1322   18.7052   25.3633 H   0  0  0  0  0  0  0  0  0  0  0  0
   19.3863   19.9748   24.3702 H   0  0  0  0  0  0  0  0  0  0  0  0
   21.0599   19.4503   24.0623 H   0  0  0  0  0  0  0  0  0  0  0  0
   19.3069   18.5804   21.9433 C   0  0  0  0  0  0  0  0  0  0  0  0
   18.9117   17.7550   21.3364 H   0  0  0  0  0  0  0  0  0  0  0  0
   18.5183   19.3443   21.9576 H   0  0  0  0  0  0  0  0  0  0  0  0
   20.5714   19.1275   21.2296 C   0  0  0  0  0  0  0  0  0  0  0  0
   20.5109   18.8692   20.1629 H   0  0  0  0  0  0  0  0  0  0  0  0
   21.4722   18.6255   21.6098 H   0  0  0  0  0  0  0  0  0  0  0  0
   20.7233   20.6630   21.3388 C   0  0  0  0  0  0  0  0  0  0  0  0
   19.8609   21.1749   20.8923 H   0  0  0  0  0  0  0  0  0  0  0  0
   21.6217   20.9990   20.8049 H   0  0  0  0  0  0  0  0  0  0  0  0
   20.8116   20.9968   22.3787 H   0  0  0  0  0  0  0  0  0  0  0  0
  1  2  1  0  0  0  0
  1  3  1  0  0  0  0
  1  4  1  0  0  0  0
  1  5  1  0  0  0  0
  5  6  1  0  0  0  0
  5  7  1  0  0  0  0
  7  8  1  0  0  0  0
  7  9  1  0  0  0  0
  7 10  1  0  0  0  0
  5 11  1  0  0  0  0
 11 12  1  0  0  0  0
 11 13  1  0  0  0  0
 11 14  1  0  0  0  0
 14 15  1  0  0  0  0
 14 16  1  0  0  0  0
 14 17  1  0  0  0  0
 17 18  1  0  0  0  0
 17 19  1  0  0  0  0
 17 20  1  0  0  0  0
M  END
> <VConfSearch Rank>
643

> <Conf_Id>
52

> <Delta U+W>
2.995

> <U+W>
-33.282

> <U>
25.224

> <W>
-58.506

> <W(PB)>
-60.411

> <W(SA)>
1.905

> <Valence>
4.945

> <Coulomb>
19.467

> <VdW>
0.813

> <VdW6>
-5.458

> <VdW12>
6.270

> <Bond>
0.200

> <Angle>
1.675

> <Pdih>
3.070

> <Idih>
0.000

> <Tether>
0.000

$$$$
VeraChem MOL file


 20 19  0  0  0  0  0  0  0  0999 V2000     
   18.8630   17.9766   21.8667 N   0  3  0  0  0  0  0  0  0  0  0  0
   17.9283   18.3914   21.8421 H   0  0  0  0  0  0  0  0  0  0  0  0
   18.7605   16.9788   21.6631 H   0  0  0  0  0  0  0  0  0  0  0  0
   19.4027   18.3936   21.1052 H   0  0  0  0  0  0  0  0  0  0  0  0
   19.5291   18.2037   23.1964 C   0  0  2  0  0  0  0  0  0  0  0  0
   20.4968   17.6936   23.1633 H   0  0  0  0  0  0  0  0  0  0  0  0
   18.6882   17.5676   24.3162 C   0  0  0  0  0  0  0  0  0  0  0  0
   17.7091   18.0550   24.4033 H   0  0  0  0  0  0  0  0  0  0  0  0
   19.1986   17.6506   25.2838 H   0  0  0  0  0  0  0  0  0  0  0  0
   18.5231   16.5010   24.1203 H   0  0  0  0  0  0  0  0  0  0  0  0
   19.7791   19.7015   23.4939 C   0  0  0  0  0  0  0  0  0  0  0  0
   18.8709   20.2816   23.2840 H   0  0  0  0  0  0  0  0  0  0  0  0
   19.9671   19.8179   24.5697 H   0  0  0  0  0  0  0  0  0  0  0  0
   20.9916   20.3189   22.7488 C   0  0  0  0  0  0  0  0  0  0  0  0
   21.9045   19.7613   23.0015 H   0  0  0  0  0  0  0  0  0  0  0  0
   21.1448   21.3382   23.1305 H   0  0  0  0  0  0  0  0  0  0  0  0
   20.8408   20.3925   21.2123 C   0  0  0  0  0  0  0  0  0  0  0  0
   21.6362   21.0158   20.7831 H   0  0  0  0  0  0  0  0  0  0  0  0
   19.8791   20.8380   20.9260 H   0  0  0  0  0  0  0  0  0  0  0  0
   20.9271   19.4026   20.7496 H   0  0  0  0  0  0  0  0  0  0  0  0
  1  2  1  0  0  0  0
  1  3  1  0  0  0  0
  1  4  1  0  0  0  0
  1  5  1  0  0  0  0
  5  6  1  0  0  0  0
  5  7  1  0  0  0  0
  7  8  1  0  0  0  0
  7  9  1  0  0  0  0
  7 10  1  0  0  0  0
  5 11  1  0  0  0  0
 11 12  1  0  0  0  0
 11 13  1  0  0  0  0
 11 14  1  0  0  0  0
 14 15  1  0  0  0  0
 14 16  1  0  0  0  0
 14 17  1  0  0  0  0
 17 18  1  0  0  0  0
 17 19  1  0  0  0  0
 17 20  1  0  0  0  0
M  END
> <VConfSearch Rank>
644

> <Conf_Id>
54

> <Delta U+W>
2.752

> <U+W>
-33.525

> <U>
24.337

> <W>
-57.862

> <W(PB)>
-59.764

> <W(SA)>
1.901

> <Valence>
3.593

> <Coulomb>
20.067

> <VdW>
0.677

> <VdW6>
-5.466

> <VdW12>
6.144

> <Bond>
0.191

> <Angle>
1.557

> <Pdih>
1.845

> <Idih>
0.000

> <Tether>
0.000

$$$$
VeraChem MOL file


 20 19  0  0  0  0  0  0  0  0999 V2000     
   20.9678   18.6608   24.3445 N   0  3  0  0  0  0  0  0  0  0  0  0
   21.8566   18.9227   24.7792 H   0  0  0  0  0  0  0  0  0  0  0  0
   20.7539   17.7052   24.6425 H   0  0  0  0  0  0  0  0  0  0  0  0
   20.2462   19.2726   24.7324 H   0  0  0  0  0  0  0  0  0  0  0  0
   21.0346   18.7707   22.8454 C   0  0  2  0  0  0  0  0  0  0  0  0
   21.8388   18.0995   22.5282 H   0  0  0  0  0  0  0  0  0  0  0  0
   21.4223   20.1958   22.4121 C   0  0  0  0  0  0  0  0  0  0  0  0
   21.4681   20.2723   21.3188 H   0  0  0  0  0  0  0  0  0  0  0  0
   22.4116   20.4602   22.8051 H   0  0  0  0  0  0  0  0  0  0  0  0
   20.7067   20.9409   22.7794 H   0  0  0  0  0  0  0  0  0  0  0  0
   19.7359   18.2864   22.1569 C   0  0  0  0  0  0  0  0  0  0  0  0
   19.8841   18.3077   21.0691 H   0  0  0  0  0  0  0  0  0  0  0  0
   19.5770   17.2320   22.4184 H   0  0  0  0  0  0  0  0  0  0  0  0
   18.4634   19.0965   22.5159 C   0  0  0  0  0  0  0  0  0  0  0  0
   18.5830   20.1456   22.2141 H   0  0  0  0  0  0  0  0  0  0  0  0
   18.3057   19.0932   23.6028 H   0  0  0  0  0  0  0  0  0  0  0  0
   17.2101   18.5184   21.8243 C   0  0  0  0  0  0  0  0  0  0  0  0
   16.3185   19.1029   22.0858 H   0  0  0  0  0  0  0  0  0  0  0  0
   17.0329   17.4794   22.1312 H   0  0  0  0  0  0  0  0  0  0  0  0
   17.3169   18.5385   20.7318 H   0  0  0  0  0  0  0  0  0  0  0  0
  1  2  1  0  0  0  0
  1  3  1  0  0  0  0
  1  4  1  0  0  0  0
  1  5  1  0  0  0  0
  5  6  1  0  0  0  0
  5  7  1  0  0  0  0
  7  8  1  0  0  0  0
  7  9  1  0  0  0  0
  7 10  1  0  0  0  0
  5 11  1  0  0  0  0
 11 12  1  0  0  0  0
 11 13  1  0  0  0  0
 11 14  1  0  0  0  0
 14 15  1  0  0  0  0
 14 16  1  0  0  0  0
 14 17  1  0  0  0  0
 17 18  1  0  0  0  0
 17 19  1  0  0  0  0
 17 20  1  0  0  0  0
M  END
> <VConfSearch Rank>
645

> <Conf_Id>
63

> <Delta U+W>
0.420

> <U+W>
-35.856

> <U>
22.625

> <W>
-58.481

> <W(PB)>
-60.400

> <W(SA)>
1.919

> <Valence>
2.404

> <Coulomb>
19.464

> <VdW>
0.757

> <VdW6>
-5.074

> <VdW12>
5.830

> <Bond>
0.172

> <Angle>
1.207

> <Pdih>
1.025

> <Idih>
0.000

> <Tether>
0.000

$$$$
VeraChem MOL file


 20 19  0  0  0  0  0  0  0  0999 V2000     
   19.0638   19.8591   21.3535 N   0  3  0  0  0  0  0  0  0  0  0  0
   18.4884   19.0267   21.2024 H   0  0  0  0  0  0  0  0  0  0  0  0
   19.7673   19.8861   20.6114 H   0  0  0  0  0  0  0  0  0  0  0  0
   18.4587   20.6754   21.2314 H   0  0  0  0  0  0  0  0  0  0  0  0
   19.7010   19.8432   22.7166 C   0  0  2  0  0  0  0  0  0  0  0  0
   18.8850   19.8174   23.4451 H   0  0  0  0  0  0  0  0  0  0  0  0
   20.5118   21.1279   22.9521 C   0  0  0  0  0  0  0  0  0  0  0  0
   19.8769   22.0148   22.8352 H   0  0  0  0  0  0  0  0  0  0  0  0
   21.3448   21.2081   22.2426 H   0  0  0  0  0  0  0  0  0  0  0  0
   20.9254   21.1470   23.9681 H   0  0  0  0  0  0  0  0  0  0  0  0
   20.5891   18.5979   22.9395 C   0  0  0  0  0  0  0  0  0  0  0  0
   21.4246   18.6142   22.2271 H   0  0  0  0  0  0  0  0  0  0  0  0
   21.0383   18.6540   23.9400 H   0  0  0  0  0  0  0  0  0  0  0  0
   19.8368   17.2494   22.8075 C   0  0  0  0  0  0  0  0  0  0  0  0
   20.5494   16.4301   22.9775 H   0  0  0  0  0  0  0  0  0  0  0  0
   19.4671   17.1193   21.7814 H   0  0  0  0  0  0  0  0  0  0  0  0
   18.6651   17.1090   23.8058 C   0  0  0  0  0  0  0  0  0  0  0  0
   19.0107   17.2354   24.8401 H   0  0  0  0  0  0  0  0  0  0  0  0
   18.2083   16.1141   23.7252 H   0  0  0  0  0  0  0  0  0  0  0  0
   17.8788   17.8500   23.6143 H   0  0  0  0  0  0  0  0  0  0  0  0
  1  2  1  0  0  0  0
  1  3  1  0  0  0  0
  1  4  1  0  0  0  0
  1  5  1  0  0  0  0
  5  6  1  0  0  0  0
  5  7  1  0  0  0  0
  7  8  1  0  0  0  0
  7  9  1  0  0  0  0
  7 10  1  0  0  0  0
  5 11  1  0  0  0  0
 11 12  1  0  0  0  0
 11 13  1  0  0  0  0
 11 14  1  0  0  0  0
 14 15  1  0  0  0  0
 14 16  1  0  0  0  0
 14 17  1  0  0  0  0
 17 18  1  0  0  0  0
 17 19  1  0  0  0  0
 17 20  1  0  0  0  0
M  END
> <VConfSearch Rank>
646

> <Conf_Id>
50

> <Delta U+W>
0.466

> <U+W>
-35.811

> <U>
22.369

> <W>
-58.180

> <W(PB)>
-60.103

> <W(SA)>
1.923

> <Valence>
2.168

> <Coulomb>
19.636

> <VdW>
0.566

> <VdW6>
-5.263

> <VdW12>
5.829

> <Bond>
0.162

> <Angle>
1.066

> <Pdih>
0.939

> <Idih>
0.000

> <Tether>
0.000

$$$$
VeraChem MOL file


 20 19  0  0  0  0  0  0  0  0999 V2000     
   21.5022   19.6510   21.5389 N   0  3  0  0  0  0  0  0  0  0  0  0
   21.3075   19.3554   20.5784 H   0  0  0  0  0  0  0  0  0  0  0  0
   22.3177   19.1249   21.8629 H   0  0  0  0  0  0  0  0  0  0  0  0
   21.7715   20.6379   21.5026 H   0  0  0  0  0  0  0  0  0  0  0  0
   20.3138   19.4373   22.4371 C   0  0  2  0  0  0  0  0  0  0  0  0
   19.4993   20.0314   22.0113 H   0  0  0  0  0  0  0  0  0  0  0  0
   20.6213   19.9630   23.8517 C   0  0  0  0  0  0  0  0  0  0  0  0
   21.4661   19.4242   24.2986 H   0  0  0  0  0  0  0  0  0  0  0  0
   19.7601   19.8508   24.5192 H   0  0  0  0  0  0  0  0  0  0  0  0
   20.8780   21.0289   23.8202 H   0  0  0  0  0  0  0  0  0  0  0  0
   19.8669   17.9547   22.4616 C   0  0  0  0  0  0  0  0  0  0  0  0
   20.3052   17.4329   21.6007 H   0  0  0  0  0  0  0  0  0  0  0  0
   20.2677   17.4478   23.3495 H   0  0  0  0  0  0  0  0  0  0  0  0
   18.3312   17.7610   22.3851 C   0  0  0  0  0  0  0  0  0  0  0  0
   18.1158   16.6847   22.3295 H   0  0  0  0  0  0  0  0  0  0  0  0
   17.9521   18.1966   21.4499 H   0  0  0  0  0  0  0  0  0  0  0  0
   17.5580   18.3611   23.5802 C   0  0  0  0  0  0  0  0  0  0  0  0
   17.9424   17.9773   24.5341 H   0  0  0  0  0  0  0  0  0  0  0  0
   16.4938   18.0989   23.5188 H   0  0  0  0  0  0  0  0  0  0  0  0
   17.6251   19.4561   23.5921 H   0  0  0  0  0  0  0  0  0  0  0  0
  1  2  1  0  0  0  0
  1  3  1  0  0  0  0
  1  4  1  0  0  0  0
  1  5  1  0  0  0  0
  5  6  1  0  0  0  0
  5  7  1  0  0  0  0
  7  8  1  0  0  0  0
  7  9  1  0  0  0  0
  7 10  1  0  0  0  0
  5 11  1  0  0  0  0
 11 12  1  0  0  0  0
 11 13  1  0  0  0  0
 11 14  1  0  0  0  0
 14 15  1  0  0  0  0
 14 16  1  0  0  0  0
 14 17  1  0  0  0  0
 17 18  1  0  0  0  0
 17 19  1  0  0  0  0
 17 20  1  0  0  0  0
M  END
> <VConfSearch Rank>
647

> <Conf_Id>
3

> <Delta U+W>
3.093

> <U+W>
-33.184

> <U>
25.256

> <W>
-58.439

> <W(PB)>
-60.337

> <W(SA)>
1.898

> <Valence>
4.963

> <Coulomb>
19.511

> <VdW>
0.782

> <VdW6>
-5.429

> <VdW12>
6.211

> <Bond>
0.174

> <Angle>
1.377

> <Pdih>
3.412

> <Idih>
0.000

> <Tether>
0.000

$$$$
VeraChem MOL file


 20 19  0  0  0  0  0  0  0  0999 V2000     
   21.8945   18.9623   23.2944 N   0  3  0  0  0  0  0  0  0  0  0  0
   22.6261   19.2138   22.6243 H   0  0  0  0  0  0  0  0  0  0  0  0
   22.0765   18.0006   23.5941 H   0  0  0  0  0  0  0  0  0  0  0  0
   22.0114   19.5654   24.1126 H   0  0  0  0  0  0  0  0  0  0  0  0
   20.5234   19.1066   22.6930 C   0  0  2  0  0  0  0  0  0  0  0  0
   20.4945   18.4335   21.8309 H   0  0  0  0  0  0  0  0  0  0  0  0
   20.3067   20.5464   22.1931 C   0  0  0  0  0  0  0  0  0  0  0  0
   19.3713   20.6349   21.6286 H   0  0  0  0  0  0  0  0  0  0  0  0
   21.1201   20.8495   21.5224 H   0  0  0  0  0  0  0  0  0  0  0  0
   20.2725   21.2561   23.0289 H   0  0  0  0  0  0  0  0  0  0  0  0
   19.4252   18.6663   23.6903 C   0  0  0  0  0  0  0  0  0  0  0  0
   19.6765   17.6677   24.0713 H   0  0  0  0  0  0  0  0  0  0  0  0
   19.4355   19.3356   24.5608 H   0  0  0  0  0  0  0  0  0  0  0  0
   17.9903   18.6181   23.1057 C   0  0  0  0  0  0  0  0  0  0  0  0
   17.6540   19.6283   22.8359 H   0  0  0  0  0  0  0  0  0  0  0  0
   17.3023   18.2726   23.8900 H   0  0  0  0  0  0  0  0  0  0  0  0
   17.8656   17.6817   21.8824 C   0  0  0  0  0  0  0  0  0  0  0  0
   18.1994   16.6650   22.1276 H   0  0  0  0  0  0  0  0  0  0  0  0
   18.4613   18.0437   21.0349 H   0  0  0  0  0  0  0  0  0  0  0  0
   16.8213   17.6202   21.5499 H   0  0  0  0  0  0  0  0  0  0  0  0
  1  2  1  0  0  0  0
  1  3  1  0  0  0  0
  1  4  1  0  0  0  0
  1  5  1  0  0  0  0
  5  6  1  0  0  0  0
  5  7  1  0  0  0  0
  7  8  1  0  0  0  0
  7  9  1  0  0  0  0
  7 10  1  0  0  0  0
  5 11  1  0  0  0  0
 11 12  1  0  0  0  0
 11 13  1  0  0  0  0
 11 14  1  0  0  0  0
 14 15  1  0  0  0  0
 14 16  1  0  0  0  0
 14 17  1  0  0  0  0
 17 18  1  0  0  0  0
 17 19  1  0  0  0  0
 17 20  1  0  0  0  0
M  END
> <VConfSearch Rank>
648

> <Conf_Id>
64

> <Delta U+W>
0.544

> <U+W>
-35.732

> <U>
22.800

> <W>
-58.532

> <W(PB)>
-60.437

> <W(SA)>
1.905

> <Valence>
2.662

> <Coulomb>
19.485

> <VdW>
0.653

> <VdW6>
-5.460

> <VdW12>
6.113

> <Bond>
0.174

> <Angle>
1.378

> <Pdih>
1.109

> <Idih>
0.000

> <Tether>
0.000

$$$$
VeraChem MOL file


 20 19  0  0  0  0  0  0  0  0999 V2000     
   20.1672   17.9418   24.5313 N   0  3  0  0  0  0  0  0  0  0  0  0
   19.1553   18.0817   24.5750 H   0  0  0  0  0  0  0  0  0  0  0  0
   20.5563   18.2422   25.4291 H   0  0  0  0  0  0  0  0  0  0  0  0
   20.3350   16.9355   24.4493 H   0  0  0  0  0  0  0  0  0  0  0  0
   20.7793   18.7005   23.3848 C   0  0  2  0  0  0  0  0  0  0  0  0
   21.8537   18.4968   23.4309 H   0  0  0  0  0  0  0  0  0  0  0  0
   20.5909   20.2154   23.5672 C   0  0  0  0  0  0  0  0  0  0  0  0
   19.5316   20.4793   23.6662 H   0  0  0  0  0  0  0  0  0  0  0  0
   21.0108   20.7669   22.7169 H   0  0  0  0  0  0  0  0  0  0  0  0
   21.1056   20.5588   24.4729 H   0  0  0  0  0  0  0  0  0  0  0  0
   20.2819   18.1912   22.0085 C   0  0  0  0  0  0  0  0  0  0  0  0
   20.8817   18.6505   21.2118 H   0  0  0  0  0  0  0  0  0  0  0  0
   20.5066   17.1178   21.9555 H   0  0  0  0  0  0  0  0  0  0  0  0
   18.7696   18.3872   21.7091 C   0  0  0  0  0  0  0  0  0  0  0  0
   18.1784   18.3443   22.6332 H   0  0  0  0  0  0  0  0  0  0  0  0
   18.4262   17.5428   21.0950 H   0  0  0  0  0  0  0  0  0  0  0  0
   18.4563   19.6903   20.9366 C   0  0  0  0  0  0  0  0  0  0  0  0
   18.7306   20.5849   21.5062 H   0  0  0  0  0  0  0  0  0  0  0  0
   17.3831   19.7558   20.7152 H   0  0  0  0  0  0  0  0  0  0  0  0
   18.9946   19.7193   19.9804 H   0  0  0  0  0  0  0  0  0  0  0  0
  1  2  1  0  0  0  0
  1  3  1  0  0  0  0
  1  4  1  0  0  0  0
  1  5  1  0  0  0  0
  5  6  1  0  0  0  0
  5  7  1  0  0  0  0
  7  8  1  0  0  0  0
  7  9  1  0  0  0  0
  7 10  1  0  0  0  0
  5 11  1  0  0  0  0
 11 12  1  0  0  0  0
 11 13  1  0  0  0  0
 11 14  1  0  0  0  0
 14 15  1  0  0  0  0
 14 16  1  0  0  0  0
 14 17  1  0  0  0  0
 17 18  1  0  0  0  0
 17 19  1  0  0  0  0
 17 20  1  0  0  0  0
M  END
> <VConfSearch Rank>
649

> <Conf_Id>
35

> <Delta U+W>
3.004

> <U+W>
-33.272

> <U>
25.367

> <W>
-58.639

> <W(PB)>
-60.512

> <W(SA)>
1.873

> <Valence>
4.943

> <Coulomb>
19.661

> <VdW>
0.764

> <VdW6>
-5.871

> <VdW12>
6.636

> <Bond>
0.230

> <Angle>
1.857

> <Pdih>
2.855

> <Idih>
0.000

> <Tether>
0.000

$$$$
VeraChem MOL file


 20 19  0  0  0  0  0  0  0  0999 V2000     
   19.7669   17.9499   24.1595 N   0  3  0  0  0  0  0  0  0  0  0  0
   20.1619   17.0634   24.4847 H   0  0  0  0  0  0  0  0  0  0  0  0
   18.9782   18.1748   24.7718 H   0  0  0  0  0  0  0  0  0  0  0  0
   20.4756   18.6734   24.2954 H   0  0  0  0  0  0  0  0  0  0  0  0
   19.3406   17.8691   22.7193 C   0  0  2  0  0  0  0  0  0  0  0  0
   18.5707   17.0918   22.6888 H   0  0  0  0  0  0  0  0  0  0  0  0
   20.4970   17.4040   21.8167 C   0  0  0  0  0  0  0  0  0  0  0  0
   21.3513   18.0895   21.8675 H   0  0  0  0  0  0  0  0  0  0  0  0
   20.1714   17.3364   20.7713 H   0  0  0  0  0  0  0  0  0  0  0  0
   20.8462   16.4099   22.1212 H   0  0  0  0  0  0  0  0  0  0  0  0
   18.6797   19.1747   22.2075 C   0  0  0  0  0  0  0  0  0  0  0  0
   18.1310   18.9311   21.2882 H   0  0  0  0  0  0  0  0  0  0  0  0
   17.9141   19.4915   22.9276 H   0  0  0  0  0  0  0  0  0  0  0  0
   19.6182   20.3744   21.8963 C   0  0  0  0  0  0  0  0  0  0  0  0
   19.0010   21.1951   21.5048 H   0  0  0  0  0  0  0  0  0  0  0  0
   20.3118   20.1150   21.0851 H   0  0  0  0  0  0  0  0  0  0  0  0
   20.4138   20.9034   23.1113 C   0  0  0  0  0  0  0  0  0  0  0  0
   19.7541   21.0905   23.9686 H   0  0  0  0  0  0  0  0  0  0  0  0
   20.9072   21.8509   22.8586 H   0  0  0  0  0  0  0  0  0  0  0  0
   21.2002   20.2029   23.4149 H   0  0  0  0  0  0  0  0  0  0  0  0
  1  2  1  0  0  0  0
  1  3  1  0  0  0  0
  1  4  1  0  0  0  0
  1  5  1  0  0  0  0
  5  6  1  0  0  0  0
  5  7  1  0  0  0  0
  7  8  1  0  0  0  0
  7  9  1  0  0  0  0
  7 10  1  0  0  0  0
  5 11  1  0  0  0  0
 11 12  1  0  0  0  0
 11 13  1  0  0  0  0
 11 14  1  0  0  0  0
 14 15  1  0  0  0  0
 14 16  1  0  0  0  0
 14 17  1  0  0  0  0
 17 18  1  0  0  0  0
 17 19  1  0  0  0  0
 17 20  1  0  0  0  0
M  END
> <VConfSearch Rank>
650

> <Conf_Id>
55

> <Delta U+W>
2.767

> <U+W>
-33.509

> <U>
24.552

> <W>
-58.061

> <W(PB)>
-59.930

> <W(SA)>
1.869

> <Valence>
3.726

> <Coulomb>
20.219

> <VdW>
0.606

> <VdW6>
-6.395

> <VdW12>
7.001

> <Bond>
0.241

> <Angle>
2.098

> <Pdih>
1.387

> <Idih>
0.000

> <Tether>
0.000

$$$$
VeraChem MOL file


 20 19  0  0  0  0  0  0  0  0999 V2000     
   19.6474   20.9110   22.9483 N   0  3  0  0  0  0  0  0  0  0  0  0
   18.9048   20.9256   23.6518 H   0  0  0  0  0  0  0  0  0  0  0  0
   19.6334   21.8164   22.4710 H   0  0  0  0  0  0  0  0  0  0  0  0
   20.5396   20.8430   23.4442 H   0  0  0  0  0  0  0  0  0  0  0  0
   19.4662   19.7744   21.9786 C   0  0  2  0  0  0  0  0  0  0  0  0
   20.2981   19.8299   21.2695 H   0  0  0  0  0  0  0  0  0  0  0  0
   18.1539   19.9376   21.1943 C   0  0  0  0  0  0  0  0  0  0  0  0
   18.1315   20.9012   20.6706 H   0  0  0  0  0  0  0  0  0  0  0  0
   17.2839   19.8908   21.8612 H   0  0  0  0  0  0  0  0  0  0  0  0
   18.0491   19.1475   20.4404 H   0  0  0  0  0  0  0  0  0  0  0  0
   19.5112   18.3930   22.6683 C   0  0  0  0  0  0  0  0  0  0  0  0
   18.6990   18.3202   23.4038 H   0  0  0  0  0  0  0  0  0  0  0  0
   19.3227   17.6153   21.9162 H   0  0  0  0  0  0  0  0  0  0  0  0
   20.8671   18.1032   23.3562 C   0  0  0  0  0  0  0  0  0  0  0  0
   21.0531   18.8360   24.1529 H   0  0  0  0  0  0  0  0  0  0  0  0
   21.6827   18.2116   22.6273 H   0  0  0  0  0  0  0  0  0  0  0  0
   20.9076   16.6834   23.9608 C   0  0  0  0  0  0  0  0  0  0  0  0
   20.1219   16.5534   24.7165 H   0  0  0  0  0  0  0  0  0  0  0  0
   21.8746   16.4956   24.4452 H   0  0  0  0  0  0  0  0  0  0  0  0
   20.7659   15.9190   23.1857 H   0  0  0  0  0  0  0  0  0  0  0  0
  1  2  1  0  0  0  0
  1  3  1  0  0  0  0
  1  4  1  0  0  0  0
  1  5  1  0  0  0  0
  5  6  1  0  0  0  0
  5  7  1  0  0  0  0
  7  8  1  0  0  0  0
  7  9  1  0  0  0  0
  7 10  1  0  0  0  0
  5 11  1  0  0  0  0
 11 12  1  0  0  0  0
 11 13  1  0  0  0  0
 11 14  1  0  0  0  0
 14 15  1  0  0  0  0
 14 16  1  0  0  0  0
 14 17  1  0  0  0  0
 17 18  1  0  0  0  0
 17 19  1  0  0  0  0
 17 20  1  0  0  0  0
M  END
> <VConfSearch Rank>
651

> <Conf_Id>
74

> <Delta U+W>
0.000

> <U+W>
-36.276

> <U>
22.080

> <W>
-58.356

> <W(PB)>
-60.289

> <W(SA)>
1.932

> <Valence>
1.885

> <Coulomb>
19.559

> <VdW>
0.637

> <VdW6>
-4.482

> <VdW12>
5.119

> <Bond>
0.136

> <Angle>
0.867

> <Pdih>
0.882

> <Idih>
0.000

> <Tether>
0.000

$$$$
VeraChem MOL file


 20 19  0  0  0  0  0  0  0  0999 V2000     
   20.0857   20.9070   21.4151 N   0  3  0  0  0  0  0  0  0  0  0  0
   19.8549   20.5778   20.4737 H   0  0  0  0  0  0  0  0  0  0  0  0
   21.1056   20.9478   21.4839 H   0  0  0  0  0  0  0  0  0  0  0  0
   19.7370   21.8662   21.4936 H   0  0  0  0  0  0  0  0  0  0  0  0
   19.4953   20.0180   22.4750 C   0  0  2  0  0  0  0  0  0  0  0  0
   18.4113   20.0385   22.3256 H   0  0  0  0  0  0  0  0  0  0  0  0
   19.8038   20.5792   23.8752 C   0  0  0  0  0  0  0  0  0  0  0  0
   19.4980   21.6303   23.9461 H   0  0  0  0  0  0  0  0  0  0  0  0
   20.8762   20.5215   24.0989 H   0  0  0  0  0  0  0  0  0  0  0  0
   19.2602   20.0316   24.6536 H   0  0  0  0  0  0  0  0  0  0  0  0
   19.9780   18.5578   22.3128 C   0  0  0  0  0  0  0  0  0  0  0  0
   19.8281   18.2564   21.2677 H   0  0  0  0  0  0  0  0  0  0  0  0
   21.0587   18.5027   22.4999 H   0  0  0  0  0  0  0  0  0  0  0  0
   19.2385   17.5494   23.2258 C   0  0  0  0  0  0  0  0  0  0  0  0
   18.1530   17.6486   23.0845 H   0  0  0  0  0  0  0  0  0  0  0  0
   19.4439   17.7696   24.2818 H   0  0  0  0  0  0  0  0  0  0  0  0
   19.6622   16.0949   22.9286 C   0  0  0  0  0  0  0  0  0  0  0  0
   19.4331   15.8199   21.8907 H   0  0  0  0  0  0  0  0  0  0  0  0
   19.1316   15.3944   23.5865 H   0  0  0  0  0  0  0  0  0  0  0  0
   20.7394   15.9568   23.0889 H   0  0  0  0  0  0  0  0  0  0  0  0
  1  2  1  0  0  0  0
  1  3  1  0  0  0  0
  1  4  1  0  0  0  0
  1  5  1  0  0  0  0
  5  6  1  0  0  0  0
  5  7  1  0  0  0  0
  7  8  1  0  0  0  0
  7  9  1  0  0  0  0
  7 10  1  0  0  0  0
  5 11  1  0  0  0  0
 11 12  1  0  0  0  0
 11 13  1  0  0  0  0
 11 14  1  0  0  0  0
 14 15  1  0  0  0  0
 14 16  1  0  0  0  0
 14 17  1  0  0  0  0
 17 18  1  0  0  0  0
 17 19  1  0  0  0  0
 17 20  1  0  0  0  0
M  END
> <VConfSearch Rank>
652

> <Conf_Id>
80

> <Delta U+W>
0.460

> <U+W>
-35.817

> <U>
22.495

> <W>
-58.311

> <W(PB)>
-60.259

> <W(SA)>
1.948

> <Valence>
2.419

> <Coulomb>
19.304

> <VdW>
0.772

> <VdW6>
-4.635

> <VdW12>
5.407

> <Bond>
0.149

> <Angle>
1.142

> <Pdih>
1.129

> <Idih>
0.000

> <Tether>
0.000

$$$$
VeraChem MOL file


 20 19  0  0  0  0  0  0  0  0999 V2000     
   18.7010   16.8295   23.3869 N   0  3  0  0  0  0  0  0  0  0  0  0
   17.9195   17.0021   24.0250 H   0  0  0  0  0  0  0  0  0  0  0  0
   19.4903   16.5030   23.9500 H   0  0  0  0  0  0  0  0  0  0  0  0
   18.4254   16.0580   22.7733 H   0  0  0  0  0  0  0  0  0  0  0  0
   19.0571   18.0601   22.5983 C   0  0  2  0  0  0  0  0  0  0  0  0
   18.1620   18.3283   22.0287 H   0  0  0  0  0  0  0  0  0  0  0  0
   20.1830   17.7445   21.5988 C   0  0  0  0  0  0  0  0  0  0  0  0
   19.9409   16.8499   21.0122 H   0  0  0  0  0  0  0  0  0  0  0  0
   21.1349   17.5669   22.1143 H   0  0  0  0  0  0  0  0  0  0  0  0
   20.3189   18.5675   20.8879 H   0  0  0  0  0  0  0  0  0  0  0  0
   19.4004   19.2420   23.5378 C   0  0  0  0  0  0  0  0  0  0  0  0
   18.5591   19.3655   24.2325 H   0  0  0  0  0  0  0  0  0  0  0  0
   20.2682   18.9908   24.1620 H   0  0  0  0  0  0  0  0  0  0  0  0
   19.6273   20.6014   22.8250 C   0  0  0  0  0  0  0  0  0  0  0  0
   19.2148   21.4011   23.4562 H   0  0  0  0  0  0  0  0  0  0  0  0
   19.0608   20.6388   21.8839 H   0  0  0  0  0  0  0  0  0  0  0  0
   21.1193   20.9201   22.5690 C   0  0  0  0  0  0  0  0  0  0  0  0
   21.6791   20.9596   23.5125 H   0  0  0  0  0  0  0  0  0  0  0  0
   21.2248   21.8968   22.0793 H   0  0  0  0  0  0  0  0  0  0  0  0
   21.5970   20.1732   21.9251 H   0  0  0  0  0  0  0  0  0  0  0  0
  1  2  1  0  0  0  0
  1  3  1  0  0  0  0
  1  4  1  0  0  0  0
  1  5  1  0  0  0  0
  5  6  1  0  0  0  0
  5  7  1  0  0  0  0
  7  8  1  0  0  0  0
  7  9  1  0  0  0  0
  7 10  1  0  0  0  0
  5 11  1  0  0  0  0
 11 12  1  0  0  0  0
 11 13  1  0  0  0  0
 11 14  1  0  0  0  0
 14 15  1  0  0  0  0
 14 16  1  0  0  0  0
 14 17  1  0  0  0  0
 17 18  1  0  0  0  0
 17 19  1  0  0  0  0
 17 20  1  0  0  0  0
M  END
> <VConfSearch Rank>
653

> <Conf_Id>
52

> <Delta U+W>
2.995

> <U+W>
-33.282

> <U>
25.224

> <W>
-58.506

> <W(PB)>
-60.411

> <W(SA)>
1.905

> <Valence>
4.945

> <Coulomb>
19.467

> <VdW>
0.813

> <VdW6>
-5.458

> <VdW12>
6.270

> <Bond>
0.200

> <Angle>
1.675

> <Pdih>
3.070

> <Idih>
0.000

> <Tether>
0.000

$$$$
VeraChem MOL file


 20 19  0  0  0  0  0  0  0  0999 V2000     
   18.4590   18.1945   22.2037 N   0  3  0  0  0  0  0  0  0  0  0  0
   17.7670   18.9153   21.9845 H   0  0  0  0  0  0  0  0  0  0  0  0
   17.9531   17.3144   22.3346 H   0  0  0  0  0  0  0  0  0  0  0  0
   19.0590   18.0869   21.3831 H   0  0  0  0  0  0  0  0  0  0  0  0
   19.2616   18.5574   23.4233 C   0  0  2  0  0  0  0  0  0  0  0  0
   19.9413   17.7230   23.6217 H   0  0  0  0  0  0  0  0  0  0  0  0
   18.3270   18.7149   24.6347 C   0  0  0  0  0  0  0  0  0  0  0  0
   17.6319   19.5521   24.4939 H   0  0  0  0  0  0  0  0  0  0  0  0
   18.9018   18.8982   25.5510 H   0  0  0  0  0  0  0  0  0  0  0  0
   17.7371   17.8034   24.7917 H   0  0  0  0  0  0  0  0  0  0  0  0
   20.1082   19.8374   23.2251 C   0  0  0  0  0  0  0  0  0  0  0  0
   19.4917   20.6286   22.7785 H   0  0  0  0  0  0  0  0  0  0  0  0
   20.4098   20.2136   24.2118 H   0  0  0  0  0  0  0  0  0  0  0  0
   21.4043   19.6379   22.3964 C   0  0  0  0  0  0  0  0  0  0  0  0
   22.0372   18.8781   22.8761 H   0  0  0  0  0  0  0  0  0  0  0  0
   21.9788   20.5743   22.4292 H   0  0  0  0  0  0  0  0  0  0  0  0
   21.1763   19.2589   20.9153 C   0  0  0  0  0  0  0  0  0  0  0  0
   22.1178   19.3345   20.3557 H   0  0  0  0  0  0  0  0  0  0  0  0
   20.4515   19.9312   20.4378 H   0  0  0  0  0  0  0  0  0  0  0  0
   20.8260   18.2255   20.8117 H   0  0  0  0  0  0  0  0  0  0  0  0
  1  2  1  0  0  0  0
  1  3  1  0  0  0  0
  1  4  1  0  0  0  0
  1  5  1  0  0  0  0
  5  6  1  0  0  0  0
  5  7  1  0  0  0  0
  7  8  1  0  0  0  0
  7  9  1  0  0  0  0
  7 10  1  0  0  0  0
  5 11  1  0  0  0  0
 11 12  1  0  0  0  0
 11 13  1  0  0  0  0
 11 14  1  0  0  0  0
 14 15  1  0  0  0  0
 14 16  1  0  0  0  0
 14 17  1  0  0  0  0
 17 18  1  0  0  0  0
 17 19  1  0  0  0  0
 17 20  1  0  0  0  0
M  END
> <VConfSearch Rank>
654

> <Conf_Id>
54

> <Delta U+W>
2.752

> <U+W>
-33.525

> <U>
24.337

> <W>
-57.862

> <W(PB)>
-59.764

> <W(SA)>
1.901

> <Valence>
3.593

> <Coulomb>
20.067

> <VdW>
0.677

> <VdW6>
-5.466

> <VdW12>
6.144

> <Bond>
0.191

> <Angle>
1.557

> <Pdih>
1.845

> <Idih>
0.000

> <Tether>
0.000

$$$$
VeraChem MOL file


 20 19  0  0  0  0  0  0  0  0999 V2000     
   21.1958   18.5813   24.1311 N   0  3  0  0  0  0  0  0  0  0  0  0
   21.3521   18.4314   25.1315 H   0  0  0  0  0  0  0  0  0  0  0  0
   22.0419   19.0164   23.7535 H   0  0  0  0  0  0  0  0  0  0  0  0
   21.1028   17.6610   23.6954 H   0  0  0  0  0  0  0  0  0  0  0  0
   19.9793   19.4318   23.8852 C   0  0  2  0  0  0  0  0  0  0  0  0
   20.1641   20.3802   24.3994 H   0  0  0  0  0  0  0  0  0  0  0  0
   18.7257   18.7993   24.5155 C   0  0  0  0  0  0  0  0  0  0  0  0
   17.8408   19.4214   24.3326 H   0  0  0  0  0  0  0  0  0  0  0  0
   18.8476   18.7071   25.6017 H   0  0  0  0  0  0  0  0  0  0  0  0
   18.5308   17.7976   24.1147 H   0  0  0  0  0  0  0  0  0  0  0  0
   19.7760   19.7562   22.3857 C   0  0  0  0  0  0  0  0  0  0  0  0
   18.9302   20.4494   22.2862 H   0  0  0  0  0  0  0  0  0  0  0  0
   20.6574   20.3034   22.0265 H   0  0  0  0  0  0  0  0  0  0  0  0
   19.5370   18.5236   21.4758 C   0  0  0  0  0  0  0  0  0  0  0  0
   18.6286   17.9913   21.7878 H   0  0  0  0  0  0  0  0  0  0  0  0
   20.3706   17.8148   21.5708 H   0  0  0  0  0  0  0  0  0  0  0  0
   19.3915   18.9329   19.9944 C   0  0  0  0  0  0  0  0  0  0  0  0
   19.2208   18.0510   19.3634 H   0  0  0  0  0  0  0  0  0  0  0  0
   20.2978   19.4353   19.6320 H   0  0  0  0  0  0  0  0  0  0  0  0
   18.5432   19.6157   19.8546 H   0  0  0  0  0  0  0  0  0  0  0  0
  1  2  1  0  0  0  0
  1  3  1  0  0  0  0
  1  4  1  0  0  0  0
  1  5  1  0  0  0  0
  5  6  1  0  0  0  0
  5  7  1  0  0  0  0
  7  8  1  0  0  0  0
  7  9  1  0  0  0  0
  7 10  1  0  0  0  0
  5 11  1  0  0  0  0
 11 12  1  0  0  0  0
 11 13  1  0  0  0  0
 11 14  1  0  0  0  0
 14 15  1  0  0  0  0
 14 16  1  0  0  0  0
 14 17  1  0  0  0  0
 17 18  1  0  0  0  0
 17 19  1  0  0  0  0
 17 20  1  0  0  0  0
M  END
> <VConfSearch Rank>
655

> <Conf_Id>
63

> <Delta U+W>
0.420

> <U+W>
-35.856

> <U>
22.625

> <W>
-58.481

> <W(PB)>
-60.400

> <W(SA)>
1.919

> <Valence>
2.404

> <Coulomb>
19.464

> <VdW>
0.757

> <VdW6>
-5.074

> <VdW12>
5.830

> <Bond>
0.172

> <Angle>
1.207

> <Pdih>
1.025

> <Idih>
0.000

> <Tether>
0.000

$$$$
VeraChem MOL file


 20 19  0  0  0  0  0  0  0  0999 V2000     
   19.3201   18.6133   21.0656 N   0  3  0  0  0  0  0  0  0  0  0  0
   19.4436   17.6370   21.3456 H   0  0  0  0  0  0  0  0  0  0  0  0
   20.1117   18.8651   20.4685 H   0  0  0  0  0  0  0  0  0  0  0  0
   18.4752   18.6618   20.4900 H   0  0  0  0  0  0  0  0  0  0  0  0
   19.2242   19.5179   22.2642 C   0  0  2  0  0  0  0  0  0  0  0  0
   18.3572   19.1838   22.8420 H   0  0  0  0  0  0  0  0  0  0  0  0
   18.9774   20.9716   21.8291 C   0  0  0  0  0  0  0  0  0  0  0  0
   18.0691   21.0454   21.2185 H   0  0  0  0  0  0  0  0  0  0  0  0
   19.8179   21.3584   21.2394 H   0  0  0  0  0  0  0  0  0  0  0  0
   18.8446   21.6225   22.7022 H   0  0  0  0  0  0  0  0  0  0  0  0
   20.4730   19.4322   23.1708 C   0  0  0  0  0  0  0  0  0  0  0  0
   21.3527   19.7796   22.6129 H   0  0  0  0  0  0  0  0  0  0  0  0
   20.3510   20.1258   24.0134 H   0  0  0  0  0  0  0  0  0  0  0  0
   20.7553   18.0150   23.7309 C   0  0  0  0  0  0  0  0  0  0  0  0
   21.6589   18.0562   24.3552 H   0  0  0  0  0  0  0  0  0  0  0  0
   20.9866   17.3215   22.9111 H   0  0  0  0  0  0  0  0  0  0  0  0
   19.5885   17.4538   24.5754 C   0  0  0  0  0  0  0  0  0  0  0  0
   19.3389   18.1310   25.4026 H   0  0  0  0  0  0  0  0  0  0  0  0
   19.8601   16.4825   25.0089 H   0  0  0  0  0  0  0  0  0  0  0  0
   18.6856   17.3046   23.9702 H   0  0  0  0  0  0  0  0  0  0  0  0
  1  2  1  0  0  0  0
  1  3  1  0  0  0  0
  1  4  1  0  0  0  0
  1  5  1  0  0  0  0
  5  6  1  0  0  0  0
  5  7  1  0  0  0  0
  7  8  1  0  0  0  0
  7  9  1  0  0  0  0
  7 10  1  0  0  0  0
  5 11  1  0  0  0  0
 11 12  1  0  0  0  0
 11 13  1  0  0  0  0
 11 14  1  0  0  0  0
 14 15  1  0  0  0  0
 14 16  1  0  0  0  0
 14 17  1  0  0  0  0
 17 18  1  0  0  0  0
 17 19  1  0  0  0  0
 17 20  1  0  0  0  0
M  END
> <VConfSearch Rank>
656

> <Conf_Id>
50

> <Delta U+W>
0.466

> <U+W>
-35.811

> <U>
22.369

> <W>
-58.180

> <W(PB)>
-60.103

> <W(SA)>
1.923

> <Valence>
2.168

> <Coulomb>
19.636

> <VdW>
0.566

> <VdW6>
-5.263

> <VdW12>
5.829

> <Bond>
0.162

> <Angle>
1.066

> <Pdih>
0.939

> <Idih>
0.000

> <Tether>
0.000

$$$$
VeraChem MOL file


 20 19  0  0  0  0  0  0  0  0999 V2000     
   21.9368   18.8635   23.3144 N   0  3  0  0  0  0  0  0  0  0  0  0
   21.9923   19.3762   24.1988 H   0  0  0  0  0  0  0  0  0  0  0  0
   22.4223   19.4197   22.6059 H   0  0  0  0  0  0  0  0  0  0  0  0
   22.4657   17.9954   23.4346 H   0  0  0  0  0  0  0  0  0  0  0  0
   20.5106   18.5894   22.9203 C   0  0  2  0  0  0  0  0  0  0  0  0
   20.0781   17.9981   23.7334 H   0  0  0  0  0  0  0  0  0  0  0  0
   20.4726   17.7533   21.6275 C   0  0  0  0  0  0  0  0  0  0  0  0
   20.9409   18.2922   20.7944 H   0  0  0  0  0  0  0  0  0  0  0  0
   19.4455   17.5098   21.3352 H   0  0  0  0  0  0  0  0  0  0  0  0
   21.0104   16.8071   21.7635 H   0  0  0  0  0  0  0  0  0  0  0  0
   19.6877   19.8941   22.7831 C   0  0  0  0  0  0  0  0  0  0  0  0
   20.2201   20.7098   23.2899 H   0  0  0  0  0  0  0  0  0  0  0  0
   19.6197   20.1957   21.7293 H   0  0  0  0  0  0  0  0  0  0  0  0
   18.2711   19.8110   23.4061 C   0  0  0  0  0  0  0  0  0  0  0  0
   17.7962   20.7993   23.3307 H   0  0  0  0  0  0  0  0  0  0  0  0
   18.3544   19.5939   24.4803 H   0  0  0  0  0  0  0  0  0  0  0  0
   17.3488   18.7648   22.7420 C   0  0  0  0  0  0  0  0  0  0  0  0
   17.2786   18.9290   21.6588 H   0  0  0  0  0  0  0  0  0  0  0  0
   16.3344   18.8300   23.1565 H   0  0  0  0  0  0  0  0  0  0  0  0
   17.7092   17.7436   22.9176 H   0  0  0  0  0  0  0  0  0  0  0  0
  1  2  1  0  0  0  0
  1  3  1  0  0  0  0
  1  4  1  0  0  0  0
  1  5  1  0  0  0  0
  5  6  1  0  0  0  0
  5  7  1  0  0  0  0
  7  8  1  0  0  0  0
  7  9  1  0  0  0  0
  7 10  1  0  0  0  0
  5 11  1  0  0  0  0
 11 12  1  0  0  0  0
 11 13  1  0  0  0  0
 11 14  1  0  0  0  0
 14 15  1  0  0  0  0
 14 16  1  0  0  0  0
 14 17  1  0  0  0  0
 17 18  1  0  0  0  0
 17 19  1  0  0  0  0
 17 20  1  0  0  0  0
M  END
> <VConfSearch Rank>
657

> <Conf_Id>
3

> <Delta U+W>
3.093

> <U+W>
-33.184

> <U>
25.256

> <W>
-58.439

> <W(PB)>
-60.337

> <W(SA)>
1.898

> <Valence>
4.963

> <Coulomb>
19.511

> <VdW>
0.782

> <VdW6>
-5.429

> <VdW12>
6.211

> <Bond>
0.174

> <Angle>
1.377

> <Pdih>
3.412

> <Idih>
0.000

> <Tether>
0.000

$$$$
VeraChem MOL file


 20 19  0  0  0  0  0  0  0  0999 V2000     
   17.7986   19.2130   21.4984 N   0  3  0  0  0  0  0  0  0  0  0  0
   17.2662   20.0868   21.4719 H   0  0  0  0  0  0  0  0  0  0  0  0
   17.1689   18.4858   21.8485 H   0  0  0  0  0  0  0  0  0  0  0  0
   18.0370   18.9729   20.5329 H   0  0  0  0  0  0  0  0  0  0  0  0
   19.0280   19.3427   22.3552 C   0  0  2  0  0  0  0  0  0  0  0  0
   18.6766   19.6023   23.3583 H   0  0  0  0  0  0  0  0  0  0  0  0
   19.9204   20.4872   21.8415 C   0  0  0  0  0  0  0  0  0  0  0  0
   20.7476   20.6872   22.5323 H   0  0  0  0  0  0  0  0  0  0  0  0
   19.3436   21.4155   21.7487 H   0  0  0  0  0  0  0  0  0  0  0  0
   20.3436   20.2498   20.8576 H   0  0  0  0  0  0  0  0  0  0  0  0
   19.7950   18.0015   22.4408 C   0  0  0  0  0  0  0  0  0  0  0  0
   19.0904   17.2120   22.7337 H   0  0  0  0  0  0  0  0  0  0  0  0
   20.1609   17.7278   21.4424 H   0  0  0  0  0  0  0  0  0  0  0  0
   20.9831   17.9885   23.4366 C   0  0  0  0  0  0  0  0  0  0  0  0
   21.7714   18.6746   23.0990 H   0  0  0  0  0  0  0  0  0  0  0  0
   21.4351   16.9868   23.4317 H   0  0  0  0  0  0  0  0  0  0  0  0
   20.5659   18.3425   24.8822 C   0  0  0  0  0  0  0  0  0  0  0  0
   19.7754   17.6705   25.2409 H   0  0  0  0  0  0  0  0  0  0  0  0
   20.1991   19.3741   24.9549 H   0  0  0  0  0  0  0  0  0  0  0  0
   21.4213   18.2470   25.5636 H   0  0  0  0  0  0  0  0  0  0  0  0
  1  2  1  0  0  0  0
  1  3  1  0  0  0  0
  1  4  1  0  0  0  0
  1  5  1  0  0  0  0
  5  6  1  0  0  0  0
  5  7  1  0  0  0  0
  7  8  1  0  0  0  0
  7  9  1  0  0  0  0
  7 10  1  0  0  0  0
  5 11  1  0  0  0  0
 11 12  1  0  0  0  0
 11 13  1  0  0  0  0
 11 14  1  0  0  0  0
 14 15  1  0  0  0  0
 14 16  1  0  0  0  0
 14 17  1  0  0  0  0
 17 18  1  0  0  0  0
 17 19  1  0  0  0  0
 17 20  1  0  0  0  0
M  END
> <VConfSearch Rank>
658

> <Conf_Id>
64

> <Delta U+W>
0.544

> <U+W>
-35.732

> <U>
22.800

> <W>
-58.532

> <W(PB)>
-60.437

> <W(SA)>
1.905

> <Valence>
2.662

> <Coulomb>
19.485

> <VdW>
0.653

> <VdW6>
-5.460

> <VdW12>
6.113

> <Bond>
0.174

> <Angle>
1.378

> <Pdih>
1.109

> <Idih>
0.000

> <Tether>
0.000

$$$$
VeraChem MOL file


 20 19  0  0  0  0  0  0  0  0999 V2000     
   18.4065   17.3794   23.1326 N   0  3  0  0  0  0  0  0  0  0  0  0
   19.2850   16.9749   23.4641 H   0  0  0  0  0  0  0  0  0  0  0  0
   17.9362   16.6673   22.5676 H   0  0  0  0  0  0  0  0  0  0  0  0
   17.8192   17.5526   23.9528 H   0  0  0  0  0  0  0  0  0  0  0  0
   18.6428   18.6396   22.3447 C   0  0  2  0  0  0  0  0  0  0  0  0
   17.6534   18.9847   22.0285 H   0  0  0  0  0  0  0  0  0  0  0  0
   19.4550   18.3465   21.0726 C   0  0  0  0  0  0  0  0  0  0  0  0
   20.4130   17.8690   21.3091 H   0  0  0  0  0  0  0  0  0  0  0  0
   19.6528   19.2694   20.5137 H   0  0  0  0  0  0  0  0  0  0  0  0
   18.9000   17.6699   20.4115 H   0  0  0  0  0  0  0  0  0  0  0  0
   19.2597   19.7682   23.2089 C   0  0  0  0  0  0  0  0  0  0  0  0
   19.2492   20.7082   22.6417 H   0  0  0  0  0  0  0  0  0  0  0  0
   18.5846   19.9369   24.0582 H   0  0  0  0  0  0  0  0  0  0  0  0
   20.6864   19.5049   23.7660 C   0  0  0  0  0  0  0  0  0  0  0  0
   20.8454   18.4335   23.9455 H   0  0  0  0  0  0  0  0  0  0  0  0
   20.7682   19.9881   24.7498 H   0  0  0  0  0  0  0  0  0  0  0  0
   21.8139   20.0676   22.8689 C   0  0  0  0  0  0  0  0  0  0  0  0
   21.8269   19.5996   21.8785 H   0  0  0  0  0  0  0  0  0  0  0  0
   22.7943   19.8918   23.3302 H   0  0  0  0  0  0  0  0  0  0  0  0
   21.7021   21.1507   22.7302 H   0  0  0  0  0  0  0  0  0  0  0  0
  1  2  1  0  0  0  0
  1  3  1  0  0  0  0
  1  4  1  0  0  0  0
  1  5  1  0  0  0  0
  5  6  1  0  0  0  0
  5  7  1  0  0  0  0
  7  8  1  0  0  0  0
  7  9  1  0  0  0  0
  7 10  1  0  0  0  0
  5 11  1  0  0  0  0
 11 12  1  0  0  0  0
 11 13  1  0  0  0  0
 11 14  1  0  0  0  0
 14 15  1  0  0  0  0
 14 16  1  0  0  0  0
 14 17  1  0  0  0  0
 17 18  1  0  0  0  0
 17 19  1  0  0  0  0
 17 20  1  0  0  0  0
M  END
> <VConfSearch Rank>
659

> <Conf_Id>
35

> <Delta U+W>
3.004

> <U+W>
-33.272

> <U>
25.367

> <W>
-58.639

> <W(PB)>
-60.512

> <W(SA)>
1.873

> <Valence>
4.943

> <Coulomb>
19.661

> <VdW>
0.764

> <VdW6>
-5.871

> <VdW12>
6.636

> <Bond>
0.230

> <Angle>
1.857

> <Pdih>
2.855

> <Idih>
0.000

> <Tether>
0.000

$$$$
VeraChem MOL file


 20 19  0  0  0  0  0  0  0  0999 V2000     
   20.1180   19.5511   24.3535 N   0  3  0  0  0  0  0  0  0  0  0  0
   20.4303   20.4084   24.8173 H   0  0  0  0  0  0  0  0  0  0  0  0
   20.2345   18.7839   25.0209 H   0  0  0  0  0  0  0  0  0  0  0  0
   19.1177   19.6458   24.1679 H   0  0  0  0  0  0  0  0  0  0  0  0
   20.8856   19.2988   23.0848 C   0  0  2  0  0  0  0  0  0  0  0  0
   21.9292   19.1881   23.3954 H   0  0  0  0  0  0  0  0  0  0  0  0
   20.8159   20.5087   22.1363 C   0  0  0  0  0  0  0  0  0  0  0  0
   19.7826   20.7423   21.8532 H   0  0  0  0  0  0  0  0  0  0  0  0
   21.3894   20.3187   21.2207 H   0  0  0  0  0  0  0  0  0  0  0  0
   21.2412   21.3984   22.6165 H   0  0  0  0  0  0  0  0  0  0  0  0
   20.4836   17.9753   22.3849 C   0  0  0  0  0  0  0  0  0  0  0  0
   21.2809   17.7195   21.6747 H   0  0  0  0  0  0  0  0  0  0  0  0
   20.4848   17.1662   23.1268 H   0  0  0  0  0  0  0  0  0  0  0  0
   19.1354   17.9589   21.6110 C   0  0  0  0  0  0  0  0  0  0  0  0
   19.0259   16.9712   21.1415 H   0  0  0  0  0  0  0  0  0  0  0  0
   19.1639   18.6777   20.7809 H   0  0  0  0  0  0  0  0  0  0  0  0
   17.8871   18.2217   22.4837 C   0  0  0  0  0  0  0  0  0  0  0  0
   17.8770   17.5738   23.3698 H   0  0  0  0  0  0  0  0  0  0  0  0
   16.9734   18.0160   21.9111 H   0  0  0  0  0  0  0  0  0  0  0  0
   17.8342   19.2673   22.8080 H   0  0  0  0  0  0  0  0  0  0  0  0
  1  2  1  0  0  0  0
  1  3  1  0  0  0  0
  1  4  1  0  0  0  0
  1  5  1  0  0  0  0
  5  6  1  0  0  0  0
  5  7  1  0  0  0  0
  7  8  1  0  0  0  0
  7  9  1  0  0  0  0
  7 10  1  0  0  0  0
  5 11  1  0  0  0  0
 11 12  1  0  0  0  0
 11 13  1  0  0  0  0
 11 14  1  0  0  0  0
 14 15  1  0  0  0  0
 14 16  1  0  0  0  0
 14 17  1  0  0  0  0
 17 18  1  0  0  0  0
 17 19  1  0  0  0  0
 17 20  1  0  0  0  0
M  END
> <VConfSearch Rank>
660

> <Conf_Id>
55

> <Delta U+W>
2.767

> <U+W>
-33.509

> <U>
24.552

> <W>
-58.061

> <W(PB)>
-59.930

> <W(SA)>
1.869

> <Valence>
3.726

> <Coulomb>
20.219

> <VdW>
0.606

> <VdW6>
-6.395

> <VdW12>
7.001

> <Bond>
0.241

> <Angle>
2.098

> <Pdih>
1.387

> <Idih>
0.000

> <Tether>
0.000

$$$$
VeraChem MOL file


 20 19  0  0  0  0  0  0  0  0999 V2000     
   20.5190   20.6564   22.0890 N   0  3  0  0  0  0  0  0  0  0  0  0
   20.0504   20.6881   21.1802 H   0  0  0  0  0  0  0  0  0  0  0  0
   21.3715   21.2177   22.0126 H   0  0  0  0  0  0  0  0  0  0  0  0
   19.9090   21.1214   22.7660 H   0  0  0  0  0  0  0  0  0  0  0  0
   20.8259   19.2421   22.5022 C   0  0  2  0  0  0  0  0  0  0  0  0
   21.3182   19.2990   23.4780 H   0  0  0  0  0  0  0  0  0  0  0  0
   21.8009   18.5889   21.5089 C   0  0  0  0  0  0  0  0  0  0  0  0
   22.7230   19.1772   21.4256 H   0  0  0  0  0  0  0  0  0  0  0  0
   21.3555   18.5084   20.5094 H   0  0  0  0  0  0  0  0  0  0  0  0
   22.0791   17.5809   21.8409 H   0  0  0  0  0  0  0  0  0  0  0  0
   19.5541   18.3785   22.6528 C   0  0  0  0  0  0  0  0  0  0  0  0
   19.0274   18.3248   21.6906 H   0  0  0  0  0  0  0  0  0  0  0  0
   19.8511   17.3516   22.9044 H   0  0  0  0  0  0  0  0  0  0  0  0
   18.5926   18.9019   23.7469 C   0  0  0  0  0  0  0  0  0  0  0  0
   18.2359   19.9083   23.4894 H   0  0  0  0  0  0  0  0  0  0  0  0
   19.1304   18.9893   24.7015 H   0  0  0  0  0  0  0  0  0  0  0  0
   17.3756   17.9697   23.9296 C   0  0  0  0  0  0  0  0  0  0  0  0
   16.7992   17.8858   22.9990 H   0  0  0  0  0  0  0  0  0  0  0  0
   16.7044   18.3563   24.7074 H   0  0  0  0  0  0  0  0  0  0  0  0
   17.6908   16.9615   24.2284 H   0  0  0  0  0  0  0  0  0  0  0  0
  1  2  1  0  0  0  0
  1  3  1  0  0  0  0
  1  4  1  0  0  0  0
  1  5  1  0  0  0  0
  5  6  1  0  0  0  0
  5  7  1  0  0  0  0
  7  8  1  0  0  0  0
  7  9  1  0  0  0  0
  7 10  1  0  0  0  0
  5 11  1  0  0  0  0
 11 12  1  0  0  0  0
 11 13  1  0  0  0  0
 11 14  1  0  0  0  0
 14 15  1  0  0  0  0
 14 16  1  0  0  0  0
 14 17  1  0  0  0  0
 17 18  1  0  0  0  0
 17 19  1  0  0  0  0
 17 20  1  0  0  0  0
M  END
> <VConfSearch Rank>
661

> <Conf_Id>
74

> <Delta U+W>
0.000

> <U+W>
-36.276

> <U>
22.080

> <W>
-58.356

> <W(PB)>
-60.289

> <W(SA)>
1.932

> <Valence>
1.885

> <Coulomb>
19.559

> <VdW>
0.637

> <VdW6>
-4.482

> <VdW12>
5.119

> <Bond>
0.136

> <Angle>
0.867

> <Pdih>
0.882

> <Idih>
0.000

> <Tether>
0.000

$$$$
VeraChem MOL file


 20 19  0  0  0  0  0  0  0  0999 V2000     
   18.5949   17.2734   24.0058 N   0  3  0  0  0  0  0  0  0  0  0  0
   19.0292   17.3856   24.9259 H   0  0  0  0  0  0  0  0  0  0  0  0
   19.0083   16.4447   23.5710 H   0  0  0  0  0  0  0  0  0  0  0  0
   17.6035   17.0722   24.1622 H   0  0  0  0  0  0  0  0  0  0  0  0
   18.7803   18.4969   23.1508 C   0  0  2  0  0  0  0  0  0  0  0  0
   18.3083   19.3240   23.6901 H   0  0  0  0  0  0  0  0  0  0  0  0
   18.0580   18.3205   21.8025 C   0  0  0  0  0  0  0  0  0  0  0  0
   17.0108   18.0343   21.9598 H   0  0  0  0  0  0  0  0  0  0  0  0
   18.5355   17.5418   21.1949 H   0  0  0  0  0  0  0  0  0  0  0  0
   18.0549   19.2528   21.2262 H   0  0  0  0  0  0  0  0  0  0  0  0
   20.2794   18.8308   22.9698 C   0  0  0  0  0  0  0  0  0  0  0  0
   20.7561   18.8356   23.9589 H   0  0  0  0  0  0  0  0  0  0  0  0
   20.7687   18.0344   22.3933 H   0  0  0  0  0  0  0  0  0  0  0  0
   20.5382   20.1990   22.2930 C   0  0  0  0  0  0  0  0  0  0  0  0
   19.9968   20.9882   22.8335 H   0  0  0  0  0  0  0  0  0  0  0  0
   20.1525   20.1948   21.2648 H   0  0  0  0  0  0  0  0  0  0  0  0
   22.0431   20.5423   22.2590 C   0  0  0  0  0  0  0  0  0  0  0  0
   22.4592   20.5992   23.2734 H   0  0  0  0  0  0  0  0  0  0  0  0
   22.2086   21.5126   21.7731 H   0  0  0  0  0  0  0  0  0  0  0  0
   22.6082   19.7852   21.6998 H   0  0  0  0  0  0  0  0  0  0  0  0
  1  2  1  0  0  0  0
  1  3  1  0  0  0  0
  1  4  1  0  0  0  0
  1  5  1  0  0  0  0
  5  6  1  0  0  0  0
  5  7  1  0  0  0  0
  7  8  1  0  0  0  0
  7  9  1  0  0  0  0
  7 10  1  0  0  0  0
  5 11  1  0  0  0  0
 11 12  1  0  0  0  0
 11 13  1  0  0  0  0
 11 14  1  0  0  0  0
 14 15  1  0  0  0  0
 14 16  1  0  0  0  0
 14 17  1  0  0  0  0
 17 18  1  0  0  0  0
 17 19  1  0  0  0  0
 17 20  1  0  0  0  0
M  END
> <VConfSearch Rank>
662

> <Conf_Id>
80

> <Delta U+W>
0.460

> <U+W>
-35.817

> <U>
22.495

> <W>
-58.311

> <W(PB)>
-60.259

> <W(SA)>
1.948

> <Valence>
2.419

> <Coulomb>
19.304

> <VdW>
0.772

> <VdW6>
-4.635

> <VdW12>
5.407

> <Bond>
0.149

> <Angle>
1.142

> <Pdih>
1.129

> <Idih>
0.000

> <Tether>
0.000

$$$$
VeraChem MOL file


 20 19  0  0  0  0  0  0  0  0999 V2000     
   19.5995   18.2013   25.0250 N   0  3  0  0  0  0  0  0  0  0  0  0
   19.9211   17.2371   25.1467 H   0  0  0  0  0  0  0  0  0  0  0  0
   18.5767   18.1879   25.0441 H   0  0  0  0  0  0  0  0  0  0  0  0
   19.9120   18.7297   25.8440 H   0  0  0  0  0  0  0  0  0  0  0  0
   20.1202   18.8042   23.7491 C   0  0  2  0  0  0  0  0  0  0  0  0
   21.2119   18.7811   23.8227 H   0  0  0  0  0  0  0  0  0  0  0  0
   19.6797   20.2738   23.6362 C   0  0  0  0  0  0  0  0  0  0  0  0
   19.9140   20.8204   24.5579 H   0  0  0  0  0  0  0  0  0  0  0  0
   18.6003   20.3534   23.4576 H   0  0  0  0  0  0  0  0  0  0  0  0
   20.2072   20.7801   22.8199 H   0  0  0  0  0  0  0  0  0  0  0  0
   19.7035   17.9555   22.5229 C   0  0  0  0  0  0  0  0  0  0  0  0
   20.0266   16.9232   22.7119 H   0  0  0  0  0  0  0  0  0  0  0  0
   18.6091   17.9156   22.4433 H   0  0  0  0  0  0  0  0  0  0  0  0
   20.3240   18.4046   21.1735 C   0  0  0  0  0  0  0  0  0  0  0  0
   20.5506   17.5096   20.5771 H   0  0  0  0  0  0  0  0  0  0  0  0
   21.2878   18.9046   21.3435 H   0  0  0  0  0  0  0  0  0  0  0  0
   19.3880   19.3086   20.3369 C   0  0  0  0  0  0  0  0  0  0  0  0
   18.4515   18.7883   20.0976 H   0  0  0  0  0  0  0  0  0  0  0  0
   19.8669   19.5834   19.3881 H   0  0  0  0  0  0  0  0  0  0  0  0
   19.1331   20.2367   20.8606 H   0  0  0  0  0  0  0  0  0  0  0  0
  1  2  1  0  0  0  0
  1  3  1  0  0  0  0
  1  4  1  0  0  0  0
  1  5  1  0  0  0  0
  5  6  1  0  0  0  0
  5  7  1  0  0  0  0
  7  8  1  0  0  0  0
  7  9  1  0  0  0  0
  7 10  1  0  0  0  0
  5 11  1  0  0  0  0
 11 12  1  0  0  0  0
 11 13  1  0  0  0  0
 11 14  1  0  0  0  0
 14 15  1  0  0  0  0
 14 16  1  0  0  0  0
 14 17  1  0  0  0  0
 17 18  1  0  0  0  0
 17 19  1  0  0  0  0
 17 20  1  0  0  0  0
M  END
> <VConfSearch Rank>
663

> <Conf_Id>
52

> <Delta U+W>
2.995

> <U+W>
-33.282

> <U>
25.224

> <W>
-58.506

> <W(PB)>
-60.411

> <W(SA)>
1.905

> <Valence>
4.945

> <Coulomb>
19.467

> <VdW>
0.813

> <VdW6>
-5.458

> <VdW12>
6.270

> <Bond>
0.200

> <Angle>
1.675

> <Pdih>
3.070

> <Idih>
0.000

> <Tether>
0.000

$$$$
VeraChem MOL file


 20 19  0  0  0  0  0  0  0  0999 V2000     
   19.9650   19.7465   21.3103 N   0  3  0  0  0  0  0  0  0  0  0  0
   20.8623   19.3938   20.9687 H   0  0  0  0  0  0  0  0  0  0  0  0
   19.7749   20.6249   20.8205 H   0  0  0  0  0  0  0  0  0  0  0  0
   19.2462   19.0753   21.0314 H   0  0  0  0  0  0  0  0  0  0  0  0
   19.9833   19.9385   22.8023 C   0  0  2  0  0  0  0  0  0  0  0  0
   19.0139   20.3605   23.0849 H   0  0  0  0  0  0  0  0  0  0  0  0
   21.0776   20.9496   23.1846 C   0  0  0  0  0  0  0  0  0  0  0  0
   22.0756   20.5675   22.9361 H   0  0  0  0  0  0  0  0  0  0  0  0
   21.0522   21.1657   24.2599 H   0  0  0  0  0  0  0  0  0  0  0  0
   20.9327   21.8985   22.6536 H   0  0  0  0  0  0  0  0  0  0  0  0
   20.1802   18.6127   23.5753 C   0  0  0  0  0  0  0  0  0  0  0  0
   21.0078   18.0415   23.1344 H   0  0  0  0  0  0  0  0  0  0  0  0
   20.4924   18.8488   24.6014 H   0  0  0  0  0  0  0  0  0  0  0  0
   18.9123   17.7245   23.6765 C   0  0  0  0  0  0  0  0  0  0  0  0
   18.1031   18.2882   24.1617 H   0  0  0  0  0  0  0  0  0  0  0  0
   19.1372   16.8822   24.3458 H   0  0  0  0  0  0  0  0  0  0  0  0
   18.4091   17.1552   22.3304 C   0  0  0  0  0  0  0  0  0  0  0  0
   17.6453   16.3865   22.5062 H   0  0  0  0  0  0  0  0  0  0  0  0
   19.2254   16.6884   21.7638 H   0  0  0  0  0  0  0  0  0  0  0  0
   17.9439   17.9312   21.7118 H   0  0  0  0  0  0  0  0  0  0  0  0
  1  2  1  0  0  0  0
  1  3  1  0  0  0  0
  1  4  1  0  0  0  0
  1  5  1  0  0  0  0
  5  6  1  0  0  0  0
  5  7  1  0  0  0  0
  7  8  1  0  0  0  0
  7  9  1  0  0  0  0
  7 10  1  0  0  0  0
  5 11  1  0  0  0  0
 11 12  1  0  0  0  0
 11 13  1  0  0  0  0
 11 14  1  0  0  0  0
 14 15  1  0  0  0  0
 14 16  1  0  0  0  0
 14 17  1  0  0  0  0
 17 18  1  0  0  0  0
 17 19  1  0  0  0  0
 17 20  1  0  0  0  0
M  END
> <VConfSearch Rank>
664

> <Conf_Id>
54

> <Delta U+W>
2.752

> <U+W>
-33.525

> <U>
24.337

> <W>
-57.862

> <W(PB)>
-59.764

> <W(SA)>
1.901

> <Valence>
3.593

> <Coulomb>
20.067

> <VdW>
0.677

> <VdW6>
-5.466

> <VdW12>
6.144

> <Bond>
0.191

> <Angle>
1.557

> <Pdih>
1.845

> <Idih>
0.000

> <Tether>
0.000

$$$$
VeraChem MOL file


 20 19  0  0  0  0  0  0  0  0999 V2000     
   18.5431   18.0633   24.1110 N   0  3  0  0  0  0  0  0  0  0  0  0
   18.2318   17.1652   24.4908 H   0  0  0  0  0  0  0  0  0  0  0  0
   17.7739   18.7274   24.2326 H   0  0  0  0  0  0  0  0  0  0  0  0
   19.3221   18.3858   24.6896 H   0  0  0  0  0  0  0  0  0  0  0  0
   18.9449   17.9407   22.6662 C   0  0  2  0  0  0  0  0  0  0  0  0
   18.0595   17.5766   22.1357 H   0  0  0  0  0  0  0  0  0  0  0  0
   20.0562   16.8907   22.4885 C   0  0  0  0  0  0  0  0  0  0  0  0
   20.3475   16.8056   21.4343 H   0  0  0  0  0  0  0  0  0  0  0  0
   19.7076   15.9040   22.8171 H   0  0  0  0  0  0  0  0  0  0  0  0
   20.9492   17.1415   23.0730 H   0  0  0  0  0  0  0  0  0  0  0  0
   19.3262   19.3032   22.0392 C   0  0  0  0  0  0  0  0  0  0  0  0
   19.5198   19.1570   20.9683 H   0  0  0  0  0  0  0  0  0  0  0  0
   18.4550   19.9687   22.0994 H   0  0  0  0  0  0  0  0  0  0  0  0
   20.5473   20.0040   22.6889 C   0  0  0  0  0  0  0  0  0  0  0  0
   21.4422   19.3749   22.5927 H   0  0  0  0  0  0  0  0  0  0  0  0
   20.3737   20.1495   23.7636 H   0  0  0  0  0  0  0  0  0  0  0  0
   20.8281   21.3740   22.0350 C   0  0  0  0  0  0  0  0  0  0  0  0
   21.6956   21.8567   22.5034 H   0  0  0  0  0  0  0  0  0  0  0  0
   19.9685   22.0481   22.1446 H   0  0  0  0  0  0  0  0  0  0  0  0
   21.0419   21.2642   20.9638 H   0  0  0  0  0  0  0  0  0  0  0  0
  1  2  1  0  0  0  0
  1  3  1  0  0  0  0
  1  4  1  0  0  0  0
  1  5  1  0  0  0  0
  5  6  1  0  0  0  0
  5  7  1  0  0  0  0
  7  8  1  0  0  0  0
  7  9  1  0  0  0  0
  7 10  1  0  0  0  0
  5 11  1  0  0  0  0
 11 12  1  0  0  0  0
 11 13  1  0  0  0  0
 11 14  1  0  0  0  0
 14 15  1  0  0  0  0
 14 16  1  0  0  0  0
 14 17  1  0  0  0  0
 17 18  1  0  0  0  0
 17 19  1  0  0  0  0
 17 20  1  0  0  0  0
M  END
> <VConfSearch Rank>
665

> <Conf_Id>
63

> <Delta U+W>
0.420

> <U+W>
-35.856

> <U>
22.625

> <W>
-58.481

> <W(PB)>
-60.400

> <W(SA)>
1.919

> <Valence>
2.404

> <Coulomb>
19.464

> <VdW>
0.757

> <VdW6>
-5.074

> <VdW12>
5.830

> <Bond>
0.172

> <Angle>
1.207

> <Pdih>
1.025

> <Idih>
0.000

> <Tether>
0.000

$$$$
VeraChem MOL file


 20 19  0  0  0  0  0  0  0  0999 V2000     
   18.7186   19.6009   21.4116 N   0  3  0  0  0  0  0  0  0  0  0  0
   18.4768   18.6195   21.2528 H   0  0  0  0  0  0  0  0  0  0  0  0
   19.3269   19.8964   20.6441 H   0  0  0  0  0  0  0  0  0  0  0  0
   17.8537   20.1438   21.3428 H   0  0  0  0  0  0  0  0  0  0  0  0
   19.3848   19.7908   22.7474 C   0  0  2  0  0  0  0  0  0  0  0  0
   18.6706   19.4559   23.5056 H   0  0  0  0  0  0  0  0  0  0  0  0
   19.6859   21.2774   22.9976 C   0  0  0  0  0  0  0  0  0  0  0  0
   18.7681   21.8751   22.9377 H   0  0  0  0  0  0  0  0  0  0  0  0
   20.3973   21.6687   22.2597 H   0  0  0  0  0  0  0  0  0  0  0  0
   20.1143   21.4255   23.9968 H   0  0  0  0  0  0  0  0  0  0  0  0
   20.6733   18.9492   22.8902 C   0  0  0  0  0  0  0  0  0  0  0  0
   21.4100   19.2820   22.1470 H   0  0  0  0  0  0  0  0  0  0  0  0
   21.1206   19.1449   23.8739 H   0  0  0  0  0  0  0  0  0  0  0  0
   20.4548   17.4224   22.7387 C   0  0  0  0  0  0  0  0  0  0  0  0
   21.4231   16.9148   22.8511 H   0  0  0  0  0  0  0  0  0  0  0  0
   20.1071   17.1870   21.7237 H   0  0  0  0  0  0  0  0  0  0  0  0
   19.4642   16.8462   23.7761 C   0  0  0  0  0  0  0  0  0  0  0  0
   19.7914   17.0692   24.8001 H   0  0  0  0  0  0  0  0  0  0  0  0
   19.3954   15.7551   23.6773 H   0  0  0  0  0  0  0  0  0  0  0  0
   18.4546   17.2544   23.6424 H   0  0  0  0  0  0  0  0  0  0  0  0
  1  2  1  0  0  0  0
  1  3  1  0  0  0  0
  1  4  1  0  0  0  0
  1  5  1  0  0  0  0
  5  6  1  0  0  0  0
  5  7  1  0  0  0  0
  7  8  1  0  0  0  0
  7  9  1  0  0  0  0
  7 10  1  0  0  0  0
  5 11  1  0  0  0  0
 11 12  1  0  0  0  0
 11 13  1  0  0  0  0
 11 14  1  0  0  0  0
 14 15  1  0  0  0  0
 14 16  1  0  0  0  0
 14 17  1  0  0  0  0
 17 18  1  0  0  0  0
 17 19  1  0  0  0  0
 17 20  1  0  0  0  0
M  END
> <VConfSearch Rank>
666

> <Conf_Id>
50

> <Delta U+W>
0.466

> <U+W>
-35.811

> <U>
22.369

> <W>
-58.180

> <W(PB)>
-60.103

> <W(SA)>
1.923

> <Valence>
2.168

> <Coulomb>
19.636

> <VdW>
0.566

> <VdW6>
-5.263

> <VdW12>
5.829

> <Bond>
0.162

> <Angle>
1.066

> <Pdih>
0.939

> <Idih>
0.000

> <Tether>
0.000

$$$$
VeraChem MOL file


 20 19  0  0  0  0  0  0  0  0999 V2000     
   19.5784   20.6113   21.2215 N   0  3  0  0  0  0  0  0  0  0  0  0
   20.4918   21.0703   21.2759 H   0  0  0  0  0  0  0  0  0  0  0  0
   18.8808   21.2731   21.5711 H   0  0  0  0  0  0  0  0  0  0  0  0
   19.3781   20.4535   20.2302 H   0  0  0  0  0  0  0  0  0  0  0  0
   19.5572   19.3233   21.9995 C   0  0  2  0  0  0  0  0  0  0  0  0
   20.3317   18.6882   21.5583 H   0  0  0  0  0  0  0  0  0  0  0  0
   18.1933   18.6283   21.8306 C   0  0  0  0  0  0  0  0  0  0  0  0
   17.3800   19.2542   22.2184 H   0  0  0  0  0  0  0  0  0  0  0  0
   18.1613   17.6697   22.3598 H   0  0  0  0  0  0  0  0  0  0  0  0
   17.9905   18.4276   20.7715 H   0  0  0  0  0  0  0  0  0  0  0  0
   19.9070   19.5435   23.4919 C   0  0  0  0  0  0  0  0  0  0  0  0
   20.3885   20.5235   23.6074 H   0  0  0  0  0  0  0  0  0  0  0  0
   18.9921   19.5907   24.0974 H   0  0  0  0  0  0  0  0  0  0  0  0
   20.8761   18.4824   24.0724 C   0  0  0  0  0  0  0  0  0  0  0  0
   21.1261   18.7635   25.1051 H   0  0  0  0  0  0  0  0  0  0  0  0
   21.8219   18.5037   23.5130 H   0  0  0  0  0  0  0  0  0  0  0  0
   20.3127   17.0441   24.0716 C   0  0  0  0  0  0  0  0  0  0  0  0
   19.3447   16.9973   24.5872 H   0  0  0  0  0  0  0  0  0  0  0  0
   21.0005   16.3628   24.5891 H   0  0  0  0  0  0  0  0  0  0  0  0
   20.1829   16.6649   23.0504 H   0  0  0  0  0  0  0  0  0  0  0  0
  1  2  1  0  0  0  0
  1  3  1  0  0  0  0
  1  4  1  0  0  0  0
  1  5  1  0  0  0  0
  5  6  1  0  0  0  0
  5  7  1  0  0  0  0
  7  8  1  0  0  0  0
  7  9  1  0  0  0  0
  7 10  1  0  0  0  0
  5 11  1  0  0  0  0
 11 12  1  0  0  0  0
 11 13  1  0  0  0  0
 11 14  1  0  0  0  0
 14 15  1  0  0  0  0
 14 16  1  0  0  0  0
 14 17  1  0  0  0  0
 17 18  1  0  0  0  0
 17 19  1  0  0  0  0
 17 20  1  0  0  0  0
M  END
> <VConfSearch Rank>
667

> <Conf_Id>
3

> <Delta U+W>
3.093

> <U+W>
-33.184

> <U>
25.256

> <W>
-58.439

> <W(PB)>
-60.337

> <W(SA)>
1.898

> <Valence>
4.963

> <Coulomb>
19.511

> <VdW>
0.782

> <VdW6>
-5.429

> <VdW12>
6.211

> <Bond>
0.174

> <Angle>
1.377

> <Pdih>
3.412

> <Idih>
0.000

> <Tether>
0.000

$$$$
VeraChem MOL file


 20 19  0  0  0  0  0  0  0  0999 V2000     
   18.7911   20.9180   22.0569 N   0  3  0  0  0  0  0  0  0  0  0  0
   19.0367   21.3519   21.1630 H   0  0  0  0  0  0  0  0  0  0  0  0
   19.0593   21.5743   22.7953 H   0  0  0  0  0  0  0  0  0  0  0  0
   17.7722   20.8289   22.0816 H   0  0  0  0  0  0  0  0  0  0  0  0
   19.4668   19.5849   22.2263 C   0  0  2  0  0  0  0  0  0  0  0  0
   20.5427   19.7789   22.1828 H   0  0  0  0  0  0  0  0  0  0  0  0
   19.0949   18.6448   21.0653 C   0  0  0  0  0  0  0  0  0  0  0  0
   19.6848   17.7214   21.0968 H   0  0  0  0  0  0  0  0  0  0  0  0
   19.2953   19.1248   20.0996 H   0  0  0  0  0  0  0  0  0  0  0  0
   18.0320   18.3752   21.0973 H   0  0  0  0  0  0  0  0  0  0  0  0
   19.1404   18.9629   23.6050 C   0  0  0  0  0  0  0  0  0  0  0  0
   19.3505   19.7069   24.3847 H   0  0  0  0  0  0  0  0  0  0  0  0
   18.0637   18.7556   23.6645 H   0  0  0  0  0  0  0  0  0  0  0  0
   19.9244   17.6688   23.9422 C   0  0  0  0  0  0  0  0  0  0  0  0
   19.6361   16.8589   23.2587 H   0  0  0  0  0  0  0  0  0  0  0  0
   19.6319   17.3318   24.9466 H   0  0  0  0  0  0  0  0  0  0  0  0
   21.4575   17.8624   23.9058 C   0  0  0  0  0  0  0  0  0  0  0  0
   21.7697   18.6702   24.5804 H   0  0  0  0  0  0  0  0  0  0  0  0
   21.8097   18.1035   22.8949 H   0  0  0  0  0  0  0  0  0  0  0  0
   21.9687   16.9444   24.2236 H   0  0  0  0  0  0  0  0  0  0  0  0
  1  2  1  0  0  0  0
  1  3  1  0  0  0  0
  1  4  1  0  0  0  0
  1  5  1  0  0  0  0
  5  6  1  0  0  0  0
  5  7  1  0  0  0  0
  7  8  1  0  0  0  0
  7  9  1  0  0  0  0
  7 10  1  0  0  0  0
  5 11  1  0  0  0  0
 11 12  1  0  0  0  0
 11 13  1  0  0  0  0
 11 14  1  0  0  0  0
 14 15  1  0  0  0  0
 14 16  1  0  0  0  0
 14 17  1  0  0  0  0
 17 18  1  0  0  0  0
 17 19  1  0  0  0  0
 17 20  1  0  0  0  0
M  END
> <VConfSearch Rank>
668

> <Conf_Id>
64

> <Delta U+W>
0.544

> <U+W>
-35.732

> <U>
22.800

> <W>
-58.532

> <W(PB)>
-60.437

> <W(SA)>
1.905

> <Valence>
2.662

> <Coulomb>
19.485

> <VdW>
0.653

> <VdW6>
-5.460

> <VdW12>
6.113

> <Bond>
0.174

> <Angle>
1.378

> <Pdih>
1.109

> <Idih>
0.000

> <Tether>
0.000

$$$$
VeraChem MOL file


 20 19  0  0  0  0  0  0  0  0999 V2000     
   18.4377   17.7982   23.8770 N   0  3  0  0  0  0  0  0  0  0  0  0
   17.8587   18.5920   23.5944 H   0  0  0  0  0  0  0  0  0  0  0  0
   18.3113   17.6711   24.8847 H   0  0  0  0  0  0  0  0  0  0  0  0
   18.0623   16.9647   23.4166 H   0  0  0  0  0  0  0  0  0  0  0  0
   19.8847   18.0195   23.5275 C   0  0  2  0  0  0  0  0  0  0  0  0
   20.4165   17.1291   23.8772 H   0  0  0  0  0  0  0  0  0  0  0  0
   20.4551   19.2250   24.2924 C   0  0  0  0  0  0  0  0  0  0  0  0
   19.8793   20.1362   24.0928 H   0  0  0  0  0  0  0  0  0  0  0  0
   21.5012   19.4045   24.0152 H   0  0  0  0  0  0  0  0  0  0  0  0
   20.4244   19.0418   25.3733 H   0  0  0  0  0  0  0  0  0  0  0  0
   20.1142   18.1107   21.9978 C   0  0  0  0  0  0  0  0  0  0  0  0
   21.1922   18.0955   21.7898 H   0  0  0  0  0  0  0  0  0  0  0  0
   19.7219   17.1873   21.5518 H   0  0  0  0  0  0  0  0  0  0  0  0
   19.4553   19.3185   21.2751 C   0  0  0  0  0  0  0  0  0  0  0  0
   18.5263   19.6170   21.7784 H   0  0  0  0  0  0  0  0  0  0  0  0
   19.1591   18.9983   20.2663 H   0  0  0  0  0  0  0  0  0  0  0  0
   20.3955   20.5377   21.1260 C   0  0  0  0  0  0  0  0  0  0  0  0
   20.7013   20.9453   22.0957 H   0  0  0  0  0  0  0  0  0  0  0  0
   19.8946   21.3424   20.5726 H   0  0  0  0  0  0  0  0  0  0  0  0
   21.3032   20.2683   20.5705 H   0  0  0  0  0  0  0  0  0  0  0  0
  1  2  1  0  0  0  0
  1  3  1  0  0  0  0
  1  4  1  0  0  0  0
  1  5  1  0  0  0  0
  5  6  1  0  0  0  0
  5  7  1  0  0  0  0
  7  8  1  0  0  0  0
  7  9  1  0  0  0  0
  7 10  1  0  0  0  0
  5 11  1  0  0  0  0
 11 12  1  0  0  0  0
 11 13  1  0  0  0  0
 11 14  1  0  0  0  0
 14 15  1  0  0  0  0
 14 16  1  0  0  0  0
 14 17  1  0  0  0  0
 17 18  1  0  0  0  0
 17 19  1  0  0  0  0
 17 20  1  0  0  0  0
M  END
> <VConfSearch Rank>
669

> <Conf_Id>
35

> <Delta U+W>
3.004

> <U+W>
-33.272

> <U>
25.367

> <W>
-58.639

> <W(PB)>
-60.512

> <W(SA)>
1.873

> <Valence>
4.943

> <Coulomb>
19.661

> <VdW>
0.764

> <VdW6>
-5.871

> <VdW12>
6.636

> <Bond>
0.230

> <Angle>
1.857

> <Pdih>
2.855

> <Idih>
0.000

> <Tether>
0.000

$$$$
VeraChem MOL file


 20 19  0  0  0  0  0  0  0  0999 V2000     
   19.5295   20.1545   24.0008 N   0  3  0  0  0  0  0  0  0  0  0  0
   19.4431   21.1689   24.1072 H   0  0  0  0  0  0  0  0  0  0  0  0
   19.7215   19.7663   24.9282 H   0  0  0  0  0  0  0  0  0  0  0  0
   18.6209   19.7958   23.7011 H   0  0  0  0  0  0  0  0  0  0  0  0
   20.6090   19.7925   23.0179 C   0  0  2  0  0  0  0  0  0  0  0  0
   21.5335   20.1966   23.4420 H   0  0  0  0  0  0  0  0  0  0  0  0
   20.3873   20.4835   21.6607 C   0  0  0  0  0  0  0  0  0  0  0  0
   19.4277   20.1984   21.2132 H   0  0  0  0  0  0  0  0  0  0  0  0
   21.1868   20.2226   20.9564 H   0  0  0  0  0  0  0  0  0  0  0  0
   20.3913   21.5738   21.7794 H   0  0  0  0  0  0  0  0  0  0  0  0
   20.8125   18.2623   22.8758 C   0  0  0  0  0  0  0  0  0  0  0  0
   21.7913   18.0995   22.4057 H   0  0  0  0  0  0  0  0  0  0  0  0
   20.8939   17.8200   23.8772 H   0  0  0  0  0  0  0  0  0  0  0  0
   19.7539   17.4756   22.0527 C   0  0  0  0  0  0  0  0  0  0  0  0
   20.0691   16.4236   22.0124 H   0  0  0  0  0  0  0  0  0  0  0  0
   19.7483   17.8213   21.0101 H   0  0  0  0  0  0  0  0  0  0  0  0
   18.3197   17.5302   22.6262 C   0  0  0  0  0  0  0  0  0  0  0  0
   18.3072   17.2717   23.6931 H   0  0  0  0  0  0  0  0  0  0  0  0
   17.6739   16.8131   22.1029 H   0  0  0  0  0  0  0  0  0  0  0  0
   17.8703   18.5213   22.4960 H   0  0  0  0  0  0  0  0  0  0  0  0
  1  2  1  0  0  0  0
  1  3  1  0  0  0  0
  1  4  1  0  0  0  0
  1  5  1  0  0  0  0
  5  6  1  0  0  0  0
  5  7  1  0  0  0  0
  7  8  1  0  0  0  0
  7  9  1  0  0  0  0
  7 10  1  0  0  0  0
  5 11  1  0  0  0  0
 11 12  1  0  0  0  0
 11 13  1  0  0  0  0
 11 14  1  0  0  0  0
 14 15  1  0  0  0  0
 14 16  1  0  0  0  0
 14 17  1  0  0  0  0
 17 18  1  0  0  0  0
 17 19  1  0  0  0  0
 17 20  1  0  0  0  0
M  END
> <VConfSearch Rank>
670

> <Conf_Id>
55

> <Delta U+W>
2.767

> <U+W>
-33.509

> <U>
24.552

> <W>
-58.061

> <W(PB)>
-59.930

> <W(SA)>
1.869

> <Valence>
3.726

> <Coulomb>
20.219

> <VdW>
0.606

> <VdW6>
-6.395

> <VdW12>
7.001

> <Bond>
0.241

> <Angle>
2.098

> <Pdih>
1.387

> <Idih>
0.000

> <Tether>
0.000

$$$$
VeraChem MOL file


 20 19  0  0  0  0  0  0  0  0999 V2000     
   18.2634   19.6554   21.6228 N   0  3  0  0  0  0  0  0  0  0  0  0
   18.2569   18.9144   20.9175 H   0  0  0  0  0  0  0  0  0  0  0  0
   17.8531   20.4890   21.1933 H   0  0  0  0  0  0  0  0  0  0  0  0
   17.6391   19.3653   22.3796 H   0  0  0  0  0  0  0  0  0  0  0  0
   19.6555   19.9242   22.1274 C   0  0  2  0  0  0  0  0  0  0  0  0
   19.5715   20.7199   22.8742 H   0  0  0  0  0  0  0  0  0  0  0  0
   20.5555   20.4278   20.9870 C   0  0  0  0  0  0  0  0  0  0  0  0
   20.1303   21.3272   20.5249 H   0  0  0  0  0  0  0  0  0  0  0  0
   20.6725   19.6654   20.2068 H   0  0  0  0  0  0  0  0  0  0  0  0
   21.5529   20.6876   21.3629 H   0  0  0  0  0  0  0  0  0  0  0  0
   20.2894   18.6900   22.8064 C   0  0  0  0  0  0  0  0  0  0  0  0
   20.3634   17.8672   22.0829 H   0  0  0  0  0  0  0  0  0  0  0  0
   21.3169   18.9382   23.1040 H   0  0  0  0  0  0  0  0  0  0  0  0
   19.5082   18.2186   24.0566 C   0  0  0  0  0  0  0  0  0  0  0  0
   18.4921   17.9104   23.7758 H   0  0  0  0  0  0  0  0  0  0  0  0
   19.4036   19.0531   24.7644 H   0  0  0  0  0  0  0  0  0  0  0  0
   20.2144   17.0388   24.7585 C   0  0  0  0  0  0  0  0  0  0  0  0
   20.3070   16.1767   24.0851 H   0  0  0  0  0  0  0  0  0  0  0  0
   19.6467   16.7167   25.6412 H   0  0  0  0  0  0  0  0  0  0  0  0
   21.2215   17.3219   25.0916 H   0  0  0  0  0  0  0  0  0  0  0  0
  1  2  1  0  0  0  0
  1  3  1  0  0  0  0
  1  4  1  0  0  0  0
  1  5  1  0  0  0  0
  5  6  1  0  0  0  0
  5  7  1  0  0  0  0
  7  8  1  0  0  0  0
  7  9  1  0  0  0  0
  7 10  1  0  0  0  0
  5 11  1  0  0  0  0
 11 12  1  0  0  0  0
 11 13  1  0  0  0  0
 11 14  1  0  0  0  0
 14 15  1  0  0  0  0
 14 16  1  0  0  0  0
 14 17  1  0  0  0  0
 17 18  1  0  0  0  0
 17 19  1  0  0  0  0
 17 20  1  0  0  0  0
M  END
> <VConfSearch Rank>
671

> <Conf_Id>
74

> <Delta U+W>
0.000

> <U+W>
-36.276

> <U>
22.080

> <W>
-58.356

> <W(PB)>
-60.289

> <W(SA)>
1.932

> <Valence>
1.885

> <Coulomb>
19.559

> <VdW>
0.637

> <VdW6>
-4.482

> <VdW12>
5.119

> <Bond>
0.136

> <Angle>
0.867

> <Pdih>
0.882

> <Idih>
0.000

> <Tether>
0.000

$$$$
VeraChem MOL file


 20 19  0  0  0  0  0  0  0  0999 V2000     
   21.9675   18.3335   22.0912 N   0  3  0  0  0  0  0  0  0  0  0  0
   22.1017   18.8899   21.2425 H   0  0  0  0  0  0  0  0  0  0  0  0
   21.7801   17.3708   21.7999 H   0  0  0  0  0  0  0  0  0  0  0  0
   22.8586   18.3309   22.5947 H   0  0  0  0  0  0  0  0  0  0  0  0
   20.8549   18.8795   22.9434 C   0  0  2  0  0  0  0  0  0  0  0  0
   21.1421   19.9023   23.2068 H   0  0  0  0  0  0  0  0  0  0  0  0
   20.7258   18.0614   24.2414 C   0  0  0  0  0  0  0  0  0  0  0  0
   21.6939   17.9927   24.7527 H   0  0  0  0  0  0  0  0  0  0  0  0
   20.3774   17.0417   24.0353 H   0  0  0  0  0  0  0  0  0  0  0  0
   20.0239   18.5299   24.9407 H   0  0  0  0  0  0  0  0  0  0  0  0
   19.5248   18.9383   22.1566 C   0  0  0  0  0  0  0  0  0  0  0  0
   19.7107   19.4387   21.1971 H   0  0  0  0  0  0  0  0  0  0  0  0
   19.1921   17.9198   21.9163 H   0  0  0  0  0  0  0  0  0  0  0  0
   18.3943   19.6959   22.8949 C   0  0  0  0  0  0  0  0  0  0  0  0
   18.7486   20.6933   23.1914 H   0  0  0  0  0  0  0  0  0  0  0  0
   18.1209   19.1675   23.8179 H   0  0  0  0  0  0  0  0  0  0  0  0
   17.1357   19.8416   22.0128 C   0  0  0  0  0  0  0  0  0  0  0  0
   17.3573   20.4042   21.0965 H   0  0  0  0  0  0  0  0  0  0  0  0
   16.3438   20.3772   22.5525 H   0  0  0  0  0  0  0  0  0  0  0  0
   16.7404   18.8591   21.7235 H   0  0  0  0  0  0  0  0  0  0  0  0
  1  2  1  0  0  0  0
  1  3  1  0  0  0  0
  1  4  1  0  0  0  0
  1  5  1  0  0  0  0
  5  6  1  0  0  0  0
  5  7  1  0  0  0  0
  7  8  1  0  0  0  0
  7  9  1  0  0  0  0
  7 10  1  0  0  0  0
  5 11  1  0  0  0  0
 11 12  1  0  0  0  0
 11 13  1  0  0  0  0
 11 14  1  0  0  0  0
 14 15  1  0  0  0  0
 14 16  1  0  0  0  0
 14 17  1  0  0  0  0
 17 18  1  0  0  0  0
 17 19  1  0  0  0  0
 17 20  1  0  0  0  0
M  END
> <VConfSearch Rank>
672

> <Conf_Id>
80

> <Delta U+W>
0.460

> <U+W>
-35.817

> <U>
22.495

> <W>
-58.311

> <W(PB)>
-60.259

> <W(SA)>
1.948

> <Valence>
2.419

> <Coulomb>
19.304

> <VdW>
0.772

> <VdW6>
-4.635

> <VdW12>
5.407

> <Bond>
0.149

> <Angle>
1.142

> <Pdih>
1.129

> <Idih>
0.000

> <Tether>
0.000

$$$$
VeraChem MOL file


 20 19  0  0  0  0  0  0  0  0999 V2000     
   20.2145   20.5914   24.3540 N   0  3  0  0  0  0  0  0  0  0  0  0
   20.7787   21.3443   23.9508 H   0  0  0  0  0  0  0  0  0  0  0  0
   20.8385   20.0092   24.9182 H   0  0  0  0  0  0  0  0  0  0  0  0
   19.5434   21.0258   24.9932 H   0  0  0  0  0  0  0  0  0  0  0  0
   19.5199   19.7862   23.2901 C   0  0  2  0  0  0  0  0  0  0  0  0
   18.8764   20.4859   22.7478 H   0  0  0  0  0  0  0  0  0  0  0  0
   18.6245   18.7138   23.9336 C   0  0  0  0  0  0  0  0  0  0  0  0
   17.9780   19.1579   24.7005 H   0  0  0  0  0  0  0  0  0  0  0  0
   19.2237   17.9263   24.4072 H   0  0  0  0  0  0  0  0  0  0  0  0
   17.9673   18.2519   23.1880 H   0  0  0  0  0  0  0  0  0  0  0  0
   20.5397   19.1951   22.2861 C   0  0  0  0  0  0  0  0  0  0  0  0
   21.1521   20.0259   21.9112 H   0  0  0  0  0  0  0  0  0  0  0  0
   21.2355   18.5218   22.8040 H   0  0  0  0  0  0  0  0  0  0  0  0
   19.9132   18.4799   21.0599 C   0  0  0  0  0  0  0  0  0  0  0  0
   20.5347   18.6882   20.1776 H   0  0  0  0  0  0  0  0  0  0  0  0
   18.9230   18.9011   20.8364 H   0  0  0  0  0  0  0  0  0  0  0  0
   19.8210   16.9445   21.2245 C   0  0  0  0  0  0  0  0  0  0  0  0
   20.8163   16.5058   21.3729 H   0  0  0  0  0  0  0  0  0  0  0  0
   19.3875   16.4873   20.3256 H   0  0  0  0  0  0  0  0  0  0  0  0
   19.1958   16.6568   22.0770 H   0  0  0  0  0  0  0  0  0  0  0  0
  1  2  1  0  0  0  0
  1  3  1  0  0  0  0
  1  4  1  0  0  0  0
  1  5  1  0  0  0  0
  5  6  1  0  0  0  0
  5  7  1  0  0  0  0
  7  8  1  0  0  0  0
  7  9  1  0  0  0  0
  7 10  1  0  0  0  0
  5 11  1  0  0  0  0
 11 12  1  0  0  0  0
 11 13  1  0  0  0  0
 11 14  1  0  0  0  0
 14 15  1  0  0  0  0
 14 16  1  0  0  0  0
 14 17  1  0  0  0  0
 17 18  1  0  0  0  0
 17 19  1  0  0  0  0
 17 20  1  0  0  0  0
M  END
> <VConfSearch Rank>
673

> <Conf_Id>
52

> <Delta U+W>
2.995

> <U+W>
-33.282

> <U>
25.224

> <W>
-58.506

> <W(PB)>
-60.411

> <W(SA)>
1.905

> <Valence>
4.945

> <Coulomb>
19.467

> <VdW>
0.813

> <VdW6>
-5.458

> <VdW12>
6.270

> <Bond>
0.200

> <Angle>
1.675

> <Pdih>
3.070

> <Idih>
0.000

> <Tether>
0.000

$$$$
VeraChem MOL file


 20 19  0  0  0  0  0  0  0  0999 V2000     
   19.8011   20.6231   22.5361 N   0  3  0  0  0  0  0  0  0  0  0  0
   19.0724   20.8190   21.8455 H   0  0  0  0  0  0  0  0  0  0  0  0
   20.4522   21.4128   22.5264 H   0  0  0  0  0  0  0  0  0  0  0  0
   19.3540   20.6026   23.4552 H   0  0  0  0  0  0  0  0  0  0  0  0
   20.5021   19.3252   22.2407 C   0  0  2  0  0  0  0  0  0  0  0  0
   21.2937   19.2093   22.9875 H   0  0  0  0  0  0  0  0  0  0  0  0
   21.1581   19.3913   20.8511 C   0  0  0  0  0  0  0  0  0  0  0  0
   20.4040   19.4921   20.0604 H   0  0  0  0  0  0  0  0  0  0  0  0
   21.7438   18.4854   20.6514 H   0  0  0  0  0  0  0  0  0  0  0  0
   21.8407   20.2474   20.7837 H   0  0  0  0  0  0  0  0  0  0  0  0
   19.5614   18.1003   22.3355 C   0  0  0  0  0  0  0  0  0  0  0  0
   18.6296   18.3008   21.7903 H   0  0  0  0  0  0  0  0  0  0  0  0
   20.0348   17.2547   21.8188 H   0  0  0  0  0  0  0  0  0  0  0  0
   19.2451   17.6336   23.7807 C   0  0  0  0  0  0  0  0  0  0  0  0
   20.1804   17.3899   24.3041 H   0  0  0  0  0  0  0  0  0  0  0  0
   18.6788   16.6935   23.7204 H   0  0  0  0  0  0  0  0  0  0  0  0
   18.4291   18.6396   24.6241 C   0  0  0  0  0  0  0  0  0  0  0  0
   18.0766   18.1615   25.5474 H   0  0  0  0  0  0  0  0  0  0  0  0
   17.5465   18.9963   24.0772 H   0  0  0  0  0  0  0  0  0  0  0  0
   19.0358   19.5020   24.9233 H   0  0  0  0  0  0  0  0  0  0  0  0
  1  2  1  0  0  0  0
  1  3  1  0  0  0  0
  1  4  1  0  0  0  0
  1  5  1  0  0  0  0
  5  6  1  0  0  0  0
  5  7  1  0  0  0  0
  7  8  1  0  0  0  0
  7  9  1  0  0  0  0
  7 10  1  0  0  0  0
  5 11  1  0  0  0  0
 11 12  1  0  0  0  0
 11 13  1  0  0  0  0
 11 14  1  0  0  0  0
 14 15  1  0  0  0  0
 14 16  1  0  0  0  0
 14 17  1  0  0  0  0
 17 18  1  0  0  0  0
 17 19  1  0  0  0  0
 17 20  1  0  0  0  0
M  END
> <VConfSearch Rank>
674

> <Conf_Id>
54

> <Delta U+W>
2.752

> <U+W>
-33.525

> <U>
24.337

> <W>
-57.862

> <W(PB)>
-59.764

> <W(SA)>
1.901

> <Valence>
3.593

> <Coulomb>
20.067

> <VdW>
0.677

> <VdW6>
-5.466

> <VdW12>
6.144

> <Bond>
0.191

> <Angle>
1.557

> <Pdih>
1.845

> <Idih>
0.000

> <Tether>
0.000

$$$$
VeraChem MOL file


 20 19  0  0  0  0  0  0  0  0999 V2000     
   19.3210   20.7522   21.7759 N   0  3  0  0  0  0  0  0  0  0  0  0
   19.6227   21.4084   21.0506 H   0  0  0  0  0  0  0  0  0  0  0  0
   18.8560   21.2990   22.5057 H   0  0  0  0  0  0  0  0  0  0  0  0
   18.6189   20.1372   21.3584 H   0  0  0  0  0  0  0  0  0  0  0  0
   20.4812   19.9684   22.3266 C   0  0  2  0  0  0  0  0  0  0  0  0
   21.1801   20.7068   22.7321 H   0  0  0  0  0  0  0  0  0  0  0  0
   21.2121   19.2035   21.2087 C   0  0  0  0  0  0  0  0  0  0  0  0
   22.0561   18.6320   21.6144 H   0  0  0  0  0  0  0  0  0  0  0  0
   21.6121   19.9025   20.4640 H   0  0  0  0  0  0  0  0  0  0  0  0
   20.5436   18.5073   20.6887 H   0  0  0  0  0  0  0  0  0  0  0  0
   20.0687   19.0394   23.4936 C   0  0  0  0  0  0  0  0  0  0  0  0
   20.9710   18.5685   23.9056 H   0  0  0  0  0  0  0  0  0  0  0  0
   19.6569   19.6588   24.3012 H   0  0  0  0  0  0  0  0  0  0  0  0
   19.0412   17.9390   23.1224 C   0  0  0  0  0  0  0  0  0  0  0  0
   19.4559   17.2764   22.3510 H   0  0  0  0  0  0  0  0  0  0  0  0
   18.1352   18.3932   22.6993 H   0  0  0  0  0  0  0  0  0  0  0  0
   18.6513   17.0904   24.3517 C   0  0  0  0  0  0  0  0  0  0  0  0
   17.9257   16.3151   24.0733 H   0  0  0  0  0  0  0  0  0  0  0  0
   18.1953   17.7124   25.1331 H   0  0  0  0  0  0  0  0  0  0  0  0
   19.5292   16.5908   24.7816 H   0  0  0  0  0  0  0  0  0  0  0  0
  1  2  1  0  0  0  0
  1  3  1  0  0  0  0
  1  4  1  0  0  0  0
  1  5  1  0  0  0  0
  5  6  1  0  0  0  0
  5  7  1  0  0  0  0
  7  8  1  0  0  0  0
  7  9  1  0  0  0  0
  7 10  1  0  0  0  0
  5 11  1  0  0  0  0
 11 12  1  0  0  0  0
 11 13  1  0  0  0  0
 11 14  1  0  0  0  0
 14 15  1  0  0  0  0
 14 16  1  0  0  0  0
 14 17  1  0  0  0  0
 17 18  1  0  0  0  0
 17 19  1  0  0  0  0
 17 20  1  0  0  0  0
M  END
> <VConfSearch Rank>
675

> <Conf_Id>
63

> <Delta U+W>
0.420

> <U+W>
-35.856

> <U>
22.625

> <W>
-58.481

> <W(PB)>
-60.400

> <W(SA)>
1.919

> <Valence>
2.404

> <Coulomb>
19.464

> <VdW>
0.757

> <VdW6>
-5.074

> <VdW12>
5.830

> <Bond>
0.172

> <Angle>
1.207

> <Pdih>
1.025

> <Idih>
0.000

> <Tether>
0.000

$$$$
VeraChem MOL file


 20 19  0  0  0  0  0  0  0  0999 V2000     
   19.3006   17.2736   23.0519 N   0  3  0  0  0  0  0  0  0  0  0  0
   18.6654   17.3762   22.2563 H   0  0  0  0  0  0  0  0  0  0  0  0
   18.7272   17.1759   23.8933 H   0  0  0  0  0  0  0  0  0  0  0  0
   19.8100   16.3949   22.9250 H   0  0  0  0  0  0  0  0  0  0  0  0
   20.2388   18.4453   23.1571 C   0  0  2  0  0  0  0  0  0  0  0  0
   20.8112   18.4748   22.2251 H   0  0  0  0  0  0  0  0  0  0  0  0
   21.2264   18.2476   24.3186 C   0  0  0  0  0  0  0  0  0  0  0  0
   21.7896   17.3144   24.1950 H   0  0  0  0  0  0  0  0  0  0  0  0
   20.7037   18.2061   25.2824 H   0  0  0  0  0  0  0  0  0  0  0  0
   21.9511   19.0703   24.3583 H   0  0  0  0  0  0  0  0  0  0  0  0
   19.4911   19.7894   23.3095 C   0  0  0  0  0  0  0  0  0  0  0  0
   18.9227   19.7856   24.2490 H   0  0  0  0  0  0  0  0  0  0  0  0
   20.2271   20.5993   23.3999 H   0  0  0  0  0  0  0  0  0  0  0  0
   18.5315   20.1187   22.1378 C   0  0  0  0  0  0  0  0  0  0  0  0
   18.0475   21.0846   22.3395 H   0  0  0  0  0  0  0  0  0  0  0  0
   17.7207   19.3791   22.0912 H   0  0  0  0  0  0  0  0  0  0  0  0
   19.2483   20.1938   20.7704 C   0  0  0  0  0  0  0  0  0  0  0  0
   20.0642   20.9280   20.7925 H   0  0  0  0  0  0  0  0  0  0  0  0
   18.5455   20.4985   19.9841 H   0  0  0  0  0  0  0  0  0  0  0  0
   19.6687   19.2229   20.4796 H   0  0  0  0  0  0  0  0  0  0  0  0
  1  2  1  0  0  0  0
  1  3  1  0  0  0  0
  1  4  1  0  0  0  0
  1  5  1  0  0  0  0
  5  6  1  0  0  0  0
  5  7  1  0  0  0  0
  7  8  1  0  0  0  0
  7  9  1  0  0  0  0
  7 10  1  0  0  0  0
  5 11  1  0  0  0  0
 11 12  1  0  0  0  0
 11 13  1  0  0  0  0
 11 14  1  0  0  0  0
 14 15  1  0  0  0  0
 14 16  1  0  0  0  0
 14 17  1  0  0  0  0
 17 18  1  0  0  0  0
 17 19  1  0  0  0  0
 17 20  1  0  0  0  0
M  END
> <VConfSearch Rank>
676

> <Conf_Id>
50

> <Delta U+W>
0.466

> <U+W>
-35.811

> <U>
22.369

> <W>
-58.180

> <W(PB)>
-60.103

> <W(SA)>
1.923

> <Valence>
2.168

> <Coulomb>
19.636

> <VdW>
0.566

> <VdW6>
-5.263

> <VdW12>
5.829

> <Bond>
0.162

> <Angle>
1.066

> <Pdih>
0.939

> <Idih>
0.000

> <Tether>
0.000

$$$$
VeraChem MOL file


 20 19  0  0  0  0  0  0  0  0999 V2000     
   20.7793   16.9926   22.0240 N   0  3  0  0  0  0  0  0  0  0  0  0
   20.8108   17.0909   21.0055 H   0  0  0  0  0  0  0  0  0  0  0  0
   20.1656   16.2023   22.2375 H   0  0  0  0  0  0  0  0  0  0  0  0
   21.7215   16.7381   22.3324 H   0  0  0  0  0  0  0  0  0  0  0  0
   20.3048   18.2565   22.6891 C   0  0  2  0  0  0  0  0  0  0  0  0
   21.0157   19.0374   22.4016 H   0  0  0  0  0  0  0  0  0  0  0  0
   20.3436   18.0927   24.2200 C   0  0  0  0  0  0  0  0  0  0  0  0
   19.6780   17.2846   24.5480 H   0  0  0  0  0  0  0  0  0  0  0  0
   20.0349   19.0108   24.7313 H   0  0  0  0  0  0  0  0  0  0  0  0
   21.3593   17.8525   24.5571 H   0  0  0  0  0  0  0  0  0  0  0  0
   18.8995   18.6781   22.1935 C   0  0  0  0  0  0  0  0  0  0  0  0
   18.6761   18.1517   21.2561 H   0  0  0  0  0  0  0  0  0  0  0  0
   18.1285   18.3540   22.9052 H   0  0  0  0  0  0  0  0  0  0  0  0
   18.7622   20.1962   21.9137 C   0  0  0  0  0  0  0  0  0  0  0  0
   17.7640   20.3868   21.4951 H   0  0  0  0  0  0  0  0  0  0  0  0
   19.4806   20.4930   21.1366 H   0  0  0  0  0  0  0  0  0  0  0  0
   18.9571   21.0888   23.1593 C   0  0  0  0  0  0  0  0  0  0  0  0
   18.2817   20.7893   23.9712 H   0  0  0  0  0  0  0  0  0  0  0  0
   18.7435   22.1378   22.9164 H   0  0  0  0  0  0  0  0  0  0  0  0
   19.9891   21.0419   23.5287 H   0  0  0  0  0  0  0  0  0  0  0  0
  1  2  1  0  0  0  0
  1  3  1  0  0  0  0
  1  4  1  0  0  0  0
  1  5  1  0  0  0  0
  5  6  1  0  0  0  0
  5  7  1  0  0  0  0
  7  8  1  0  0  0  0
  7  9  1  0  0  0  0
  7 10  1  0  0  0  0
  5 11  1  0  0  0  0
 11 12  1  0  0  0  0
 11 13  1  0  0  0  0
 11 14  1  0  0  0  0
 14 15  1  0  0  0  0
 14 16  1  0  0  0  0
 14 17  1  0  0  0  0
 17 18  1  0  0  0  0
 17 19  1  0  0  0  0
 17 20  1  0  0  0  0
M  END
> <VConfSearch Rank>
677

> <Conf_Id>
3

> <Delta U+W>
3.093

> <U+W>
-33.184

> <U>
25.256

> <W>
-58.439

> <W(PB)>
-60.337

> <W(SA)>
1.898

> <Valence>
4.963

> <Coulomb>
19.511

> <VdW>
0.782

> <VdW6>
-5.429

> <VdW12>
6.211

> <Bond>
0.174

> <Angle>
1.377

> <Pdih>
3.412

> <Idih>
0.000

> <Tether>
0.000

$$$$
VeraChem MOL file


 20 19  0  0  0  0  0  0  0  0999 V2000     
   18.0605   17.8818   23.9779 N   0  3  0  0  0  0  0  0  0  0  0  0
   18.2669   17.2978   24.7927 H   0  0  0  0  0  0  0  0  0  0  0  0
   17.5979   17.2845   23.2872 H   0  0  0  0  0  0  0  0  0  0  0  0
   17.3830   18.5887   24.2744 H   0  0  0  0  0  0  0  0  0  0  0  0
   19.3080   18.5113   23.4212 C   0  0  2  0  0  0  0  0  0  0  0  0
   19.9677   17.6857   23.1377 H   0  0  0  0  0  0  0  0  0  0  0  0
   20.0142   19.3483   24.5032 C   0  0  0  0  0  0  0  0  0  0  0  0
   20.9936   19.6993   24.1583 H   0  0  0  0  0  0  0  0  0  0  0  0
   20.1839   18.7492   25.4062 H   0  0  0  0  0  0  0  0  0  0  0  0
   19.4143   20.2231   24.7830 H   0  0  0  0  0  0  0  0  0  0  0  0
   18.9979   19.3428   22.1536 C   0  0  0  0  0  0  0  0  0  0  0  0
   18.4259   18.7182   21.4549 H   0  0  0  0  0  0  0  0  0  0  0  0
   18.3406   20.1809   22.4206 H   0  0  0  0  0  0  0  0  0  0  0  0
   20.2421   19.8924   21.4098 C   0  0  0  0  0  0  0  0  0  0  0  0
   20.7669   20.6271   22.0351 H   0  0  0  0  0  0  0  0  0  0  0  0
   19.9054   20.4422   20.5198 H   0  0  0  0  0  0  0  0  0  0  0  0
   21.2246   18.7828   20.9709 C   0  0  0  0  0  0  0  0  0  0  0  0
   20.7210   18.0339   20.3458 H   0  0  0  0  0  0  0  0  0  0  0  0
   21.6651   18.2693   21.8348 H   0  0  0  0  0  0  0  0  0  0  0  0
   22.0488   19.2090   20.3843 H   0  0  0  0  0  0  0  0  0  0  0  0
  1  2  1  0  0  0  0
  1  3  1  0  0  0  0
  1  4  1  0  0  0  0
  1  5  1  0  0  0  0
  5  6  1  0  0  0  0
  5  7  1  0  0  0  0
  7  8  1  0  0  0  0
  7  9  1  0  0  0  0
  7 10  1  0  0  0  0
  5 11  1  0  0  0  0
 11 12  1  0  0  0  0
 11 13  1  0  0  0  0
 11 14  1  0  0  0  0
 14 15  1  0  0  0  0
 14 16  1  0  0  0  0
 14 17  1  0  0  0  0
 17 18  1  0  0  0  0
 17 19  1  0  0  0  0
 17 20  1  0  0  0  0
M  END
> <VConfSearch Rank>
678

> <Conf_Id>
64

> <Delta U+W>
0.544

> <U+W>
-35.732

> <U>
22.800

> <W>
-58.532

> <W(PB)>
-60.437

> <W(SA)>
1.905

> <Valence>
2.662

> <Coulomb>
19.485

> <VdW>
0.653

> <VdW6>
-5.460

> <VdW12>
6.113

> <Bond>
0.174

> <Angle>
1.378

> <Pdih>
1.109

> <Idih>
0.000

> <Tether>
0.000

$$$$
VeraChem MOL file


 20 19  0  0  0  0  0  0  0  0999 V2000     
   19.4074   19.5928   24.6652 N   0  3  0  0  0  0  0  0  0  0  0  0
   20.4289   19.6132   24.6286 H   0  0  0  0  0  0  0  0  0  0  0  0
   19.1420   19.1263   25.5367 H   0  0  0  0  0  0  0  0  0  0  0  0
   19.0827   20.5614   24.7284 H   0  0  0  0  0  0  0  0  0  0  0  0
   18.8270   18.8914   23.4668 C   0  0  2  0  0  0  0  0  0  0  0  0
   17.7414   18.9124   23.6046 H   0  0  0  0  0  0  0  0  0  0  0  0
   19.2571   17.4157   23.4338 C   0  0  0  0  0  0  0  0  0  0  0  0
   20.3488   17.3156   23.4325 H   0  0  0  0  0  0  0  0  0  0  0  0
   18.8586   16.9121   22.5445 H   0  0  0  0  0  0  0  0  0  0  0  0
   18.8753   16.8860   24.3151 H   0  0  0  0  0  0  0  0  0  0  0  0
   19.1286   19.6385   22.1432 C   0  0  0  0  0  0  0  0  0  0  0  0
   18.5432   19.1896   21.3301 H   0  0  0  0  0  0  0  0  0  0  0  0
   18.7402   20.6601   22.2476 H   0  0  0  0  0  0  0  0  0  0  0  0
   20.6241   19.7263   21.7295 C   0  0  0  0  0  0  0  0  0  0  0  0
   21.2745   19.7505   22.6136 H   0  0  0  0  0  0  0  0  0  0  0  0
   20.7847   20.6836   21.2139 H   0  0  0  0  0  0  0  0  0  0  0  0
   21.0681   18.5950   20.7726 C   0  0  0  0  0  0  0  0  0  0  0  0
   20.9796   17.6050   21.2332 H   0  0  0  0  0  0  0  0  0  0  0  0
   22.1174   18.7304   20.4800 H   0  0  0  0  0  0  0  0  0  0  0  0
   20.4651   18.5968   19.8553 H   0  0  0  0  0  0  0  0  0  0  0  0
  1  2  1  0  0  0  0
  1  3  1  0  0  0  0
  1  4  1  0  0  0  0
  1  5  1  0  0  0  0
  5  6  1  0  0  0  0
  5  7  1  0  0  0  0
  7  8  1  0  0  0  0
  7  9  1  0  0  0  0
  7 10  1  0  0  0  0
  5 11  1  0  0  0  0
 11 12  1  0  0  0  0
 11 13  1  0  0  0  0
 11 14  1  0  0  0  0
 14 15  1  0  0  0  0
 14 16  1  0  0  0  0
 14 17  1  0  0  0  0
 17 18  1  0  0  0  0
 17 19  1  0  0  0  0
 17 20  1  0  0  0  0
M  END
> <VConfSearch Rank>
679

> <Conf_Id>
35

> <Delta U+W>
3.004

> <U+W>
-33.272

> <U>
25.367

> <W>
-58.639

> <W(PB)>
-60.512

> <W(SA)>
1.873

> <Valence>
4.943

> <Coulomb>
19.661

> <VdW>
0.764

> <VdW6>
-5.871

> <VdW12>
6.636

> <Bond>
0.230

> <Angle>
1.857

> <Pdih>
2.855

> <Idih>
0.000

> <Tether>
0.000

$$$$
VeraChem MOL file


 20 19  0  0  0  0  0  0  0  0999 V2000     
   20.3694   18.8444   24.3840 N   0  3  0  0  0  0  0  0  0  0  0  0
   21.2147   19.0456   24.9249 H   0  0  0  0  0  0  0  0  0  0  0  0
   19.7965   18.2047   24.9408 H   0  0  0  0  0  0  0  0  0  0  0  0
   19.8476   19.7176   24.2881 H   0  0  0  0  0  0  0  0  0  0  0  0
   20.7011   18.2579   23.0392 C   0  0  2  0  0  0  0  0  0  0  0  0
   21.2300   17.3240   23.2535 H   0  0  0  0  0  0  0  0  0  0  0  0
   21.6684   19.1626   22.2552 C   0  0  0  0  0  0  0  0  0  0  0  0
   21.2418   20.1578   22.0824 H   0  0  0  0  0  0  0  0  0  0  0  0
   21.9133   18.7191   21.2822 H   0  0  0  0  0  0  0  0  0  0  0  0
   22.6071   19.2913   22.8077 H   0  0  0  0  0  0  0  0  0  0  0  0
   19.4439   17.8817   22.2139 C   0  0  0  0  0  0  0  0  0  0  0  0
   19.7617   17.1942   21.4190 H   0  0  0  0  0  0  0  0  0  0  0  0
   18.7639   17.2982   22.8482 H   0  0  0  0  0  0  0  0  0  0  0  0
   18.6537   19.0435   21.5487 C   0  0  0  0  0  0  0  0  0  0  0  0
   17.8283   18.6049   20.9706 H   0  0  0  0  0  0  0  0  0  0  0  0
   19.2847   19.5617   20.8138 H   0  0  0  0  0  0  0  0  0  0  0  0
   18.0595   20.0702   22.5395 C   0  0  0  0  0  0  0  0  0  0  0  0
   17.4930   19.5723   23.3371 H   0  0  0  0  0  0  0  0  0  0  0  0
   17.3721   20.7482   22.0170 H   0  0  0  0  0  0  0  0  0  0  0  0
   18.8400   20.6916   22.9934 H   0  0  0  0  0  0  0  0  0  0  0  0
  1  2  1  0  0  0  0
  1  3  1  0  0  0  0
  1  4  1  0  0  0  0
  1  5  1  0  0  0  0
  5  6  1  0  0  0  0
  5  7  1  0  0  0  0
  7  8  1  0  0  0  0
  7  9  1  0  0  0  0
  7 10  1  0  0  0  0
  5 11  1  0  0  0  0
 11 12  1  0  0  0  0
 11 13  1  0  0  0  0
 11 14  1  0  0  0  0
 14 15  1  0  0  0  0
 14 16  1  0  0  0  0
 14 17  1  0  0  0  0
 17 18  1  0  0  0  0
 17 19  1  0  0  0  0
 17 20  1  0  0  0  0
M  END
> <VConfSearch Rank>
680

> <Conf_Id>
55

> <Delta U+W>
2.767

> <U+W>
-33.509

> <U>
24.552

> <W>
-58.061

> <W(PB)>
-59.930

> <W(SA)>
1.869

> <Valence>
3.726

> <Coulomb>
20.219

> <VdW>
0.606

> <VdW6>
-6.395

> <VdW12>
7.001

> <Bond>
0.241

> <Angle>
2.098

> <Pdih>
1.387

> <Idih>
0.000

> <Tether>
0.000

$$$$
VeraChem MOL file


 20 19  0  0  0  0  0  0  0  0999 V2000     
   20.7056   17.5133   21.7767 N   0  3  0  0  0  0  0  0  0  0  0  0
   20.5796   16.7851   22.4841 H   0  0  0  0  0  0  0  0  0  0  0  0
   21.5377   17.2697   21.2328 H   0  0  0  0  0  0  0  0  0  0  0  0
   19.9042   17.4680   21.1424 H   0  0  0  0  0  0  0  0  0  0  0  0
   20.8370   18.8749   22.4044 C   0  0  2  0  0  0  0  0  0  0  0  0
   20.9630   19.5887   21.5844 H   0  0  0  0  0  0  0  0  0  0  0  0
   22.0881   18.9403   23.2956 C   0  0  0  0  0  0  0  0  0  0  0  0
   22.9882   18.6900   22.7207 H   0  0  0  0  0  0  0  0  0  0  0  0
   22.0140   18.2396   24.1367 H   0  0  0  0  0  0  0  0  0  0  0  0
   22.2245   19.9497   23.7031 H   0  0  0  0  0  0  0  0  0  0  0  0
   19.5826   19.2809   23.2093 C   0  0  0  0  0  0  0  0  0  0  0  0
   19.4196   18.5652   24.0261 H   0  0  0  0  0  0  0  0  0  0  0  0
   19.7642   20.2564   23.6799 H   0  0  0  0  0  0  0  0  0  0  0  0
   18.3080   19.3778   22.3366 C   0  0  0  0  0  0  0  0  0  0  0  0
   18.0722   18.3985   21.8986 H   0  0  0  0  0  0  0  0  0  0  0  0
   18.4844   20.0671   21.4988 H   0  0  0  0  0  0  0  0  0  0  0  0
   17.0934   19.8674   23.1541 C   0  0  0  0  0  0  0  0  0  0  0  0
   16.8726   19.1817   23.9825 H   0  0  0  0  0  0  0  0  0  0  0  0
   16.1990   19.9288   22.5206 H   0  0  0  0  0  0  0  0  0  0  0  0
   17.2760   20.8646   23.5753 H   0  0  0  0  0  0  0  0  0  0  0  0
  1  2  1  0  0  0  0
  1  3  1  0  0  0  0
  1  4  1  0  0  0  0
  1  5  1  0  0  0  0
  5  6  1  0  0  0  0
  5  7  1  0  0  0  0
  7  8  1  0  0  0  0
  7  9  1  0  0  0  0
  7 10  1  0  0  0  0
  5 11  1  0  0  0  0
 11 12  1  0  0  0  0
 11 13  1  0  0  0  0
 11 14  1  0  0  0  0
 14 15  1  0  0  0  0
 14 16  1  0  0  0  0
 14 17  1  0  0  0  0
 17 18  1  0  0  0  0
 17 19  1  0  0  0  0
 17 20  1  0  0  0  0
M  END
> <VConfSearch Rank>
681

> <Conf_Id>
74

> <Delta U+W>
0.000

> <U+W>
-36.276

> <U>
22.080

> <W>
-58.356

> <W(PB)>
-60.289

> <W(SA)>
1.932

> <Valence>
1.885

> <Coulomb>
19.559

> <VdW>
0.637

> <VdW6>
-4.482

> <VdW12>
5.119

> <Bond>
0.136

> <Angle>
0.867

> <Pdih>
0.882

> <Idih>
0.000

> <Tether>
0.000

$$$$
VeraChem MOL file


 20 19  0  0  0  0  0  0  0  0999 V2000     
   18.2640   17.9782   21.0991 N   0  3  0  0  0  0  0  0  0  0  0  0
   17.9806   18.8030   20.5632 H   0  0  0  0  0  0  0  0  0  0  0  0
   17.4928   17.7419   21.7284 H   0  0  0  0  0  0  0  0  0  0  0  0
   18.3622   17.2056   20.4350 H   0  0  0  0  0  0  0  0  0  0  0  0
   19.5412   18.2193   21.8562 C   0  0  2  0  0  0  0  0  0  0  0  0
   20.3024   18.4600   21.1076 H   0  0  0  0  0  0  0  0  0  0  0  0
   19.9736   16.9394   22.5950 C   0  0  0  0  0  0  0  0  0  0  0  0
   20.0126   16.0887   21.9036 H   0  0  0  0  0  0  0  0  0  0  0  0
   19.2727   16.6901   23.4013 H   0  0  0  0  0  0  0  0  0  0  0  0
   20.9737   17.0480   23.0300 H   0  0  0  0  0  0  0  0  0  0  0  0
   19.4049   19.4268   22.8127 C   0  0  0  0  0  0  0  0  0  0  0  0
   18.9920   20.2728   22.2475 H   0  0  0  0  0  0  0  0  0  0  0  0
   18.6760   19.1942   23.6004 H   0  0  0  0  0  0  0  0  0  0  0  0
   20.7423   19.8706   23.4542 C   0  0  0  0  0  0  0  0  0  0  0  0
   21.4913   20.0427   22.6684 H   0  0  0  0  0  0  0  0  0  0  0  0
   21.1367   19.0762   24.1018 H   0  0  0  0  0  0  0  0  0  0  0  0
   20.5737   21.1573   24.2907 C   0  0  0  0  0  0  0  0  0  0  0  0
   20.2210   21.9904   23.6688 H   0  0  0  0  0  0  0  0  0  0  0  0
   21.5296   21.4552   24.7407 H   0  0  0  0  0  0  0  0  0  0  0  0
   19.8511   21.0079   25.1036 H   0  0  0  0  0  0  0  0  0  0  0  0
  1  2  1  0  0  0  0
  1  3  1  0  0  0  0
  1  4  1  0  0  0  0
  1  5  1  0  0  0  0
  5  6  1  0  0  0  0
  5  7  1  0  0  0  0
  7  8  1  0  0  0  0
  7  9  1  0  0  0  0
  7 10  1  0  0  0  0
  5 11  1  0  0  0  0
 11 12  1  0  0  0  0
 11 13  1  0  0  0  0
 11 14  1  0  0  0  0
 14 15  1  0  0  0  0
 14 16  1  0  0  0  0
 14 17  1  0  0  0  0
 17 18  1  0  0  0  0
 17 19  1  0  0  0  0
 17 20  1  0  0  0  0
M  END
> <VConfSearch Rank>
682

> <Conf_Id>
80

> <Delta U+W>
0.460

> <U+W>
-35.817

> <U>
22.495

> <W>
-58.311

> <W(PB)>
-60.259

> <W(SA)>
1.948

> <Valence>
2.419

> <Coulomb>
19.304

> <VdW>
0.772

> <VdW6>
-4.635

> <VdW12>
5.407

> <Bond>
0.149

> <Angle>
1.142

> <Pdih>
1.129

> <Idih>
0.000

> <Tether>
0.000

$$$$
VeraChem MOL file


 20 19  0  0  0  0  0  0  0  0999 V2000     
   20.6682   21.1046   22.8033 N   0  3  0  0  0  0  0  0  0  0  0  0
   20.3051   21.6805   22.0389 H   0  0  0  0  0  0  0  0  0  0  0  0
   21.6164   20.8180   22.5473 H   0  0  0  0  0  0  0  0  0  0  0  0
   20.7448   21.7082   23.6263 H   0  0  0  0  0  0  0  0  0  0  0  0
   19.7857   19.9164   23.0718 C   0  0  2  0  0  0  0  0  0  0  0  0
   18.8041   20.3187   23.3410 H   0  0  0  0  0  0  0  0  0  0  0  0
   20.3202   19.1169   24.2723 C   0  0  0  0  0  0  0  0  0  0  0  0
   20.5091   19.7793   25.1259 H   0  0  0  0  0  0  0  0  0  0  0  0
   21.2582   18.6049   24.0241 H   0  0  0  0  0  0  0  0  0  0  0  0
   19.5905   18.3687   24.6019 H   0  0  0  0  0  0  0  0  0  0  0  0
   19.6172   19.0505   21.7993 C   0  0  0  0  0  0  0  0  0  0  0  0
   19.2697   19.7120   20.9947 H   0  0  0  0  0  0  0  0  0  0  0  0
   20.5917   18.6665   21.4699 H   0  0  0  0  0  0  0  0  0  0  0  0
   18.5977   17.8879   21.9279 C   0  0  0  0  0  0  0  0  0  0  0  0
   18.0641   17.7827   20.9727 H   0  0  0  0  0  0  0  0  0  0  0  0
   17.8303   18.1333   22.6754 H   0  0  0  0  0  0  0  0  0  0  0  0
   19.2553   16.5270   22.2573 C   0  0  0  0  0  0  0  0  0  0  0  0
   19.9694   16.2373   21.4755 H   0  0  0  0  0  0  0  0  0  0  0  0
   18.4944   15.7382   22.3206 H   0  0  0  0  0  0  0  0  0  0  0  0
   19.7917   16.5475   23.2125 H   0  0  0  0  0  0  0  0  0  0  0  0
  1  2  1  0  0  0  0
  1  3  1  0  0  0  0
  1  4  1  0  0  0  0
  1  5  1  0  0  0  0
  5  6  1  0  0  0  0
  5  7  1  0  0  0  0
  7  8  1  0  0  0  0
  7  9  1  0  0  0  0
  7 10  1  0  0  0  0
  5 11  1  0  0  0  0
 11 12  1  0  0  0  0
 11 13  1  0  0  0  0
 11 14  1  0  0  0  0
 14 15  1  0  0  0  0
 14 16  1  0  0  0  0
 14 17  1  0  0  0  0
 17 18  1  0  0  0  0
 17 19  1  0  0  0  0
 17 20  1  0  0  0  0
M  END
> <VConfSearch Rank>
683

> <Conf_Id>
52

> <Delta U+W>
2.995

> <U+W>
-33.282

> <U>
25.224

> <W>
-58.506

> <W(PB)>
-60.411

> <W(SA)>
1.905

> <Valence>
4.945

> <Coulomb>
19.467

> <VdW>
0.813

> <VdW6>
-5.458

> <VdW12>
6.270

> <Bond>
0.200

> <Angle>
1.675

> <Pdih>
3.070

> <Idih>
0.000

> <Tether>
0.000

$$$$
VeraChem MOL file


 20 19  0  0  0  0  0  0  0  0999 V2000     
   20.9848   18.7144   23.7553 N   0  3  0  0  0  0  0  0  0  0  0  0
   21.0283   19.5363   24.3627 H   0  0  0  0  0  0  0  0  0  0  0  0
   21.8990   18.2558   23.7951 H   0  0  0  0  0  0  0  0  0  0  0  0
   20.2991   18.0722   24.1582 H   0  0  0  0  0  0  0  0  0  0  0  0
   20.6171   19.0925   22.3464 C   0  0  2  0  0  0  0  0  0  0  0  0
   20.6383   18.1747   21.7505 H   0  0  0  0  0  0  0  0  0  0  0  0
   21.6669   20.0608   21.7754 C   0  0  0  0  0  0  0  0  0  0  0  0
   21.6764   21.0079   22.3293 H   0  0  0  0  0  0  0  0  0  0  0  0
   21.4612   20.2834   20.7210 H   0  0  0  0  0  0  0  0  0  0  0  0
   22.6709   19.6224   21.8306 H   0  0  0  0  0  0  0  0  0  0  0  0
   19.2014   19.7081   22.2406 C   0  0  0  0  0  0  0  0  0  0  0  0
   19.0676   20.4747   23.0152 H   0  0  0  0  0  0  0  0  0  0  0  0
   19.1197   20.2348   21.2805 H   0  0  0  0  0  0  0  0  0  0  0  0
   18.0399   18.6814   22.2987 C   0  0  0  0  0  0  0  0  0  0  0  0
   18.1557   17.9452   21.4909 H   0  0  0  0  0  0  0  0  0  0  0  0
   17.1016   19.2142   22.0897 H   0  0  0  0  0  0  0  0  0  0  0  0
   17.8907   17.9454   23.6497 C   0  0  0  0  0  0  0  0  0  0  0  0
   16.9402   17.3967   23.6792 H   0  0  0  0  0  0  0  0  0  0  0  0
   17.8931   18.6504   24.4913 H   0  0  0  0  0  0  0  0  0  0  0  0
   18.6886   17.2089   23.7993 H   0  0  0  0  0  0  0  0  0  0  0  0
  1  2  1  0  0  0  0
  1  3  1  0  0  0  0
  1  4  1  0  0  0  0
  1  5  1  0  0  0  0
  5  6  1  0  0  0  0
  5  7  1  0  0  0  0
  7  8  1  0  0  0  0
  7  9  1  0  0  0  0
  7 10  1  0  0  0  0
  5 11  1  0  0  0  0
 11 12  1  0  0  0  0
 11 13  1  0  0  0  0
 11 14  1  0  0  0  0
 14 15  1  0  0  0  0
 14 16  1  0  0  0  0
 14 17  1  0  0  0  0
 17 18  1  0  0  0  0
 17 19  1  0  0  0  0
 17 20  1  0  0  0  0
M  END
> <VConfSearch Rank>
684

> <Conf_Id>
54

> <Delta U+W>
2.752

> <U+W>
-33.525

> <U>
24.337

> <W>
-57.862

> <W(PB)>
-59.764

> <W(SA)>
1.901

> <Valence>
3.593

> <Coulomb>
20.067

> <VdW>
0.677

> <VdW6>
-5.466

> <VdW12>
6.144

> <Bond>
0.191

> <Angle>
1.557

> <Pdih>
1.845

> <Idih>
0.000

> <Tether>
0.000

$$$$
VeraChem MOL file


 20 19  0  0  0  0  0  0  0  0999 V2000     
   19.9635   19.6957   24.6143 N   0  3  0  0  0  0  0  0  0  0  0  0
   20.6104   19.7940   25.4014 H   0  0  0  0  0  0  0  0  0  0  0  0
   19.0178   19.6466   25.0029 H   0  0  0  0  0  0  0  0  0  0  0  0
   20.0241   20.5529   24.0604 H   0  0  0  0  0  0  0  0  0  0  0  0
   20.2848   18.4815   23.7858 C   0  0  2  0  0  0  0  0  0  0  0  0
   20.2111   17.6248   24.4631 H   0  0  0  0  0  0  0  0  0  0  0  0
   21.7312   18.5359   23.2628 C   0  0  0  0  0  0  0  0  0  0  0  0
   21.9609   17.6500   22.6579 H   0  0  0  0  0  0  0  0  0  0  0  0
   22.4407   18.5598   24.0989 H   0  0  0  0  0  0  0  0  0  0  0  0
   21.9079   19.4268   22.6488 H   0  0  0  0  0  0  0  0  0  0  0  0
   19.2623   18.2535   22.6467 C   0  0  0  0  0  0  0  0  0  0  0  0
   19.5016   17.3084   22.1416 H   0  0  0  0  0  0  0  0  0  0  0  0
   18.2698   18.1125   23.0944 H   0  0  0  0  0  0  0  0  0  0  0  0
   19.1890   19.3912   21.5956 C   0  0  0  0  0  0  0  0  0  0  0  0
   20.1608   19.5130   21.0989 H   0  0  0  0  0  0  0  0  0  0  0  0
   18.9594   20.3466   22.0861 H   0  0  0  0  0  0  0  0  0  0  0  0
   18.1142   19.1046   20.5250 C   0  0  0  0  0  0  0  0  0  0  0  0
   18.0755   19.9167   19.7874 H   0  0  0  0  0  0  0  0  0  0  0  0
   17.1185   19.0146   20.9784 H   0  0  0  0  0  0  0  0  0  0  0  0
   18.3306   18.1721   19.9875 H   0  0  0  0  0  0  0  0  0  0  0  0
  1  2  1  0  0  0  0
  1  3  1  0  0  0  0
  1  4  1  0  0  0  0
  1  5  1  0  0  0  0
  5  6  1  0  0  0  0
  5  7  1  0  0  0  0
  7  8  1  0  0  0  0
  7  9  1  0  0  0  0
  7 10  1  0  0  0  0
  5 11  1  0  0  0  0
 11 12  1  0  0  0  0
 11 13  1  0  0  0  0
 11 14  1  0  0  0  0
 14 15  1  0  0  0  0
 14 16  1  0  0  0  0
 14 17  1  0  0  0  0
 17 18  1  0  0  0  0
 17 19  1  0  0  0  0
 17 20  1  0  0  0  0
M  END
> <VConfSearch Rank>
685

> <Conf_Id>
63

> <Delta U+W>
0.420

> <U+W>
-35.856

> <U>
22.625

> <W>
-58.481

> <W(PB)>
-60.400

> <W(SA)>
1.919

> <Valence>
2.404

> <Coulomb>
19.464

> <VdW>
0.757

> <VdW6>
-5.074

> <VdW12>
5.830

> <Bond>
0.172

> <Angle>
1.207

> <Pdih>
1.025

> <Idih>
0.000

> <Tether>
0.000

$$$$
VeraChem MOL file


 20 19  0  0  0  0  0  0  0  0999 V2000     
   21.1564   18.2094   23.3788 N   0  3  0  0  0  0  0  0  0  0  0  0
   21.5891   18.5587   22.5200 H   0  0  0  0  0  0  0  0  0  0  0  0
   21.0878   17.1920   23.2975 H   0  0  0  0  0  0  0  0  0  0  0  0
   21.7990   18.4121   24.1492 H   0  0  0  0  0  0  0  0  0  0  0  0
   19.8075   18.8365   23.6056 C   0  0  2  0  0  0  0  0  0  0  0  0
   19.9711   19.9155   23.6834 H   0  0  0  0  0  0  0  0  0  0  0  0
   19.1976   18.3487   24.9299 C   0  0  0  0  0  0  0  0  0  0  0  0
   19.8685   18.5664   25.7699 H   0  0  0  0  0  0  0  0  0  0  0  0
   19.0156   17.2670   24.9092 H   0  0  0  0  0  0  0  0  0  0  0  0
   18.2430   18.8519   25.1280 H   0  0  0  0  0  0  0  0  0  0  0  0
   18.8311   18.5775   22.4358 C   0  0  0  0  0  0  0  0  0  0  0  0
   18.6410   17.4993   22.3518 H   0  0  0  0  0  0  0  0  0  0  0  0
   17.8636   19.0420   22.6686 H   0  0  0  0  0  0  0  0  0  0  0  0
   19.3230   19.1136   21.0674 C   0  0  0  0  0  0  0  0  0  0  0  0
   18.5675   18.8786   20.3045 H   0  0  0  0  0  0  0  0  0  0  0  0
   20.2365   18.5871   20.7591 H   0  0  0  0  0  0  0  0  0  0  0  0
   19.5752   20.6386   21.0692 C   0  0  0  0  0  0  0  0  0  0  0  0
   18.6746   21.1870   21.3746 H   0  0  0  0  0  0  0  0  0  0  0  0
   19.8522   20.9837   20.0646 H   0  0  0  0  0  0  0  0  0  0  0  0
   20.3910   20.9134   21.7495 H   0  0  0  0  0  0  0  0  0  0  0  0
  1  2  1  0  0  0  0
  1  3  1  0  0  0  0
  1  4  1  0  0  0  0
  1  5  1  0  0  0  0
  5  6  1  0  0  0  0
  5  7  1  0  0  0  0
  7  8  1  0  0  0  0
  7  9  1  0  0  0  0
  7 10  1  0  0  0  0
  5 11  1  0  0  0  0
 11 12  1  0  0  0  0
 11 13  1  0  0  0  0
 11 14  1  0  0  0  0
 14 15  1  0  0  0  0
 14 16  1  0  0  0  0
 14 17  1  0  0  0  0
 17 18  1  0  0  0  0
 17 19  1  0  0  0  0
 17 20  1  0  0  0  0
M  END
> <VConfSearch Rank>
686

> <Conf_Id>
50

> <Delta U+W>
0.466

> <U+W>
-35.811

> <U>
22.369

> <W>
-58.180

> <W(PB)>
-60.103

> <W(SA)>
1.923

> <Valence>
2.168

> <Coulomb>
19.636

> <VdW>
0.566

> <VdW6>
-5.263

> <VdW12>
5.829

> <Bond>
0.162

> <Angle>
1.066

> <Pdih>
0.939

> <Idih>
0.000

> <Tether>
0.000

$$$$
VeraChem MOL file


 20 19  0  0  0  0  0  0  0  0999 V2000     
   19.0046   17.2890   24.2718 N   0  3  0  0  0  0  0  0  0  0  0  0
   19.8721   16.8770   24.6264 H   0  0  0  0  0  0  0  0  0  0  0  0
   18.5194   16.5671   23.7331 H   0  0  0  0  0  0  0  0  0  0  0  0
   18.4201   17.5075   25.0832 H   0  0  0  0  0  0  0  0  0  0  0  0
   19.2717   18.5140   23.4396 C   0  0  2  0  0  0  0  0  0  0  0  0
   19.7910   19.2202   24.0948 H   0  0  0  0  0  0  0  0  0  0  0  0
   17.9410   19.1453   22.9892 C   0  0  0  0  0  0  0  0  0  0  0  0
   17.3646   18.4500   22.3663 H   0  0  0  0  0  0  0  0  0  0  0  0
   18.1049   20.0597   22.4088 H   0  0  0  0  0  0  0  0  0  0  0  0
   17.3262   19.4113   23.8577 H   0  0  0  0  0  0  0  0  0  0  0  0
   20.1955   18.2050   22.2357 C   0  0  0  0  0  0  0  0  0  0  0  0
   20.7024   17.2465   22.4085 H   0  0  0  0  0  0  0  0  0  0  0  0
   19.6018   18.0648   21.3226 H   0  0  0  0  0  0  0  0  0  0  0  0
   21.2946   19.2715   21.9982 C   0  0  0  0  0  0  0  0  0  0  0  0
   21.9438   18.9300   21.1798 H   0  0  0  0  0  0  0  0  0  0  0  0
   21.9366   19.3418   22.8876 H   0  0  0  0  0  0  0  0  0  0  0  0
   20.7496   20.6738   21.6477 C   0  0  0  0  0  0  0  0  0  0  0  0
   20.0692   20.6310   20.7873 H   0  0  0  0  0  0  0  0  0  0  0  0
   21.5735   21.3516   21.3892 H   0  0  0  0  0  0  0  0  0  0  0  0
   20.2132   21.1188   22.4950 H   0  0  0  0  0  0  0  0  0  0  0  0
  1  2  1  0  0  0  0
  1  3  1  0  0  0  0
  1  4  1  0  0  0  0
  1  5  1  0  0  0  0
  5  6  1  0  0  0  0
  5  7  1  0  0  0  0
  7  8  1  0  0  0  0
  7  9  1  0  0  0  0
  7 10  1  0  0  0  0
  5 11  1  0  0  0  0
 11 12  1  0  0  0  0
 11 13  1  0  0  0  0
 11 14  1  0  0  0  0
 14 15  1  0  0  0  0
 14 16  1  0  0  0  0
 14 17  1  0  0  0  0
 17 18  1  0  0  0  0
 17 19  1  0  0  0  0
 17 20  1  0  0  0  0
M  END
> <VConfSearch Rank>
687

> <Conf_Id>
3

> <Delta U+W>
3.093

> <U+W>
-33.184

> <U>
25.256

> <W>
-58.439

> <W(PB)>
-60.337

> <W(SA)>
1.898

> <Valence>
4.963

> <Coulomb>
19.511

> <VdW>
0.782

> <VdW6>
-5.429

> <VdW12>
6.211

> <Bond>
0.174

> <Angle>
1.377

> <Pdih>
3.412

> <Idih>
0.000

> <Tether>
0.000

$$$$
VeraChem MOL file


 20 19  0  0  0  0  0  0  0  0999 V2000     
   18.6098   20.9263   22.4279 N   0  3  0  0  0  0  0  0  0  0  0  0
   18.8816   21.7925   22.9007 H   0  0  0  0  0  0  0  0  0  0  0  0
   17.6432   20.7249   22.6980 H   0  0  0  0  0  0  0  0  0  0  0  0
   18.6139   21.1149   21.4223 H   0  0  0  0  0  0  0  0  0  0  0  0
   19.5330   19.7927   22.7813 C   0  0  2  0  0  0  0  0  0  0  0  0
   19.4651   19.6688   23.8662 H   0  0  0  0  0  0  0  0  0  0  0  0
   20.9861   20.1539   22.4233 C   0  0  0  0  0  0  0  0  0  0  0  0
   21.6875   19.4004   22.7998 H   0  0  0  0  0  0  0  0  0  0  0  0
   21.2682   21.1134   22.8736 H   0  0  0  0  0  0  0  0  0  0  0  0
   21.1190   20.2355   21.3374 H   0  0  0  0  0  0  0  0  0  0  0  0
   19.0807   18.4728   22.1122 C   0  0  0  0  0  0  0  0  0  0  0  0
   18.0183   18.3109   22.3373 H   0  0  0  0  0  0  0  0  0  0  0  0
   19.1482   18.5767   21.0211 H   0  0  0  0  0  0  0  0  0  0  0  0
   19.8694   17.2122   22.5504 C   0  0  0  0  0  0  0  0  0  0  0  0
   20.9146   17.2822   22.2205 H   0  0  0  0  0  0  0  0  0  0  0  0
   19.4499   16.3375   22.0337 H   0  0  0  0  0  0  0  0  0  0  0  0
   19.8180   16.9651   24.0753 C   0  0  0  0  0  0  0  0  0  0  0  0
   18.7813   16.8942   24.4293 H   0  0  0  0  0  0  0  0  0  0  0  0
   20.3166   17.7691   24.6312 H   0  0  0  0  0  0  0  0  0  0  0  0
   20.3238   16.0246   24.3297 H   0  0  0  0  0  0  0  0  0  0  0  0
  1  2  1  0  0  0  0
  1  3  1  0  0  0  0
  1  4  1  0  0  0  0
  1  5  1  0  0  0  0
  5  6  1  0  0  0  0
  5  7  1  0  0  0  0
  7  8  1  0  0  0  0
  7  9  1  0  0  0  0
  7 10  1  0  0  0  0
  5 11  1  0  0  0  0
 11 12  1  0  0  0  0
 11 13  1  0  0  0  0
 11 14  1  0  0  0  0
 14 15  1  0  0  0  0
 14 16  1  0  0  0  0
 14 17  1  0  0  0  0
 17 18  1  0  0  0  0
 17 19  1  0  0  0  0
 17 20  1  0  0  0  0
M  END
> <VConfSearch Rank>
688

> <Conf_Id>
64

> <Delta U+W>
0.544

> <U+W>
-35.732

> <U>
22.800

> <W>
-58.532

> <W(PB)>
-60.437

> <W(SA)>
1.905

> <Valence>
2.662

> <Coulomb>
19.485

> <VdW>
0.653

> <VdW6>
-5.460

> <VdW12>
6.113

> <Bond>
0.174

> <Angle>
1.378

> <Pdih>
1.109

> <Idih>
0.000

> <Tether>
0.000

$$$$
VeraChem MOL file


 20 19  0  0  0  0  0  0  0  0999 V2000     
   18.0329   17.7479   22.5625 N   0  3  0  0  0  0  0  0  0  0  0  0
   18.1866   18.0101   21.5864 H   0  0  0  0  0  0  0  0  0  0  0  0
   17.0459   17.9187   22.7730 H   0  0  0  0  0  0  0  0  0  0  0  0
   18.1891   16.7392   22.6381 H   0  0  0  0  0  0  0  0  0  0  0  0
   18.9345   18.5188   23.4887 C   0  0  2  0  0  0  0  0  0  0  0  0
   18.6874   18.1780   24.4990 H   0  0  0  0  0  0  0  0  0  0  0  0
   18.6285   20.0241   23.4243 C   0  0  0  0  0  0  0  0  0  0  0  0
   18.7248   20.4101   22.4028 H   0  0  0  0  0  0  0  0  0  0  0  0
   19.3055   20.5890   24.0769 H   0  0  0  0  0  0  0  0  0  0  0  0
   17.6028   20.2208   23.7592 H   0  0  0  0  0  0  0  0  0  0  0  0
   20.4322   18.1961   23.2570 C   0  0  0  0  0  0  0  0  0  0  0  0
   21.0298   18.6427   24.0626 H   0  0  0  0  0  0  0  0  0  0  0  0
   20.5558   17.1115   23.3743 H   0  0  0  0  0  0  0  0  0  0  0  0
   21.0178   18.6064   21.8772 C   0  0  0  0  0  0  0  0  0  0  0  0
   20.2485   18.5593   21.0953 H   0  0  0  0  0  0  0  0  0  0  0  0
   21.7800   17.8678   21.5915 H   0  0  0  0  0  0  0  0  0  0  0  0
   21.6892   19.9999   21.8803 C   0  0  0  0  0  0  0  0  0  0  0  0
   20.9792   20.8007   22.1141 H   0  0  0  0  0  0  0  0  0  0  0  0
   22.1216   20.2191   20.8955 H   0  0  0  0  0  0  0  0  0  0  0  0
   22.5024   20.0427   22.6165 H   0  0  0  0  0  0  0  0  0  0  0  0
  1  2  1  0  0  0  0
  1  3  1  0  0  0  0
  1  4  1  0  0  0  0
  1  5  1  0  0  0  0
  5  6  1  0  0  0  0
  5  7  1  0  0  0  0
  7  8  1  0  0  0  0
  7  9  1  0  0  0  0
  7 10  1  0  0  0  0
  5 11  1  0  0  0  0
 11 12  1  0  0  0  0
 11 13  1  0  0  0  0
 11 14  1  0  0  0  0
 14 15  1  0  0  0  0
 14 16  1  0  0  0  0
 14 17  1  0  0  0  0
 17 18  1  0  0  0  0
 17 19  1  0  0  0  0
 17 20  1  0  0  0  0
M  END
> <VConfSearch Rank>
689

> <Conf_Id>
35

> <Delta U+W>
3.004

> <U+W>
-33.272

> <U>
25.367

> <W>
-58.639

> <W(PB)>
-60.512

> <W(SA)>
1.873

> <Valence>
4.943

> <Coulomb>
19.661

> <VdW>
0.764

> <VdW6>
-5.871

> <VdW12>
6.636

> <Bond>
0.230

> <Angle>
1.857

> <Pdih>
2.855

> <Idih>
0.000

> <Tether>
0.000

$$$$
VeraChem MOL file


 20 19  0  0  0  0  0  0  0  0999 V2000     
   18.7470   17.7023   23.3710 N   0  3  0  0  0  0  0  0  0  0  0  0
   18.5549   16.7078   23.2237 H   0  0  0  0  0  0  0  0  0  0  0  0
   17.9586   18.0903   23.8959 H   0  0  0  0  0  0  0  0  0  0  0  0
   19.5750   17.7735   23.9654 H   0  0  0  0  0  0  0  0  0  0  0  0
   18.9492   18.4244   22.0671 C   0  0  2  0  0  0  0  0  0  0  0  0
   18.0060   18.3098   21.5237 H   0  0  0  0  0  0  0  0  0  0  0  0
   20.0490   17.7586   21.2212 C   0  0  0  0  0  0  0  0  0  0  0  0
   21.0128   17.7503   21.7440 H   0  0  0  0  0  0  0  0  0  0  0  0
   20.1788   18.2854   20.2678 H   0  0  0  0  0  0  0  0  0  0  0  0
   19.7822   16.7194   20.9932 H   0  0  0  0  0  0  0  0  0  0  0  0
   19.1814   19.9468   22.2457 C   0  0  0  0  0  0  0  0  0  0  0  0
   19.0046   20.4261   21.2738 H   0  0  0  0  0  0  0  0  0  0  0  0
   18.4076   20.3485   22.9128 H   0  0  0  0  0  0  0  0  0  0  0  0
   20.5797   20.4003   22.7513 C   0  0  0  0  0  0  0  0  0  0  0  0
   20.5907   21.4990   22.7780 H   0  0  0  0  0  0  0  0  0  0  0  0
   21.3567   20.1158   22.0288 H   0  0  0  0  0  0  0  0  0  0  0  0
   20.9590   19.8776   24.1555 C   0  0  0  0  0  0  0  0  0  0  0  0
   20.1598   20.0727   24.8824 H   0  0  0  0  0  0  0  0  0  0  0  0
   21.8659   20.3804   24.5156 H   0  0  0  0  0  0  0  0  0  0  0  0
   21.1718   18.8025   24.1422 H   0  0  0  0  0  0  0  0  0  0  0  0
  1  2  1  0  0  0  0
  1  3  1  0  0  0  0
  1  4  1  0  0  0  0
  1  5  1  0  0  0  0
  5  6  1  0  0  0  0
  5  7  1  0  0  0  0
  7  8  1  0  0  0  0
  7  9  1  0  0  0  0
  7 10  1  0  0  0  0
  5 11  1  0  0  0  0
 11 12  1  0  0  0  0
 11 13  1  0  0  0  0
 11 14  1  0  0  0  0
 14 15  1  0  0  0  0
 14 16  1  0  0  0  0
 14 17  1  0  0  0  0
 17 18  1  0  0  0  0
 17 19  1  0  0  0  0
 17 20  1  0  0  0  0
M  END
> <VConfSearch Rank>
690

> <Conf_Id>
55

> <Delta U+W>
2.767

> <U+W>
-33.509

> <U>
24.552

> <W>
-58.061

> <W(PB)>
-59.930

> <W(SA)>
1.869

> <Valence>
3.726

> <Coulomb>
20.219

> <VdW>
0.606

> <VdW6>
-6.395

> <VdW12>
7.001

> <Bond>
0.241

> <Angle>
2.098

> <Pdih>
1.387

> <Idih>
0.000

> <Tether>
0.000

$$$$
VeraChem MOL file


 20 19  0  0  0  0  0  0  0  0999 V2000     
   20.7044   18.3260   21.1144 N   0  3  0  0  0  0  0  0  0  0  0  0
   21.3470   19.1169   21.0240 H   0  0  0  0  0  0  0  0  0  0  0  0
   20.6095   17.9025   20.1875 H   0  0  0  0  0  0  0  0  0  0  0  0
   21.1520   17.6337   21.7202 H   0  0  0  0  0  0  0  0  0  0  0  0
   19.3708   18.7589   21.6614 C   0  0  2  0  0  0  0  0  0  0  0  0
   18.7514   17.8591   21.7293 H   0  0  0  0  0  0  0  0  0  0  0  0
   18.6859   19.7430   20.6989 C   0  0  0  0  0  0  0  0  0  0  0  0
   18.5702   19.2961   19.7038 H   0  0  0  0  0  0  0  0  0  0  0  0
   19.2690   20.6663   20.5932 H   0  0  0  0  0  0  0  0  0  0  0  0
   17.6855   20.0105   21.0611 H   0  0  0  0  0  0  0  0  0  0  0  0
   19.4806   19.3769   23.0729 C   0  0  0  0  0  0  0  0  0  0  0  0
   20.1181   20.2703   23.0368 H   0  0  0  0  0  0  0  0  0  0  0  0
   18.4851   19.7157   23.3895 H   0  0  0  0  0  0  0  0  0  0  0  0
   20.0287   18.3854   24.1273 C   0  0  0  0  0  0  0  0  0  0  0  0
   21.0482   18.0743   23.8624 H   0  0  0  0  0  0  0  0  0  0  0  0
   19.4109   17.4763   24.1372 H   0  0  0  0  0  0  0  0  0  0  0  0
   20.0451   19.0074   25.5402 C   0  0  0  0  0  0  0  0  0  0  0  0
   20.6799   19.9025   25.5703 H   0  0  0  0  0  0  0  0  0  0  0  0
   20.4375   18.2917   26.2743 H   0  0  0  0  0  0  0  0  0  0  0  0
   19.0342   19.2945   25.8579 H   0  0  0  0  0  0  0  0  0  0  0  0
  1  2  1  0  0  0  0
  1  3  1  0  0  0  0
  1  4  1  0  0  0  0
  1  5  1  0  0  0  0
  5  6  1  0  0  0  0
  5  7  1  0  0  0  0
  7  8  1  0  0  0  0
  7  9  1  0  0  0  0
  7 10  1  0  0  0  0
  5 11  1  0  0  0  0
 11 12  1  0  0  0  0
 11 13  1  0  0  0  0
 11 14  1  0  0  0  0
 14 15  1  0  0  0  0
 14 16  1  0  0  0  0
 14 17  1  0  0  0  0
 17 18  1  0  0  0  0
 17 19  1  0  0  0  0
 17 20  1  0  0  0  0
M  END
> <VConfSearch Rank>
691

> <Conf_Id>
74

> <Delta U+W>
0.000

> <U+W>
-36.276

> <U>
22.080

> <W>
-58.356

> <W(PB)>
-60.289

> <W(SA)>
1.932

> <Valence>
1.885

> <Coulomb>
19.559

> <VdW>
0.637

> <VdW6>
-4.482

> <VdW12>
5.119

> <Bond>
0.136

> <Angle>
0.867

> <Pdih>
0.882

> <Idih>
0.000

> <Tether>
0.000

$$$$
VeraChem MOL file


 20 19  0  0  0  0  0  0  0  0999 V2000     
   18.5814   17.4279   24.1732 N   0  3  0  0  0  0  0  0  0  0  0  0
   17.9269   18.0568   24.6466 H   0  0  0  0  0  0  0  0  0  0  0  0
   19.3479   17.2375   24.8234 H   0  0  0  0  0  0  0  0  0  0  0  0
   18.0901   16.5440   24.0149 H   0  0  0  0  0  0  0  0  0  0  0  0
   19.0839   18.0172   22.8837 C   0  0  2  0  0  0  0  0  0  0  0  0
   18.2024   18.1828   22.2565 H   0  0  0  0  0  0  0  0  0  0  0  0
   20.0106   17.0189   22.1659 C   0  0  0  0  0  0  0  0  0  0  0  0
   19.5179   16.0451   22.0553 H   0  0  0  0  0  0  0  0  0  0  0  0
   20.9413   16.8670   22.7266 H   0  0  0  0  0  0  0  0  0  0  0  0
   20.2686   17.3664   21.1590 H   0  0  0  0  0  0  0  0  0  0  0  0
   19.7706   19.3821   23.1226 C   0  0  0  0  0  0  0  0  0  0  0  0
   19.1014   20.0061   23.7297 H   0  0  0  0  0  0  0  0  0  0  0  0
   20.6835   19.2379   23.7156 H   0  0  0  0  0  0  0  0  0  0  0  0
   20.1097   20.1480   21.8205 C   0  0  0  0  0  0  0  0  0  0  0  0
   19.2086   20.2372   21.1975 H   0  0  0  0  0  0  0  0  0  0  0  0
   20.8502   19.5902   21.2319 H   0  0  0  0  0  0  0  0  0  0  0  0
   20.6680   21.5566   22.1171 C   0  0  0  0  0  0  0  0  0  0  0  0
   19.9383   22.1636   22.6688 H   0  0  0  0  0  0  0  0  0  0  0  0
   20.9063   22.0836   21.1840 H   0  0  0  0  0  0  0  0  0  0  0  0
   21.5868   21.4993   22.7153 H   0  0  0  0  0  0  0  0  0  0  0  0
  1  2  1  0  0  0  0
  1  3  1  0  0  0  0
  1  4  1  0  0  0  0
  1  5  1  0  0  0  0
  5  6  1  0  0  0  0
  5  7  1  0  0  0  0
  7  8  1  0  0  0  0
  7  9  1  0  0  0  0
  7 10  1  0  0  0  0
  5 11  1  0  0  0  0
 11 12  1  0  0  0  0
 11 13  1  0  0  0  0
 11 14  1  0  0  0  0
 14 15  1  0  0  0  0
 14 16  1  0  0  0  0
 14 17  1  0  0  0  0
 17 18  1  0  0  0  0
 17 19  1  0  0  0  0
 17 20  1  0  0  0  0
M  END
> <VConfSearch Rank>
692

> <Conf_Id>
80

> <Delta U+W>
0.460

> <U+W>
-35.817

> <U>
22.495

> <W>
-58.311

> <W(PB)>
-60.259

> <W(SA)>
1.948

> <Valence>
2.419

> <Coulomb>
19.304

> <VdW>
0.772

> <VdW6>
-4.635

> <VdW12>
5.407

> <Bond>
0.149

> <Angle>
1.142

> <Pdih>
1.129

> <Idih>
0.000

> <Tether>
0.000

$$$$
VeraChem MOL file


 20 19  0  0  0  0  0  0  0  0999 V2000     
   18.5431   20.3487   24.1972 N   0  3  0  0  0  0  0  0  0  0  0  0
   18.4529   19.9425   25.1325 H   0  0  0  0  0  0  0  0  0  0  0  0
   17.6452   20.2267   23.7222 H   0  0  0  0  0  0  0  0  0  0  0  0
   18.6894   21.3546   24.3174 H   0  0  0  0  0  0  0  0  0  0  0  0
   19.6676   19.7172   23.4229 C   0  0  2  0  0  0  0  0  0  0  0  0
   20.5788   19.9027   24.0000 H   0  0  0  0  0  0  0  0  0  0  0  0
   19.8213   20.4017   22.0539 C   0  0  0  0  0  0  0  0  0  0  0  0
   19.8680   21.4916   22.1686 H   0  0  0  0  0  0  0  0  0  0  0  0
   18.9785   20.1643   21.3930 H   0  0  0  0  0  0  0  0  0  0  0  0
   20.7497   20.0907   21.5616 H   0  0  0  0  0  0  0  0  0  0  0  0
   19.4736   18.1852   23.3111 C   0  0  0  0  0  0  0  0  0  0  0  0
   19.3370   17.7955   24.3285 H   0  0  0  0  0  0  0  0  0  0  0  0
   18.5411   17.9587   22.7773 H   0  0  0  0  0  0  0  0  0  0  0  0
   20.6599   17.4194   22.6678 C   0  0  0  0  0  0  0  0  0  0  0  0
   20.7756   16.4556   23.1834 H   0  0  0  0  0  0  0  0  0  0  0  0
   21.6005   17.9635   22.8328 H   0  0  0  0  0  0  0  0  0  0  0  0
   20.4612   17.1314   21.1609 C   0  0  0  0  0  0  0  0  0  0  0  0
   19.5630   16.5229   20.9934 H   0  0  0  0  0  0  0  0  0  0  0  0
   21.3185   16.5752   20.7600 H   0  0  0  0  0  0  0  0  0  0  0  0
   20.3590   18.0510   20.5742 H   0  0  0  0  0  0  0  0  0  0  0  0
  1  2  1  0  0  0  0
  1  3  1  0  0  0  0
  1  4  1  0  0  0  0
  1  5  1  0  0  0  0
  5  6  1  0  0  0  0
  5  7  1  0  0  0  0
  7  8  1  0  0  0  0
  7  9  1  0  0  0  0
  7 10  1  0  0  0  0
  5 11  1  0  0  0  0
 11 12  1  0  0  0  0
 11 13  1  0  0  0  0
 11 14  1  0  0  0  0
 14 15  1  0  0  0  0
 14 16  1  0  0  0  0
 14 17  1  0  0  0  0
 17 18  1  0  0  0  0
 17 19  1  0  0  0  0
 17 20  1  0  0  0  0
M  END
> <VConfSearch Rank>
693

> <Conf_Id>
52

> <Delta U+W>
2.995

> <U+W>
-33.282

> <U>
25.224

> <W>
-58.506

> <W(PB)>
-60.411

> <W(SA)>
1.905

> <Valence>
4.945

> <Coulomb>
19.467

> <VdW>
0.813

> <VdW6>
-5.458

> <VdW12>
6.270

> <Bond>
0.200

> <Angle>
1.675

> <Pdih>
3.070

> <Idih>
0.000

> <Tether>
0.000

$$$$
VeraChem MOL file


 20 19  0  0  0  0  0  0  0  0999 V2000     
   20.7856   18.7575   21.5181 N   0  3  0  0  0  0  0  0  0  0  0  0
   20.2490   18.9754   20.6750 H   0  0  0  0  0  0  0  0  0  0  0  0
   21.5667   18.1585   21.2375 H   0  0  0  0  0  0  0  0  0  0  0  0
   21.1784   19.6348   21.8660 H   0  0  0  0  0  0  0  0  0  0  0  0
   19.9260   18.0933   22.5589 C   0  0  2  0  0  0  0  0  0  0  0  0
   20.5756   17.8486   23.4050 H   0  0  0  0  0  0  0  0  0  0  0  0
   19.3500   16.7813   21.9998 C   0  0  0  0  0  0  0  0  0  0  0  0
   18.6758   16.9717   21.1554 H   0  0  0  0  0  0  0  0  0  0  0  0
   18.7875   16.2409   22.7713 H   0  0  0  0  0  0  0  0  0  0  0  0
   20.1539   16.1203   21.6533 H   0  0  0  0  0  0  0  0  0  0  0  0
   18.7873   19.0082   23.0692 C   0  0  0  0  0  0  0  0  0  0  0  0
   18.2725   19.4749   22.2191 H   0  0  0  0  0  0  0  0  0  0  0  0
   18.0346   18.3842   23.5694 H   0  0  0  0  0  0  0  0  0  0  0  0
   19.2306   20.0927   24.0861 C   0  0  0  0  0  0  0  0  0  0  0  0
   19.7025   19.6140   24.9557 H   0  0  0  0  0  0  0  0  0  0  0  0
   18.3292   20.5921   24.4683 H   0  0  0  0  0  0  0  0  0  0  0  0
   20.1783   21.1712   23.5135 C   0  0  0  0  0  0  0  0  0  0  0  0
   20.2815   22.0010   24.2249 H   0  0  0  0  0  0  0  0  0  0  0  0
   19.7905   21.5859   22.5739 H   0  0  0  0  0  0  0  0  0  0  0  0
   21.1848   20.7737   23.3393 H   0  0  0  0  0  0  0  0  0  0  0  0
  1  2  1  0  0  0  0
  1  3  1  0  0  0  0
  1  4  1  0  0  0  0
  1  5  1  0  0  0  0
  5  6  1  0  0  0  0
  5  7  1  0  0  0  0
  7  8  1  0  0  0  0
  7  9  1  0  0  0  0
  7 10  1  0  0  0  0
  5 11  1  0  0  0  0
 11 12  1  0  0  0  0
 11 13  1  0  0  0  0
 11 14  1  0  0  0  0
 14 15  1  0  0  0  0
 14 16  1  0  0  0  0
 14 17  1  0  0  0  0
 17 18  1  0  0  0  0
 17 19  1  0  0  0  0
 17 20  1  0  0  0  0
M  END
> <VConfSearch Rank>
694

> <Conf_Id>
54

> <Delta U+W>
2.752

> <U+W>
-33.525

> <U>
24.337

> <W>
-57.862

> <W(PB)>
-59.764

> <W(SA)>
1.901

> <Valence>
3.593

> <Coulomb>
20.067

> <VdW>
0.677

> <VdW6>
-5.466

> <VdW12>
6.144

> <Bond>
0.191

> <Angle>
1.557

> <Pdih>
1.845

> <Idih>
0.000

> <Tether>
0.000

$$$$
VeraChem MOL file


 20 19  0  0  0  0  0  0  0  0999 V2000     
   18.6625   17.2640   22.2377 N   0  3  0  0  0  0  0  0  0  0  0  0
   18.0989   16.8108   21.5135 H   0  0  0  0  0  0  0  0  0  0  0  0
   18.3078   16.9442   23.1431 H   0  0  0  0  0  0  0  0  0  0  0  0
   19.6193   16.9162   22.1422 H   0  0  0  0  0  0  0  0  0  0  0  0
   18.6079   18.7630   22.1204 C   0  0  2  0  0  0  0  0  0  0  0  0
   17.5524   19.0359   22.2172 H   0  0  0  0  0  0  0  0  0  0  0  0
   19.0810   19.2265   20.7311 C   0  0  0  0  0  0  0  0  0  0  0  0
   19.0414   20.3199   20.6502 H   0  0  0  0  0  0  0  0  0  0  0  0
   18.4344   18.8122   19.9479 H   0  0  0  0  0  0  0  0  0  0  0  0
   20.1077   18.9032   20.5228 H   0  0  0  0  0  0  0  0  0  0  0  0
   19.3715   19.4753   23.2626 C   0  0  0  0  0  0  0  0  0  0  0  0
   19.2166   20.5583   23.1689 H   0  0  0  0  0  0  0  0  0  0  0  0
   18.9138   19.1875   24.2182 H   0  0  0  0  0  0  0  0  0  0  0  0
   20.8925   19.1788   23.3177 C   0  0  0  0  0  0  0  0  0  0  0  0
   21.3777   19.5079   22.3891 H   0  0  0  0  0  0  0  0  0  0  0  0
   21.0653   18.0975   23.4021 H   0  0  0  0  0  0  0  0  0  0  0  0
   21.5653   19.8902   24.5112 C   0  0  0  0  0  0  0  0  0  0  0  0
   22.6411   19.6729   24.5358 H   0  0  0  0  0  0  0  0  0  0  0  0
   21.1334   19.5579   25.4642 H   0  0  0  0  0  0  0  0  0  0  0  0
   21.4436   20.9790   24.4420 H   0  0  0  0  0  0  0  0  0  0  0  0
  1  2  1  0  0  0  0
  1  3  1  0  0  0  0
  1  4  1  0  0  0  0
  1  5  1  0  0  0  0
  5  6  1  0  0  0  0
  5  7  1  0  0  0  0
  7  8  1  0  0  0  0
  7  9  1  0  0  0  0
  7 10  1  0  0  0  0
  5 11  1  0  0  0  0
 11 12  1  0  0  0  0
 11 13  1  0  0  0  0
 11 14  1  0  0  0  0
 14 15  1  0  0  0  0
 14 16  1  0  0  0  0
 14 17  1  0  0  0  0
 17 18  1  0  0  0  0
 17 19  1  0  0  0  0
 17 20  1  0  0  0  0
M  END
> <VConfSearch Rank>
695

> <Conf_Id>
63

> <Delta U+W>
0.420

> <U+W>
-35.856

> <U>
22.625

> <W>
-58.481

> <W(PB)>
-60.400

> <W(SA)>
1.919

> <Valence>
2.404

> <Coulomb>
19.464

> <VdW>
0.757

> <VdW6>
-5.074

> <VdW12>
5.830

> <Bond>
0.172

> <Angle>
1.207

> <Pdih>
1.025

> <Idih>
0.000

> <Tether>
0.000

$$$$
VeraChem MOL file


 20 19  0  0  0  0  0  0  0  0999 V2000     
   21.4292   18.9124   22.4569 N   0  3  0  0  0  0  0  0  0  0  0  0
   21.4127   19.9110   22.6791 H   0  0  0  0  0  0  0  0  0  0  0  0
   21.6132   18.8228   21.4546 H   0  0  0  0  0  0  0  0  0  0  0  0
   22.2254   18.5021   22.9520 H   0  0  0  0  0  0  0  0  0  0  0  0
   20.1365   18.2453   22.8418 C   0  0  2  0  0  0  0  0  0  0  0  0
   20.0194   18.3847   23.9206 H   0  0  0  0  0  0  0  0  0  0  0  0
   20.1992   16.7355   22.5588 C   0  0  0  0  0  0  0  0  0  0  0  0
   21.0418   16.2755   23.0897 H   0  0  0  0  0  0  0  0  0  0  0  0
   20.3213   16.5365   21.4868 H   0  0  0  0  0  0  0  0  0  0  0  0
   19.2820   16.2372   22.8964 H   0  0  0  0  0  0  0  0  0  0  0  0
   18.9137   18.8746   22.1363 C   0  0  0  0  0  0  0  0  0  0  0  0
   19.0047   18.7302   21.0516 H   0  0  0  0  0  0  0  0  0  0  0  0
   18.0077   18.3346   22.4423 H   0  0  0  0  0  0  0  0  0  0  0  0
   18.7166   20.3831   22.4320 C   0  0  0  0  0  0  0  0  0  0  0  0
   17.8309   20.7366   21.8857 H   0  0  0  0  0  0  0  0  0  0  0  0
   19.5638   20.9613   22.0391 H   0  0  0  0  0  0  0  0  0  0  0  0
   18.5310   20.6864   23.9363 C   0  0  0  0  0  0  0  0  0  0  0  0
   17.6882   20.1189   24.3521 H   0  0  0  0  0  0  0  0  0  0  0  0
   18.3242   21.7534   24.0907 H   0  0  0  0  0  0  0  0  0  0  0  0
   19.4301   20.4372   24.5137 H   0  0  0  0  0  0  0  0  0  0  0  0
  1  2  1  0  0  0  0
  1  3  1  0  0  0  0
  1  4  1  0  0  0  0
  1  5  1  0  0  0  0
  5  6  1  0  0  0  0
  5  7  1  0  0  0  0
  7  8  1  0  0  0  0
  7  9  1  0  0  0  0
  7 10  1  0  0  0  0
  5 11  1  0  0  0  0
 11 12  1  0  0  0  0
 11 13  1  0  0  0  0
 11 14  1  0  0  0  0
 14 15  1  0  0  0  0
 14 16  1  0  0  0  0
 14 17  1  0  0  0  0
 17 18  1  0  0  0  0
 17 19  1  0  0  0  0
 17 20  1  0  0  0  0
M  END
> <VConfSearch Rank>
696

> <Conf_Id>
50

> <Delta U+W>
0.466

> <U+W>
-35.811

> <U>
22.369

> <W>
-58.180

> <W(PB)>
-60.103

> <W(SA)>
1.923

> <Valence>
2.168

> <Coulomb>
19.636

> <VdW>
0.566

> <VdW6>
-5.263

> <VdW12>
5.829

> <Bond>
0.162

> <Angle>
1.066

> <Pdih>
0.939

> <Idih>
0.000

> <Tether>
0.000

$$$$
VeraChem MOL file


 20 19  0  0  0  0  0  0  0  0999 V2000     
   21.5685   19.2500   21.4588 N   0  3  0  0  0  0  0  0  0  0  0  0
   21.3538   20.0946   20.9216 H   0  0  0  0  0  0  0  0  0  0  0  0
   21.6201   18.4706   20.7979 H   0  0  0  0  0  0  0  0  0  0  0  0
   22.5035   19.3742   21.8563 H   0  0  0  0  0  0  0  0  0  0  0  0
   20.5431   18.9987   22.5311 C   0  0  2  0  0  0  0  0  0  0  0  0
   20.5591   19.8796   23.1804 H   0  0  0  0  0  0  0  0  0  0  0  0
   20.9419   17.7652   23.3627 C   0  0  0  0  0  0  0  0  0  0  0  0
   20.9846   16.8644   22.7379 H   0  0  0  0  0  0  0  0  0  0  0  0
   20.2296   17.5785   24.1735 H   0  0  0  0  0  0  0  0  0  0  0  0
   21.9297   17.9089   23.8175 H   0  0  0  0  0  0  0  0  0  0  0  0
   19.1165   18.8577   21.9454 C   0  0  0  0  0  0  0  0  0  0  0  0
   19.1041   19.2676   20.9268 H   0  0  0  0  0  0  0  0  0  0  0  0
   18.8478   17.7981   21.8407 H   0  0  0  0  0  0  0  0  0  0  0  0
   18.0283   19.6058   22.7565 C   0  0  0  0  0  0  0  0  0  0  0  0
   17.0703   19.5145   22.2257 H   0  0  0  0  0  0  0  0  0  0  0  0
   18.2620   20.6796   22.7815 H   0  0  0  0  0  0  0  0  0  0  0  0
   17.8476   19.0872   24.2003 C   0  0  0  0  0  0  0  0  0  0  0  0
   17.6548   18.0066   24.2121 H   0  0  0  0  0  0  0  0  0  0  0  0
   16.9958   19.5842   24.6824 H   0  0  0  0  0  0  0  0  0  0  0  0
   18.7347   19.2901   24.8132 H   0  0  0  0  0  0  0  0  0  0  0  0
  1  2  1  0  0  0  0
  1  3  1  0  0  0  0
  1  4  1  0  0  0  0
  1  5  1  0  0  0  0
  5  6  1  0  0  0  0
  5  7  1  0  0  0  0
  7  8  1  0  0  0  0
  7  9  1  0  0  0  0
  7 10  1  0  0  0  0
  5 11  1  0  0  0  0
 11 12  1  0  0  0  0
 11 13  1  0  0  0  0
 11 14  1  0  0  0  0
 14 15  1  0  0  0  0
 14 16  1  0  0  0  0
 14 17  1  0  0  0  0
 17 18  1  0  0  0  0
 17 19  1  0  0  0  0
 17 20  1  0  0  0  0
M  END
> <VConfSearch Rank>
697

> <Conf_Id>
3

> <Delta U+W>
3.093

> <U+W>
-33.184

> <U>
25.256

> <W>
-58.439

> <W(PB)>
-60.337

> <W(SA)>
1.898

> <Valence>
4.963

> <Coulomb>
19.511

> <VdW>
0.782

> <VdW6>
-5.429

> <VdW12>
6.211

> <Bond>
0.174

> <Angle>
1.377

> <Pdih>
3.412

> <Idih>
0.000

> <Tether>
0.000

$$$$
VeraChem MOL file


 20 19  0  0  0  0  0  0  0  0999 V2000     
   21.4156   18.8602   24.2371 N   0  3  0  0  0  0  0  0  0  0  0  0
   22.3506   18.5325   23.9801 H   0  0  0  0  0  0  0  0  0  0  0  0
   21.0714   18.2422   24.9769 H   0  0  0  0  0  0  0  0  0  0  0  0
   21.5214   19.7936   24.6422 H   0  0  0  0  0  0  0  0  0  0  0  0
   20.4914   18.8744   23.0505 C   0  0  2  0  0  0  0  0  0  0  0  0
   20.4443   17.8437   22.6863 H   0  0  0  0  0  0  0  0  0  0  0  0
   21.0701   19.7594   21.9316 C   0  0  0  0  0  0  0  0  0  0  0  0
   20.4823   19.6710   21.0105 H   0  0  0  0  0  0  0  0  0  0  0  0
   22.0968   19.4571   21.6914 H   0  0  0  0  0  0  0  0  0  0  0  0
   21.0869   20.8152   22.2289 H   0  0  0  0  0  0  0  0  0  0  0  0
   19.0640   19.3116   23.4576 C   0  0  0  0  0  0  0  0  0  0  0  0
   18.7383   18.6993   24.3088 H   0  0  0  0  0  0  0  0  0  0  0  0
   19.0910   20.3476   23.8207 H   0  0  0  0  0  0  0  0  0  0  0  0
   17.9986   19.1953   22.3376 C   0  0  0  0  0  0  0  0  0  0  0  0
   18.2227   19.8974   21.5232 H   0  0  0  0  0  0  0  0  0  0  0  0
   17.0261   19.5075   22.7433 H   0  0  0  0  0  0  0  0  0  0  0  0
   17.8684   17.7629   21.7716 C   0  0  0  0  0  0  0  0  0  0  0  0
   17.6467   17.0418   22.5691 H   0  0  0  0  0  0  0  0  0  0  0  0
   18.7885   17.4439   21.2659 H   0  0  0  0  0  0  0  0  0  0  0  0
   17.0533   17.7119   21.0380 H   0  0  0  0  0  0  0  0  0  0  0  0
  1  2  1  0  0  0  0
  1  3  1  0  0  0  0
  1  4  1  0  0  0  0
  1  5  1  0  0  0  0
  5  6  1  0  0  0  0
  5  7  1  0  0  0  0
  7  8  1  0  0  0  0
  7  9  1  0  0  0  0
  7 10  1  0  0  0  0
  5 11  1  0  0  0  0
 11 12  1  0  0  0  0
 11 13  1  0  0  0  0
 11 14  1  0  0  0  0
 14 15  1  0  0  0  0
 14 16  1  0  0  0  0
 14 17  1  0  0  0  0
 17 18  1  0  0  0  0
 17 19  1  0  0  0  0
 17 20  1  0  0  0  0
M  END
> <VConfSearch Rank>
698

> <Conf_Id>
64

> <Delta U+W>
0.544

> <U+W>
-35.732

> <U>
22.800

> <W>
-58.532

> <W(PB)>
-60.437

> <W(SA)>
1.905

> <Valence>
2.662

> <Coulomb>
19.485

> <VdW>
0.653

> <VdW6>
-5.460

> <VdW12>
6.113

> <Bond>
0.174

> <Angle>
1.378

> <Pdih>
1.109

> <Idih>
0.000

> <Tether>
0.000

$$$$
VeraChem MOL file


 20 19  0  0  0  0  0  0  0  0999 V2000     
   20.2304   18.2500   24.6517 N   0  3  0  0  0  0  0  0  0  0  0  0
   19.4169   18.8473   24.8151 H   0  0  0  0  0  0  0  0  0  0  0  0
   20.9396   18.5031   25.3449 H   0  0  0  0  0  0  0  0  0  0  0  0
   19.9473   17.2856   24.8454 H   0  0  0  0  0  0  0  0  0  0  0  0
   20.7530   18.4025   23.2487 C   0  0  2  0  0  0  0  0  0  0  0  0
   21.6202   17.7383   23.1786 H   0  0  0  0  0  0  0  0  0  0  0  0
   21.2515   19.8359   23.0022 C   0  0  0  0  0  0  0  0  0  0  0  0
   20.4619   20.5731   23.1886 H   0  0  0  0  0  0  0  0  0  0  0  0
   21.6048   19.9550   21.9706 H   0  0  0  0  0  0  0  0  0  0  0  0
   22.0897   20.0697   23.6698 H   0  0  0  0  0  0  0  0  0  0  0  0
   19.7325   17.9262   22.1845 C   0  0  0  0  0  0  0  0  0  0  0  0
   20.2203   17.8928   21.2014 H   0  0  0  0  0  0  0  0  0  0  0  0
   19.4799   16.8832   22.4161 H   0  0  0  0  0  0  0  0  0  0  0  0
   18.4103   18.7374   22.0892 C   0  0  0  0  0  0  0  0  0  0  0  0
   18.1335   19.1519   23.0674 H   0  0  0  0  0  0  0  0  0  0  0  0
   17.5997   18.0470   21.8168 H   0  0  0  0  0  0  0  0  0  0  0  0
   18.4497   19.8611   21.0268 C   0  0  0  0  0  0  0  0  0  0  0  0
   19.2081   20.6184   21.2536 H   0  0  0  0  0  0  0  0  0  0  0  0
   17.4793   20.3714   20.9726 H   0  0  0  0  0  0  0  0  0  0  0  0
   18.6659   19.4530   20.0310 H   0  0  0  0  0  0  0  0  0  0  0  0
  1  2  1  0  0  0  0
  1  3  1  0  0  0  0
  1  4  1  0  0  0  0
  1  5  1  0  0  0  0
  5  6  1  0  0  0  0
  5  7  1  0  0  0  0
  7  8  1  0  0  0  0
  7  9  1  0  0  0  0
  7 10  1  0  0  0  0
  5 11  1  0  0  0  0
 11 12  1  0  0  0  0
 11 13  1  0  0  0  0
 11 14  1  0  0  0  0
 14 15  1  0  0  0  0
 14 16  1  0  0  0  0
 14 17  1  0  0  0  0
 17 18  1  0  0  0  0
 17 19  1  0  0  0  0
 17 20  1  0  0  0  0
M  END
> <VConfSearch Rank>
699

> <Conf_Id>
35

> <Delta U+W>
3.004

> <U+W>
-33.272

> <U>
25.367

> <W>
-58.639

> <W(PB)>
-60.512

> <W(SA)>
1.873

> <Valence>
4.943

> <Coulomb>
19.661

> <VdW>
0.764

> <VdW6>
-5.871

> <VdW12>
6.636

> <Bond>
0.230

> <Angle>
1.857

> <Pdih>
2.855

> <Idih>
0.000

> <Tether>
0.000

$$$$
VeraChem MOL file


 20 19  0  0  0  0  0  0  0  0999 V2000     
   18.3123   18.2445   23.3499 N   0  3  0  0  0  0  0  0  0  0  0  0
   17.6792   18.3788   24.1428 H   0  0  0  0  0  0  0  0  0  0  0  0
   18.1388   17.3073   22.9768 H   0  0  0  0  0  0  0  0  0  0  0  0
   18.0490   18.9156   22.6258 H   0  0  0  0  0  0  0  0  0  0  0  0
   19.7502   18.4180   23.7561 C   0  0  2  0  0  0  0  0  0  0  0  0
   19.9340   17.6434   24.5072 H   0  0  0  0  0  0  0  0  0  0  0  0
   19.9813   19.7793   24.4359 C   0  0  0  0  0  0  0  0  0  0  0  0
   19.7259   20.6126   23.7707 H   0  0  0  0  0  0  0  0  0  0  0  0
   21.0297   19.8894   24.7392 H   0  0  0  0  0  0  0  0  0  0  0  0
   19.3631   19.8683   25.3375 H   0  0  0  0  0  0  0  0  0  0  0  0
   20.7445   18.1611   22.5947 C   0  0  0  0  0  0  0  0  0  0  0  0
   21.7365   17.9988   23.0365 H   0  0  0  0  0  0  0  0  0  0  0  0
   20.4845   17.2123   22.1076 H   0  0  0  0  0  0  0  0  0  0  0  0
   20.8816   19.2709   21.5148 C   0  0  0  0  0  0  0  0  0  0  0  0
   21.6516   18.9531   20.7979 H   0  0  0  0  0  0  0  0  0  0  0  0
   21.2639   20.1965   21.9662 H   0  0  0  0  0  0  0  0  0  0  0  0
   19.5842   19.5722   20.7308 C   0  0  0  0  0  0  0  0  0  0  0  0
   19.1322   18.6514   20.3396 H   0  0  0  0  0  0  0  0  0  0  0  0
   19.8004   20.2256   19.8755 H   0  0  0  0  0  0  0  0  0  0  0  0
   18.8475   20.0922   21.3538 H   0  0  0  0  0  0  0  0  0  0  0  0
  1  2  1  0  0  0  0
  1  3  1  0  0  0  0
  1  4  1  0  0  0  0
  1  5  1  0  0  0  0
  5  6  1  0  0  0  0
  5  7  1  0  0  0  0
  7  8  1  0  0  0  0
  7  9  1  0  0  0  0
  7 10  1  0  0  0  0
  5 11  1  0  0  0  0
 11 12  1  0  0  0  0
 11 13  1  0  0  0  0
 11 14  1  0  0  0  0
 14 15  1  0  0  0  0
 14 16  1  0  0  0  0
 14 17  1  0  0  0  0
 17 18  1  0  0  0  0
 17 19  1  0  0  0  0
 17 20  1  0  0  0  0
M  END
> <VConfSearch Rank>
700

> <Conf_Id>
55

> <Delta U+W>
2.767

> <U+W>
-33.509

> <U>
24.552

> <W>
-58.061

> <W(PB)>
-59.930

> <W(SA)>
1.869

> <Valence>
3.726

> <Coulomb>
20.219

> <VdW>
0.606

> <VdW6>
-6.395

> <VdW12>
7.001

> <Bond>
0.241

> <Angle>
2.098

> <Pdih>
1.387

> <Idih>
0.000

> <Tether>
0.000

$$$$
VeraChem MOL file


 20 19  0  0  0  0  0  0  0  0999 V2000     
   21.0289   19.0930   21.2276 N   0  3  0  0  0  0  0  0  0  0  0  0
   21.5451   18.2301   21.4157 H   0  0  0  0  0  0  0  0  0  0  0  0
   21.6536   19.7152   20.7077 H   0  0  0  0  0  0  0  0  0  0  0  0
   20.2504   18.8567   20.6072 H   0  0  0  0  0  0  0  0  0  0  0  0
   20.5458   19.7351   22.5001 C   0  0  2  0  0  0  0  0  0  0  0  0
   20.0051   20.6414   22.2099 H   0  0  0  0  0  0  0  0  0  0  0  0
   21.7356   20.1467   23.3828 C   0  0  0  0  0  0  0  0  0  0  0  0
   22.4077   20.8217   22.8388 H   0  0  0  0  0  0  0  0  0  0  0  0
   22.3152   19.2714   23.7019 H   0  0  0  0  0  0  0  0  0  0  0  0
   21.3910   20.6741   24.2810 H   0  0  0  0  0  0  0  0  0  0  0  0
   19.5780   18.8285   23.2922 C   0  0  0  0  0  0  0  0  0  0  0  0
   20.0902   17.8994   23.5757 H   0  0  0  0  0  0  0  0  0  0  0  0
   19.3057   19.3338   24.2285 H   0  0  0  0  0  0  0  0  0  0  0  0
   18.2842   18.4951   22.5110 C   0  0  0  0  0  0  0  0  0  0  0  0
   18.5260   17.9384   21.5955 H   0  0  0  0  0  0  0  0  0  0  0  0
   17.7911   19.4259   22.1967 H   0  0  0  0  0  0  0  0  0  0  0  0
   17.3037   17.6598   23.3620 C   0  0  0  0  0  0  0  0  0  0  0  0
   17.7575   16.7078   23.6668 H   0  0  0  0  0  0  0  0  0  0  0  0
   16.3934   17.4316   22.7926 H   0  0  0  0  0  0  0  0  0  0  0  0
   17.0058   18.2022   24.2689 H   0  0  0  0  0  0  0  0  0  0  0  0
  1  2  1  0  0  0  0
  1  3  1  0  0  0  0
  1  4  1  0  0  0  0
  1  5  1  0  0  0  0
  5  6  1  0  0  0  0
  5  7  1  0  0  0  0
  7  8  1  0  0  0  0
  7  9  1  0  0  0  0
  7 10  1  0  0  0  0
  5 11  1  0  0  0  0
 11 12  1  0  0  0  0
 11 13  1  0  0  0  0
 11 14  1  0  0  0  0
 14 15  1  0  0  0  0
 14 16  1  0  0  0  0
 14 17  1  0  0  0  0
 17 18  1  0  0  0  0
 17 19  1  0  0  0  0
 17 20  1  0  0  0  0
M  END
> <VConfSearch Rank>
701

> <Conf_Id>
74

> <Delta U+W>
0.000

> <U+W>
-36.276

> <U>
22.080

> <W>
-58.356

> <W(PB)>
-60.289

> <W(SA)>
1.932

> <Valence>
1.885

> <Coulomb>
19.559

> <VdW>
0.637

> <VdW6>
-4.482

> <VdW12>
5.119

> <Bond>
0.136

> <Angle>
0.867

> <Pdih>
0.882

> <Idih>
0.000

> <Tether>
0.000

$$$$
VeraChem MOL file


 20 19  0  0  0  0  0  0  0  0999 V2000     
   18.3547   20.5826   23.7599 N   0  3  0  0  0  0  0  0  0  0  0  0
   17.5099   20.5392   23.1834 H   0  0  0  0  0  0  0  0  0  0  0  0
   18.8794   21.4126   23.4726 H   0  0  0  0  0  0  0  0  0  0  0  0
   18.0533   20.7328   24.7265 H   0  0  0  0  0  0  0  0  0  0  0  0
   19.1817   19.3331   23.6287 C   0  0  2  0  0  0  0  0  0  0  0  0
   18.5448   18.5061   23.9579 H   0  0  0  0  0  0  0  0  0  0  0  0
   20.4065   19.4034   24.5591 C   0  0  0  0  0  0  0  0  0  0  0  0
   20.0987   19.6352   25.5861 H   0  0  0  0  0  0  0  0  0  0  0  0
   21.1098   20.1792   24.2319 H   0  0  0  0  0  0  0  0  0  0  0  0
   20.9400   18.4465   24.5900 H   0  0  0  0  0  0  0  0  0  0  0  0
   19.5815   19.0790   22.1567 C   0  0  0  0  0  0  0  0  0  0  0  0
   18.6793   19.1484   21.5347 H   0  0  0  0  0  0  0  0  0  0  0  0
   20.2567   19.8745   21.8143 H   0  0  0  0  0  0  0  0  0  0  0  0
   20.2387   17.6978   21.9165 C   0  0  0  0  0  0  0  0  0  0  0  0
   19.5912   16.9047   22.3163 H   0  0  0  0  0  0  0  0  0  0  0  0
   21.1935   17.6311   22.4547 H   0  0  0  0  0  0  0  0  0  0  0  0
   20.4939   17.4416   20.4155 C   0  0  0  0  0  0  0  0  0  0  0  0
   19.5555   17.4568   19.8461 H   0  0  0  0  0  0  0  0  0  0  0  0
   20.9630   16.4607   20.2639 H   0  0  0  0  0  0  0  0  0  0  0  0
   21.1624   18.2031   19.9931 H   0  0  0  0  0  0  0  0  0  0  0  0
  1  2  1  0  0  0  0
  1  3  1  0  0  0  0
  1  4  1  0  0  0  0
  1  5  1  0  0  0  0
  5  6  1  0  0  0  0
  5  7  1  0  0  0  0
  7  8  1  0  0  0  0
  7  9  1  0  0  0  0
  7 10  1  0  0  0  0
  5 11  1  0  0  0  0
 11 12  1  0  0  0  0
 11 13  1  0  0  0  0
 11 14  1  0  0  0  0
 14 15  1  0  0  0  0
 14 16  1  0  0  0  0
 14 17  1  0  0  0  0
 17 18  1  0  0  0  0
 17 19  1  0  0  0  0
 17 20  1  0  0  0  0
M  END
> <VConfSearch Rank>
702

> <Conf_Id>
80

> <Delta U+W>
0.460

> <U+W>
-35.817

> <U>
22.495

> <W>
-58.311

> <W(PB)>
-60.259

> <W(SA)>
1.948

> <Valence>
2.419

> <Coulomb>
19.304

> <VdW>
0.772

> <VdW6>
-4.635

> <VdW12>
5.407

> <Bond>
0.149

> <Angle>
1.142

> <Pdih>
1.129

> <Idih>
0.000

> <Tether>
0.000

$$$$
VeraChem MOL file


 20 19  0  0  0  0  0  0  0  0999 V2000     
   17.3878   19.2446   22.5301 N   0  3  0  0  0  0  0  0  0  0  0  0
   17.1627   19.7661   21.6786 H   0  0  0  0  0  0  0  0  0  0  0  0
   17.3326   19.8994   23.3142 H   0  0  0  0  0  0  0  0  0  0  0  0
   16.6491   18.5486   22.6625 H   0  0  0  0  0  0  0  0  0  0  0  0
   18.7438   18.5989   22.4445 C   0  0  2  0  0  0  0  0  0  0  0  0
   18.7051   17.9178   21.5887 H   0  0  0  0  0  0  0  0  0  0  0  0
   19.0167   17.7643   23.7075 C   0  0  0  0  0  0  0  0  0  0  0  0
   18.1755   17.0922   23.9171 H   0  0  0  0  0  0  0  0  0  0  0  0
   19.1668   18.4063   24.5843 H   0  0  0  0  0  0  0  0  0  0  0  0
   19.9052   17.1359   23.5784 H   0  0  0  0  0  0  0  0  0  0  0  0
   19.8446   19.6525   22.1701 C   0  0  0  0  0  0  0  0  0  0  0  0
   19.5445   20.2176   21.2777 H   0  0  0  0  0  0  0  0  0  0  0  0
   19.8817   20.3843   22.9880 H   0  0  0  0  0  0  0  0  0  0  0  0
   21.2584   19.0700   21.9065 C   0  0  0  0  0  0  0  0  0  0  0  0
   21.7508   19.6805   21.1364 H   0  0  0  0  0  0  0  0  0  0  0  0
   21.1823   18.0580   21.4847 H   0  0  0  0  0  0  0  0  0  0  0  0
   22.1649   19.0646   23.1600 C   0  0  0  0  0  0  0  0  0  0  0  0
   22.3082   20.0829   23.5443 H   0  0  0  0  0  0  0  0  0  0  0  0
   23.1555   18.6595   22.9158 H   0  0  0  0  0  0  0  0  0  0  0  0
   21.7477   18.4550   23.9692 H   0  0  0  0  0  0  0  0  0  0  0  0
  1  2  1  0  0  0  0
  1  3  1  0  0  0  0
  1  4  1  0  0  0  0
  1  5  1  0  0  0  0
  5  6  1  0  0  0  0
  5  7  1  0  0  0  0
  7  8  1  0  0  0  0
  7  9  1  0  0  0  0
  7 10  1  0  0  0  0
  5 11  1  0  0  0  0
 11 12  1  0  0  0  0
 11 13  1  0  0  0  0
 11 14  1  0  0  0  0
 14 15  1  0  0  0  0
 14 16  1  0  0  0  0
 14 17  1  0  0  0  0
 17 18  1  0  0  0  0
 17 19  1  0  0  0  0
 17 20  1  0  0  0  0
M  END
> <VConfSearch Rank>
703

> <Conf_Id>
52

> <Delta U+W>
2.995

> <U+W>
-33.282

> <U>
25.224

> <W>
-58.506

> <W(PB)>
-60.411

> <W(SA)>
1.905

> <Valence>
4.945

> <Coulomb>
19.467

> <VdW>
0.813

> <VdW6>
-5.458

> <VdW12>
6.270

> <Bond>
0.200

> <Angle>
1.675

> <Pdih>
3.070

> <Idih>
0.000

> <Tether>
0.000

$$$$
VeraChem MOL file


 20 19  0  0  0  0  0  0  0  0999 V2000     
   19.4800   19.0548   21.1434 N   0  3  0  0  0  0  0  0  0  0  0  0
   18.7768   19.7869   21.0176 H   0  0  0  0  0  0  0  0  0  0  0  0
   19.4427   18.4497   20.3187 H   0  0  0  0  0  0  0  0  0  0  0  0
   20.3959   19.5087   21.1524 H   0  0  0  0  0  0  0  0  0  0  0  0
   19.2429   18.2781   22.4098 C   0  0  2  0  0  0  0  0  0  0  0  0
   19.9994   17.4883   22.4499 H   0  0  0  0  0  0  0  0  0  0  0  0
   17.8565   17.6138   22.3622 C   0  0  0  0  0  0  0  0  0  0  0  0
   17.0569   18.3648   22.3369 H   0  0  0  0  0  0  0  0  0  0  0  0
   17.6982   16.9755   23.2404 H   0  0  0  0  0  0  0  0  0  0  0  0
   17.7591   16.9805   21.4718 H   0  0  0  0  0  0  0  0  0  0  0  0
   19.3808   19.1483   23.6818 C   0  0  0  0  0  0  0  0  0  0  0  0
   18.8212   20.0848   23.5573 H   0  0  0  0  0  0  0  0  0  0  0  0
   18.9024   18.6226   24.5190 H   0  0  0  0  0  0  0  0  0  0  0  0
   20.8415   19.4512   24.1073 C   0  0  0  0  0  0  0  0  0  0  0  0
   21.3811   18.5086   24.2756 H   0  0  0  0  0  0  0  0  0  0  0  0
   20.8155   19.9624   25.0799 H   0  0  0  0  0  0  0  0  0  0  0  0
   21.6373   20.3312   23.1165 C   0  0  0  0  0  0  0  0  0  0  0  0
   22.5767   20.6647   23.5764 H   0  0  0  0  0  0  0  0  0  0  0  0
   21.0699   21.2275   22.8334 H   0  0  0  0  0  0  0  0  0  0  0  0
   21.9054   19.7776   22.2093 H   0  0  0  0  0  0  0  0  0  0  0  0
  1  2  1  0  0  0  0
  1  3  1  0  0  0  0
  1  4  1  0  0  0  0
  1  5  1  0  0  0  0
  5  6  1  0  0  0  0
  5  7  1  0  0  0  0
  7  8  1  0  0  0  0
  7  9  1  0  0  0  0
  7 10  1  0  0  0  0
  5 11  1  0  0  0  0
 11 12  1  0  0  0  0
 11 13  1  0  0  0  0
 11 14  1  0  0  0  0
 14 15  1  0  0  0  0
 14 16  1  0  0  0  0
 14 17  1  0  0  0  0
 17 18  1  0  0  0  0
 17 19  1  0  0  0  0
 17 20  1  0  0  0  0
M  END
> <VConfSearch Rank>
704

> <Conf_Id>
54

> <Delta U+W>
2.752

> <U+W>
-33.525

> <U>
24.337

> <W>
-57.862

> <W(PB)>
-59.764

> <W(SA)>
1.901

> <Valence>
3.593

> <Coulomb>
20.067

> <VdW>
0.677

> <VdW6>
-5.466

> <VdW12>
6.144

> <Bond>
0.191

> <Angle>
1.557

> <Pdih>
1.845

> <Idih>
0.000

> <Tether>
0.000

$$$$
VeraChem MOL file


 20 19  0  0  0  0  0  0  0  0999 V2000     
   17.9153   18.5906   23.5596 N   0  3  0  0  0  0  0  0  0  0  0  0
   17.1434   17.9209   23.6178 H   0  0  0  0  0  0  0  0  0  0  0  0
   17.5196   19.5235   23.7039 H   0  0  0  0  0  0  0  0  0  0  0  0
   18.5450   18.3994   24.3421 H   0  0  0  0  0  0  0  0  0  0  0  0
   18.6317   18.4917   22.2402 C   0  0  2  0  0  0  0  0  0  0  0  0
   17.8792   18.6932   21.4713 H   0  0  0  0  0  0  0  0  0  0  0  0
   19.1642   17.0668   22.0055 C   0  0  0  0  0  0  0  0  0  0  0  0
   19.6872   16.9993   21.0435 H   0  0  0  0  0  0  0  0  0  0  0  0
   18.3369   16.3469   21.9845 H   0  0  0  0  0  0  0  0  0  0  0  0
   19.8573   16.7567   22.7964 H   0  0  0  0  0  0  0  0  0  0  0  0
   19.7408   19.5600   22.0862 C   0  0  0  0  0  0  0  0  0  0  0  0
   20.1592   19.4908   21.0734 H   0  0  0  0  0  0  0  0  0  0  0  0
   19.2776   20.5531   22.1533 H   0  0  0  0  0  0  0  0  0  0  0  0
   20.8904   19.4640   23.1223 C   0  0  0  0  0  0  0  0  0  0  0  0
   21.4005   18.4954   23.0355 H   0  0  0  0  0  0  0  0  0  0  0  0
   20.4876   19.5221   24.1424 H   0  0  0  0  0  0  0  0  0  0  0  0
   21.9257   20.5923   22.9257 C   0  0  0  0  0  0  0  0  0  0  0  0
   22.7338   20.5101   23.6641 H   0  0  0  0  0  0  0  0  0  0  0  0
   21.4614   21.5800   23.0439 H   0  0  0  0  0  0  0  0  0  0  0  0
   22.3773   20.5443   21.9262 H   0  0  0  0  0  0  0  0  0  0  0  0
  1  2  1  0  0  0  0
  1  3  1  0  0  0  0
  1  4  1  0  0  0  0
  1  5  1  0  0  0  0
  5  6  1  0  0  0  0
  5  7  1  0  0  0  0
  7  8  1  0  0  0  0
  7  9  1  0  0  0  0
  7 10  1  0  0  0  0
  5 11  1  0  0  0  0
 11 12  1  0  0  0  0
 11 13  1  0  0  0  0
 11 14  1  0  0  0  0
 14 15  1  0  0  0  0
 14 16  1  0  0  0  0
 14 17  1  0  0  0  0
 17 18  1  0  0  0  0
 17 19  1  0  0  0  0
 17 20  1  0  0  0  0
M  END
> <VConfSearch Rank>
705

> <Conf_Id>
63

> <Delta U+W>
0.420

> <U+W>
-35.856

> <U>
22.625

> <W>
-58.481

> <W(PB)>
-60.400

> <W(SA)>
1.919

> <Valence>
2.404

> <Coulomb>
19.464

> <VdW>
0.757

> <VdW6>
-5.074

> <VdW12>
5.830

> <Bond>
0.172

> <Angle>
1.207

> <Pdih>
1.025

> <Idih>
0.000

> <Tether>
0.000

$$$$
VeraChem MOL file


 20 19  0  0  0  0  0  0  0  0999 V2000     
   18.7872   19.1625   21.2438 N   0  3  0  0  0  0  0  0  0  0  0  0
   18.0831   19.6261   21.8236 H   0  0  0  0  0  0  0  0  0  0  0  0
   18.3993   18.2633   20.9481 H   0  0  0  0  0  0  0  0  0  0  0  0
   18.9142   19.7322   20.4031 H   0  0  0  0  0  0  0  0  0  0  0  0
   20.0810   18.9856   21.9915 C   0  0  2  0  0  0  0  0  0  0  0  0
   20.4254   19.9872   22.2658 H   0  0  0  0  0  0  0  0  0  0  0  0
   21.1469   18.3442   21.0882 C   0  0  0  0  0  0  0  0  0  0  0  0
   21.3044   18.9467   20.1852 H   0  0  0  0  0  0  0  0  0  0  0  0
   20.8499   17.3346   20.7779 H   0  0  0  0  0  0  0  0  0  0  0  0
   22.1086   18.2717   21.6112 H   0  0  0  0  0  0  0  0  0  0  0  0
   19.9069   18.1612   23.2872 C   0  0  0  0  0  0  0  0  0  0  0  0
   19.5767   17.1457   23.0313 H   0  0  0  0  0  0  0  0  0  0  0  0
   20.8846   18.0517   23.7750 H   0  0  0  0  0  0  0  0  0  0  0  0
   18.9112   18.7770   24.3028 C   0  0  0  0  0  0  0  0  0  0  0  0
   18.8533   18.1202   25.1822 H   0  0  0  0  0  0  0  0  0  0  0  0
   17.8991   18.7999   23.8766 H   0  0  0  0  0  0  0  0  0  0  0  0
   19.3155   20.1960   24.7635 C   0  0  0  0  0  0  0  0  0  0  0  0
   20.3254   20.1982   25.1939 H   0  0  0  0  0  0  0  0  0  0  0  0
   18.6234   20.5623   25.5328 H   0  0  0  0  0  0  0  0  0  0  0  0
   19.2954   20.9126   23.9328 H   0  0  0  0  0  0  0  0  0  0  0  0
  1  2  1  0  0  0  0
  1  3  1  0  0  0  0
  1  4  1  0  0  0  0
  1  5  1  0  0  0  0
  5  6  1  0  0  0  0
  5  7  1  0  0  0  0
  7  8  1  0  0  0  0
  7  9  1  0  0  0  0
  7 10  1  0  0  0  0
  5 11  1  0  0  0  0
 11 12  1  0  0  0  0
 11 13  1  0  0  0  0
 11 14  1  0  0  0  0
 14 15  1  0  0  0  0
 14 16  1  0  0  0  0
 14 17  1  0  0  0  0
 17 18  1  0  0  0  0
 17 19  1  0  0  0  0
 17 20  1  0  0  0  0
M  END
> <VConfSearch Rank>
706

> <Conf_Id>
50

> <Delta U+W>
0.466

> <U+W>
-35.811

> <U>
22.369

> <W>
-58.180

> <W(PB)>
-60.103

> <W(SA)>
1.923

> <Valence>
2.168

> <Coulomb>
19.636

> <VdW>
0.566

> <VdW6>
-5.263

> <VdW12>
5.829

> <Bond>
0.162

> <Angle>
1.066

> <Pdih>
0.939

> <Idih>
0.000

> <Tether>
0.000

$$$$
VeraChem MOL file


 20 19  0  0  0  0  0  0  0  0999 V2000     
   19.6126   20.3664   24.5384 N   0  3  0  0  0  0  0  0  0  0  0  0
   19.6712   21.2939   24.1091 H   0  0  0  0  0  0  0  0  0  0  0  0
   20.4695   20.2233   25.0789 H   0  0  0  0  0  0  0  0  0  0  0  0
   18.8342   20.3894   25.2027 H   0  0  0  0  0  0  0  0  0  0  0  0
   19.4238   19.2880   23.5059 C   0  0  2  0  0  0  0  0  0  0  0  0
   18.4928   19.5270   22.9825 H   0  0  0  0  0  0  0  0  0  0  0  0
   19.2651   17.9202   24.1958 C   0  0  0  0  0  0  0  0  0  0  0  0
   20.1617   17.6623   24.7731 H   0  0  0  0  0  0  0  0  0  0  0  0
   19.0920   17.1197   23.4684 H   0  0  0  0  0  0  0  0  0  0  0  0
   18.4109   17.9314   24.8839 H   0  0  0  0  0  0  0  0  0  0  0  0
   20.5715   19.2754   22.4663 C   0  0  0  0  0  0  0  0  0  0  0  0
   21.1116   20.2301   22.5158 H   0  0  0  0  0  0  0  0  0  0  0  0
   21.3109   18.5043   22.7205 H   0  0  0  0  0  0  0  0  0  0  0  0
   20.0917   19.0924   21.0041 C   0  0  0  0  0  0  0  0  0  0  0  0
   20.9611   19.1746   20.3368 H   0  0  0  0  0  0  0  0  0  0  0  0
   19.4193   19.9181   20.7320 H   0  0  0  0  0  0  0  0  0  0  0  0
   19.3844   17.7458   20.7347 C   0  0  0  0  0  0  0  0  0  0  0  0
   20.0150   16.8994   21.0366 H   0  0  0  0  0  0  0  0  0  0  0  0
   19.1658   17.6350   19.6647 H   0  0  0  0  0  0  0  0  0  0  0  0
   18.4304   17.6794   21.2723 H   0  0  0  0  0  0  0  0  0  0  0  0
  1  2  1  0  0  0  0
  1  3  1  0  0  0  0
  1  4  1  0  0  0  0
  1  5  1  0  0  0  0
  5  6  1  0  0  0  0
  5  7  1  0  0  0  0
  7  8  1  0  0  0  0
  7  9  1  0  0  0  0
  7 10  1  0  0  0  0
  5 11  1  0  0  0  0
 11 12  1  0  0  0  0
 11 13  1  0  0  0  0
 11 14  1  0  0  0  0
 14 15  1  0  0  0  0
 14 16  1  0  0  0  0
 14 17  1  0  0  0  0
 17 18  1  0  0  0  0
 17 19  1  0  0  0  0
 17 20  1  0  0  0  0
M  END
> <VConfSearch Rank>
707

> <Conf_Id>
3

> <Delta U+W>
3.093

> <U+W>
-33.184

> <U>
25.256

> <W>
-58.439

> <W(PB)>
-60.337

> <W(SA)>
1.898

> <Valence>
4.963

> <Coulomb>
19.511

> <VdW>
0.782

> <VdW6>
-5.429

> <VdW12>
6.211

> <Bond>
0.174

> <Angle>
1.377

> <Pdih>
3.412

> <Idih>
0.000

> <Tether>
0.000

$$$$
VeraChem MOL file


 20 19  0  0  0  0  0  0  0  0999 V2000     
   20.4248   20.9394   21.9646 N   0  3  0  0  0  0  0  0  0  0  0  0
   20.5391   21.1343   20.9664 H   0  0  0  0  0  0  0  0  0  0  0  0
   21.3462   21.0381   22.3994 H   0  0  0  0  0  0  0  0  0  0  0  0
   19.8239   21.6720   22.3505 H   0  0  0  0  0  0  0  0  0  0  0  0
   19.8454   19.5707   22.1959 C   0  0  2  0  0  0  0  0  0  0  0  0
   20.5484   18.8609   21.7498 H   0  0  0  0  0  0  0  0  0  0  0  0
   18.4922   19.4332   21.4746 C   0  0  0  0  0  0  0  0  0  0  0  0
   18.1228   18.4020   21.5154 H   0  0  0  0  0  0  0  0  0  0  0  0
   18.5895   19.7013   20.4155 H   0  0  0  0  0  0  0  0  0  0  0  0
   17.7348   20.0879   21.9232 H   0  0  0  0  0  0  0  0  0  0  0  0
   19.7326   19.2584   23.7072 C   0  0  0  0  0  0  0  0  0  0  0  0
   20.7051   19.4508   24.1792 H   0  0  0  0  0  0  0  0  0  0  0  0
   19.0253   19.9585   24.1712 H   0  0  0  0  0  0  0  0  0  0  0  0
   19.3048   17.8075   24.0463 C   0  0  0  0  0  0  0  0  0  0  0  0
   18.2780   17.6223   23.7035 H   0  0  0  0  0  0  0  0  0  0  0  0
   19.2811   17.6940   25.1392 H   0  0  0  0  0  0  0  0  0  0  0  0
   20.2540   16.7416   23.4529 C   0  0  0  0  0  0  0  0  0  0  0  0
   21.2886   16.9081   23.7800 H   0  0  0  0  0  0  0  0  0  0  0  0
   20.2349   16.7505   22.3558 H   0  0  0  0  0  0  0  0  0  0  0  0
   19.9568   15.7369   23.7805 H   0  0  0  0  0  0  0  0  0  0  0  0
  1  2  1  0  0  0  0
  1  3  1  0  0  0  0
  1  4  1  0  0  0  0
  1  5  1  0  0  0  0
  5  6  1  0  0  0  0
  5  7  1  0  0  0  0
  7  8  1  0  0  0  0
  7  9  1  0  0  0  0
  7 10  1  0  0  0  0
  5 11  1  0  0  0  0
 11 12  1  0  0  0  0
 11 13  1  0  0  0  0
 11 14  1  0  0  0  0
 14 15  1  0  0  0  0
 14 16  1  0  0  0  0
 14 17  1  0  0  0  0
 17 18  1  0  0  0  0
 17 19  1  0  0  0  0
 17 20  1  0  0  0  0
M  END
> <VConfSearch Rank>
708

> <Conf_Id>
64

> <Delta U+W>
0.544

> <U+W>
-35.732

> <U>
22.800

> <W>
-58.532

> <W(PB)>
-60.437

> <W(SA)>
1.905

> <Valence>
2.662

> <Coulomb>
19.485

> <VdW>
0.653

> <VdW6>
-5.460

> <VdW12>
6.113

> <Bond>
0.174

> <Angle>
1.378

> <Pdih>
1.109

> <Idih>
0.000

> <Tether>
0.000

$$$$
VeraChem MOL file


 20 19  0  0  0  0  0  0  0  0999 V2000     
   20.6896   20.8261   22.7990 N   0  3  0  0  0  0  0  0  0  0  0  0
   20.5290   20.7224   21.7946 H   0  0  0  0  0  0  0  0  0  0  0  0
   21.6529   21.1494   22.9226 H   0  0  0  0  0  0  0  0  0  0  0  0
   20.0739   21.5723   23.1332 H   0  0  0  0  0  0  0  0  0  0  0  0
   20.4440   19.5352   23.5325 C   0  0  2  0  0  0  0  0  0  0  0  0
   20.6515   19.7458   24.5863 H   0  0  0  0  0  0  0  0  0  0  0  0
   21.4330   18.4496   23.0777 C   0  0  0  0  0  0  0  0  0  0  0  0
   21.3750   18.2811   21.9961 H   0  0  0  0  0  0  0  0  0  0  0  0
   21.2348   17.5004   23.5907 H   0  0  0  0  0  0  0  0  0  0  0  0
   22.4622   18.7464   23.3137 H   0  0  0  0  0  0  0  0  0  0  0  0
   18.9653   19.0802   23.4458 C   0  0  0  0  0  0  0  0  0  0  0  0
   18.8018   18.2402   24.1336 H   0  0  0  0  0  0  0  0  0  0  0  0
   18.3470   19.8982   23.8383 H   0  0  0  0  0  0  0  0  0  0  0  0
   18.4421   18.7111   22.0297 C   0  0  0  0  0  0  0  0  0  0  0  0
   18.9522   19.3014   21.2573 H   0  0  0  0  0  0  0  0  0  0  0  0
   17.3813   18.9920   21.9687 H   0  0  0  0  0  0  0  0  0  0  0  0
   18.5499   17.2026   21.7048 C   0  0  0  0  0  0  0  0  0  0  0  0
   19.5881   16.8532   21.7017 H   0  0  0  0  0  0  0  0  0  0  0  0
   18.1281   16.9931   20.7132 H   0  0  0  0  0  0  0  0  0  0  0  0
   17.9927   16.6023   22.4357 H   0  0  0  0  0  0  0  0  0  0  0  0
  1  2  1  0  0  0  0
  1  3  1  0  0  0  0
  1  4  1  0  0  0  0
  1  5  1  0  0  0  0
  5  6  1  0  0  0  0
  5  7  1  0  0  0  0
  7  8  1  0  0  0  0
  7  9  1  0  0  0  0
  7 10  1  0  0  0  0
  5 11  1  0  0  0  0
 11 12  1  0  0  0  0
 11 13  1  0  0  0  0
 11 14  1  0  0  0  0
 14 15  1  0  0  0  0
 14 16  1  0  0  0  0
 14 17  1  0  0  0  0
 17 18  1  0  0  0  0
 17 19  1  0  0  0  0
 17 20  1  0  0  0  0
M  END
> <VConfSearch Rank>
709

> <Conf_Id>
35

> <Delta U+W>
3.004

> <U+W>
-33.272

> <U>
25.367

> <W>
-58.639

> <W(PB)>
-60.512

> <W(SA)>
1.873

> <Valence>
4.943

> <Coulomb>
19.661

> <VdW>
0.764

> <VdW6>
-5.871

> <VdW12>
6.636

> <Bond>
0.230

> <Angle>
1.857

> <Pdih>
2.855

> <Idih>
0.000

> <Tether>
0.000

$$$$
VeraChem MOL file


 20 19  0  0  0  0  0  0  0  0999 V2000     
   18.2586   19.8567   22.6814 N   0  3  0  0  0  0  0  0  0  0  0  0
   17.2606   19.6575   22.7906 H   0  0  0  0  0  0  0  0  0  0  0  0
   18.3389   20.7720   22.2304 H   0  0  0  0  0  0  0  0  0  0  0  0
   18.6622   19.9399   23.6164 H   0  0  0  0  0  0  0  0  0  0  0  0
   18.9509   18.7866   21.8827 C   0  0  2  0  0  0  0  0  0  0  0  0
   18.4654   18.7981   20.9018 H   0  0  0  0  0  0  0  0  0  0  0  0
   18.7192   17.3926   22.4922 C   0  0  0  0  0  0  0  0  0  0  0  0
   19.0981   17.3316   23.5193 H   0  0  0  0  0  0  0  0  0  0  0  0
   19.2176   16.6192   21.8947 H   0  0  0  0  0  0  0  0  0  0  0  0
   17.6484   17.1564   22.5152 H   0  0  0  0  0  0  0  0  0  0  0  0
   20.4533   19.0843   21.6426 C   0  0  0  0  0  0  0  0  0  0  0  0
   20.7906   18.4454   20.8158 H   0  0  0  0  0  0  0  0  0  0  0  0
   20.5574   20.1137   21.2755 H   0  0  0  0  0  0  0  0  0  0  0  0
   21.4233   18.8657   22.8375 C   0  0  0  0  0  0  0  0  0  0  0  0
   22.4440   19.0757   22.4885 H   0  0  0  0  0  0  0  0  0  0  0  0
   21.4265   17.8090   23.1373 H   0  0  0  0  0  0  0  0  0  0  0  0
   21.1400   19.7548   24.0697 C   0  0  0  0  0  0  0  0  0  0  0  0
   21.0460   20.8110   23.7857 H   0  0  0  0  0  0  0  0  0  0  0  0
   21.9633   19.6767   24.7917 H   0  0  0  0  0  0  0  0  0  0  0  0
   20.2265   19.4446   24.5899 H   0  0  0  0  0  0  0  0  0  0  0  0
  1  2  1  0  0  0  0
  1  3  1  0  0  0  0
  1  4  1  0  0  0  0
  1  5  1  0  0  0  0
  5  6  1  0  0  0  0
  5  7  1  0  0  0  0
  7  8  1  0  0  0  0
  7  9  1  0  0  0  0
  7 10  1  0  0  0  0
  5 11  1  0  0  0  0
 11 12  1  0  0  0  0
 11 13  1  0  0  0  0
 11 14  1  0  0  0  0
 14 15  1  0  0  0  0
 14 16  1  0  0  0  0
 14 17  1  0  0  0  0
 17 18  1  0  0  0  0
 17 19  1  0  0  0  0
 17 20  1  0  0  0  0
M  END
> <VConfSearch Rank>
710

> <Conf_Id>
55

> <Delta U+W>
2.767

> <U+W>
-33.509

> <U>
24.552

> <W>
-58.061

> <W(PB)>
-59.930

> <W(SA)>
1.869

> <Valence>
3.726

> <Coulomb>
20.219

> <VdW>
0.606

> <VdW6>
-6.395

> <VdW12>
7.001

> <Bond>
0.241

> <Angle>
2.098

> <Pdih>
1.387

> <Idih>
0.000

> <Tether>
0.000

$$$$
VeraChem MOL file


 20 19  0  0  0  0  0  0  0  0999 V2000     
   18.7104   20.5961   23.0696 N   0  3  0  0  0  0  0  0  0  0  0  0
   18.8179   21.0223   22.1458 H   0  0  0  0  0  0  0  0  0  0  0  0
   18.5292   21.3522   23.7353 H   0  0  0  0  0  0  0  0  0  0  0  0
   17.8733   20.0088   23.0419 H   0  0  0  0  0  0  0  0  0  0  0  0
   19.9295   19.8025   23.4559 C   0  0  2  0  0  0  0  0  0  0  0  0
   19.7301   19.3814   24.4463 H   0  0  0  0  0  0  0  0  0  0  0  0
   21.1594   20.7191   23.5616 C   0  0  0  0  0  0  0  0  0  0  0  0
   20.9801   21.5285   24.2799 H   0  0  0  0  0  0  0  0  0  0  0  0
   21.4031   21.1705   22.5918 H   0  0  0  0  0  0  0  0  0  0  0  0
   22.0362   20.1572   23.9067 H   0  0  0  0  0  0  0  0  0  0  0  0
   20.2112   18.6361   22.4832 C   0  0  0  0  0  0  0  0  0  0  0  0
   20.3915   19.0310   21.4746 H   0  0  0  0  0  0  0  0  0  0  0  0
   21.1371   18.1330   22.7923 H   0  0  0  0  0  0  0  0  0  0  0  0
   19.0678   17.5938   22.4401 C   0  0  0  0  0  0  0  0  0  0  0  0
   18.1415   18.0607   22.0791 H   0  0  0  0  0  0  0  0  0  0  0  0
   18.8639   17.2256   23.4556 H   0  0  0  0  0  0  0  0  0  0  0  0
   19.4182   16.4009   21.5249 C   0  0  0  0  0  0  0  0  0  0  0  0
   19.5982   16.7334   20.4942 H   0  0  0  0  0  0  0  0  0  0  0  0
   18.5967   15.6730   21.5051 H   0  0  0  0  0  0  0  0  0  0  0  0
   20.3186   15.8819   21.8787 H   0  0  0  0  0  0  0  0  0  0  0  0
  1  2  1  0  0  0  0
  1  3  1  0  0  0  0
  1  4  1  0  0  0  0
  1  5  1  0  0  0  0
  5  6  1  0  0  0  0
  5  7  1  0  0  0  0
  7  8  1  0  0  0  0
  7  9  1  0  0  0  0
  7 10  1  0  0  0  0
  5 11  1  0  0  0  0
 11 12  1  0  0  0  0
 11 13  1  0  0  0  0
 11 14  1  0  0  0  0
 14 15  1  0  0  0  0
 14 16  1  0  0  0  0
 14 17  1  0  0  0  0
 17 18  1  0  0  0  0
 17 19  1  0  0  0  0
 17 20  1  0  0  0  0
M  END
> <VConfSearch Rank>
711

> <Conf_Id>
74

> <Delta U+W>
0.000

> <U+W>
-36.276

> <U>
22.080

> <W>
-58.356

> <W(PB)>
-60.289

> <W(SA)>
1.932

> <Valence>
1.885

> <Coulomb>
19.559

> <VdW>
0.637

> <VdW6>
-4.482

> <VdW12>
5.119

> <Bond>
0.136

> <Angle>
0.867

> <Pdih>
0.882

> <Idih>
0.000

> <Tether>
0.000

$$$$
VeraChem MOL file


 20 19  0  0  0  0  0  0  0  0999 V2000     
   17.6675   19.4880   21.6634 N   0  3  0  0  0  0  0  0  0  0  0  0
   17.3376   20.2633   22.2447 H   0  0  0  0  0  0  0  0  0  0  0  0
   17.1399   18.6548   21.9357 H   0  0  0  0  0  0  0  0  0  0  0  0
   17.4134   19.7062   20.6962 H   0  0  0  0  0  0  0  0  0  0  0  0
   19.1495   19.2758   21.8090 C   0  0  2  0  0  0  0  0  0  0  0  0
   19.6267   20.2095   21.4953 H   0  0  0  0  0  0  0  0  0  0  0  0
   19.6222   18.1494   20.8716 C   0  0  0  0  0  0  0  0  0  0  0  0
   19.2923   18.3391   19.8428 H   0  0  0  0  0  0  0  0  0  0  0  0
   19.2197   17.1778   21.1838 H   0  0  0  0  0  0  0  0  0  0  0  0
   20.7157   18.0786   20.8523 H   0  0  0  0  0  0  0  0  0  0  0  0
   19.5340   19.0077   23.2827 C   0  0  0  0  0  0  0  0  0  0  0  0
   19.0771   19.7860   23.9080 H   0  0  0  0  0  0  0  0  0  0  0  0
   19.1015   18.0529   23.6099 H   0  0  0  0  0  0  0  0  0  0  0  0
   21.0608   19.0043   23.5401 C   0  0  0  0  0  0  0  0  0  0  0  0
   21.5036   19.9338   23.1553 H   0  0  0  0  0  0  0  0  0  0  0  0
   21.5369   18.1763   22.9982 H   0  0  0  0  0  0  0  0  0  0  0  0
   21.3848   18.8674   25.0434 C   0  0  0  0  0  0  0  0  0  0  0  0
   20.9618   19.7023   25.6172 H   0  0  0  0  0  0  0  0  0  0  0  0
   22.4703   18.8630   25.2072 H   0  0  0  0  0  0  0  0  0  0  0  0
   20.9792   17.9322   25.4511 H   0  0  0  0  0  0  0  0  0  0  0  0
  1  2  1  0  0  0  0
  1  3  1  0  0  0  0
  1  4  1  0  0  0  0
  1  5  1  0  0  0  0
  5  6  1  0  0  0  0
  5  7  1  0  0  0  0
  7  8  1  0  0  0  0
  7  9  1  0  0  0  0
  7 10  1  0  0  0  0
  5 11  1  0  0  0  0
 11 12  1  0  0  0  0
 11 13  1  0  0  0  0
 11 14  1  0  0  0  0
 14 15  1  0  0  0  0
 14 16  1  0  0  0  0
 14 17  1  0  0  0  0
 17 18  1  0  0  0  0
 17 19  1  0  0  0  0
 17 20  1  0  0  0  0
M  END
> <VConfSearch Rank>
712

> <Conf_Id>
80

> <Delta U+W>
0.460

> <U+W>
-35.817

> <U>
22.495

> <W>
-58.311

> <W(PB)>
-60.259

> <W(SA)>
1.948

> <Valence>
2.419

> <Coulomb>
19.304

> <VdW>
0.772

> <VdW6>
-4.635

> <VdW12>
5.407

> <Bond>
0.149

> <Angle>
1.142

> <Pdih>
1.129

> <Idih>
0.000

> <Tether>
0.000

$$$$
VeraChem MOL file


 20 19  0  0  0  0  0  0  0  0999 V2000     
   21.6644   18.6071   24.1570 N   0  3  0  0  0  0  0  0  0  0  0  0
   21.5752   19.1695   25.0076 H   0  0  0  0  0  0  0  0  0  0  0  0
   22.3123   19.0950   23.5334 H   0  0  0  0  0  0  0  0  0  0  0  0
   22.1065   17.7234   24.4240 H   0  0  0  0  0  0  0  0  0  0  0  0
   20.3311   18.3790   23.4989 C   0  0  2  0  0  0  0  0  0  0  0  0
   19.7138   17.8513   24.2326 H   0  0  0  0  0  0  0  0  0  0  0  0
   20.4932   17.4700   22.2686 C   0  0  0  0  0  0  0  0  0  0  0  0
   21.0642   16.5692   22.5249 H   0  0  0  0  0  0  0  0  0  0  0  0
   21.0196   17.9879   21.4573 H   0  0  0  0  0  0  0  0  0  0  0  0
   19.5182   17.1366   21.8955 H   0  0  0  0  0  0  0  0  0  0  0  0
   19.6382   19.7232   23.1666 C   0  0  0  0  0  0  0  0  0  0  0  0
   19.6020   20.3126   24.0923 H   0  0  0  0  0  0  0  0  0  0  0  0
   20.2533   20.3043   22.4668 H   0  0  0  0  0  0  0  0  0  0  0  0
   18.1877   19.5980   22.6298 C   0  0  0  0  0  0  0  0  0  0  0  0
   17.5923   20.4295   23.0325 H   0  0  0  0  0  0  0  0  0  0  0  0
   17.7176   18.6800   23.0096 H   0  0  0  0  0  0  0  0  0  0  0  0
   18.0964   19.6516   21.0865 C   0  0  0  0  0  0  0  0  0  0  0  0
   18.4955   20.5997   20.7030 H   0  0  0  0  0  0  0  0  0  0  0  0
   17.0508   19.5758   20.7609 H   0  0  0  0  0  0  0  0  0  0  0  0
   18.6517   18.8356   20.6108 H   0  0  0  0  0  0  0  0  0  0  0  0
  1  2  1  0  0  0  0
  1  3  1  0  0  0  0
  1  4  1  0  0  0  0
  1  5  1  0  0  0  0
  5  6  1  0  0  0  0
  5  7  1  0  0  0  0
  7  8  1  0  0  0  0
  7  9  1  0  0  0  0
  7 10  1  0  0  0  0
  5 11  1  0  0  0  0
 11 12  1  0  0  0  0
 11 13  1  0  0  0  0
 11 14  1  0  0  0  0
 14 15  1  0  0  0  0
 14 16  1  0  0  0  0
 14 17  1  0  0  0  0
 17 18  1  0  0  0  0
 17 19  1  0  0  0  0
 17 20  1  0  0  0  0
M  END
> <VConfSearch Rank>
713

> <Conf_Id>
52

> <Delta U+W>
2.995

> <U+W>
-33.282

> <U>
25.224

> <W>
-58.506

> <W(PB)>
-60.411

> <W(SA)>
1.905

> <Valence>
4.945

> <Coulomb>
19.467

> <VdW>
0.813

> <VdW6>
-5.458

> <VdW12>
6.270

> <Bond>
0.200

> <Angle>
1.675

> <Pdih>
3.070

> <Idih>
0.000

> <Tether>
0.000

$$$$
VeraChem MOL file


 20 19  0  0  0  0  0  0  0  0999 V2000     
   20.8999   18.0034   23.2865 N   0  3  0  0  0  0  0  0  0  0  0  0
   21.7833   18.4521   23.0320 H   0  0  0  0  0  0  0  0  0  0  0  0
   21.0924   17.0085   23.4306 H   0  0  0  0  0  0  0  0  0  0  0  0
   20.6057   18.3944   24.1840 H   0  0  0  0  0  0  0  0  0  0  0  0
   19.8519   18.2160   22.2283 C   0  0  2  0  0  0  0  0  0  0  0  0
   18.9580   17.6703   22.5459 H   0  0  0  0  0  0  0  0  0  0  0  0
   20.3302   17.6198   20.8935 C   0  0  0  0  0  0  0  0  0  0  0  0
   21.2193   18.1435   20.5206 H   0  0  0  0  0  0  0  0  0  0  0  0
   19.5458   17.6913   20.1298 H   0  0  0  0  0  0  0  0  0  0  0  0
   20.5821   16.5585   21.0098 H   0  0  0  0  0  0  0  0  0  0  0  0
   19.4740   19.7057   22.0491 C   0  0  0  0  0  0  0  0  0  0  0  0
   20.3835   20.3173   21.9822 H   0  0  0  0  0  0  0  0  0  0  0  0
   18.9623   19.8233   21.0845 H   0  0  0  0  0  0  0  0  0  0  0  0
   18.5281   20.2724   23.1402 C   0  0  0  0  0  0  0  0  0  0  0  0
   17.6005   19.6836   23.1682 H   0  0  0  0  0  0  0  0  0  0  0  0
   18.2323   21.2883   22.8425 H   0  0  0  0  0  0  0  0  0  0  0  0
   19.1393   20.3398   24.5584 C   0  0  0  0  0  0  0  0  0  0  0  0
   18.4934   20.9302   25.2215 H   0  0  0  0  0  0  0  0  0  0  0  0
   20.1273   20.8182   24.5454 H   0  0  0  0  0  0  0  0  0  0  0  0
   19.2311   19.3439   25.0068 H   0  0  0  0  0  0  0  0  0  0  0  0
  1  2  1  0  0  0  0
  1  3  1  0  0  0  0
  1  4  1  0  0  0  0
  1  5  1  0  0  0  0
  5  6  1  0  0  0  0
  5  7  1  0  0  0  0
  7  8  1  0  0  0  0
  7  9  1  0  0  0  0
  7 10  1  0  0  0  0
  5 11  1  0  0  0  0
 11 12  1  0  0  0  0
 11 13  1  0  0  0  0
 11 14  1  0  0  0  0
 14 15  1  0  0  0  0
 14 16  1  0  0  0  0
 14 17  1  0  0  0  0
 17 18  1  0  0  0  0
 17 19  1  0  0  0  0
 17 20  1  0  0  0  0
M  END
> <VConfSearch Rank>
714

> <Conf_Id>
54

> <Delta U+W>
2.752

> <U+W>
-33.525

> <U>
24.337

> <W>
-57.862

> <W(PB)>
-59.764

> <W(SA)>
1.901

> <Valence>
3.593

> <Coulomb>
20.067

> <VdW>
0.677

> <VdW6>
-5.466

> <VdW12>
6.144

> <Bond>
0.191

> <Angle>
1.557

> <Pdih>
1.845

> <Idih>
0.000

> <Tether>
0.000

$$$$
VeraChem MOL file


 20 19  0  0  0  0  0  0  0  0999 V2000     
   20.8958   20.1423   23.9462 N   0  3  0  0  0  0  0  0  0  0  0  0
   21.0126   21.0914   24.3111 H   0  0  0  0  0  0  0  0  0  0  0  0
   21.8233   19.7099   23.9222 H   0  0  0  0  0  0  0  0  0  0  0  0
   20.3319   19.6225   24.6224 H   0  0  0  0  0  0  0  0  0  0  0  0
   20.2540   20.1506   22.5854 C   0  0  2  0  0  0  0  0  0  0  0  0
   20.9158   20.7391   21.9422 H   0  0  0  0  0  0  0  0  0  0  0  0
   18.8898   20.8623   22.6218 C   0  0  0  0  0  0  0  0  0  0  0  0
   18.4244   20.8647   21.6284 H   0  0  0  0  0  0  0  0  0  0  0  0
   19.0104   21.9068   22.9342 H   0  0  0  0  0  0  0  0  0  0  0  0
   18.1991   20.3809   23.3241 H   0  0  0  0  0  0  0  0  0  0  0  0
   20.1554   18.7350   21.9677 C   0  0  0  0  0  0  0  0  0  0  0  0
   19.7640   18.8225   20.9455 H   0  0  0  0  0  0  0  0  0  0  0  0
   21.1704   18.3287   21.8675 H   0  0  0  0  0  0  0  0  0  0  0  0
   19.2827   17.7319   22.7656 C   0  0  0  0  0  0  0  0  0  0  0  0
   18.2491   18.0967   22.8323 H   0  0  0  0  0  0  0  0  0  0  0  0
   19.6555   17.6397   23.7945 H   0  0  0  0  0  0  0  0  0  0  0  0
   19.2775   16.3362   22.1058 C   0  0  0  0  0  0  0  0  0  0  0  0
   18.6545   15.6382   22.6801 H   0  0  0  0  0  0  0  0  0  0  0  0
   20.2915   15.9186   22.0558 H   0  0  0  0  0  0  0  0  0  0  0  0
   18.8765   16.3832   21.0850 H   0  0  0  0  0  0  0  0  0  0  0  0
  1  2  1  0  0  0  0
  1  3  1  0  0  0  0
  1  4  1  0  0  0  0
  1  5  1  0  0  0  0
  5  6  1  0  0  0  0
  5  7  1  0  0  0  0
  7  8  1  0  0  0  0
  7  9  1  0  0  0  0
  7 10  1  0  0  0  0
  5 11  1  0  0  0  0
 11 12  1  0  0  0  0
 11 13  1  0  0  0  0
 11 14  1  0  0  0  0
 14 15  1  0  0  0  0
 14 16  1  0  0  0  0
 14 17  1  0  0  0  0
 17 18  1  0  0  0  0
 17 19  1  0  0  0  0
 17 20  1  0  0  0  0
M  END
> <VConfSearch Rank>
715

> <Conf_Id>
63

> <Delta U+W>
0.420

> <U+W>
-35.856

> <U>
22.625

> <W>
-58.481

> <W(PB)>
-60.400

> <W(SA)>
1.919

> <Valence>
2.404

> <Coulomb>
19.464

> <VdW>
0.757

> <VdW6>
-5.074

> <VdW12>
5.830

> <Bond>
0.172

> <Angle>
1.207

> <Pdih>
1.025

> <Idih>
0.000

> <Tether>
0.000

$$$$
VeraChem MOL file


 20 19  0  0  0  0  0  0  0  0999 V2000     
   20.9862   17.9611   23.4013 N   0  3  0  0  0  0  0  0  0  0  0  0
   21.5166   18.8343   23.4569 H   0  0  0  0  0  0  0  0  0  0  0  0
   21.3984   17.3974   22.6538 H   0  0  0  0  0  0  0  0  0  0  0  0
   21.1327   17.4579   24.2804 H   0  0  0  0  0  0  0  0  0  0  0  0
   19.5256   18.2236   23.1523 C   0  0  2  0  0  0  0  0  0  0  0  0
   19.1661   18.8247   23.9928 H   0  0  0  0  0  0  0  0  0  0  0  0
   18.7328   16.9065   23.1326 C   0  0  0  0  0  0  0  0  0  0  0  0
   18.8696   16.3568   24.0719 H   0  0  0  0  0  0  0  0  0  0  0  0
   19.0568   16.2596   22.3078 H   0  0  0  0  0  0  0  0  0  0  0  0
   17.6594   17.0996   23.0138 H   0  0  0  0  0  0  0  0  0  0  0  0
   19.2816   19.0180   21.8490 C   0  0  0  0  0  0  0  0  0  0  0  0
   19.6216   18.4233   20.9908 H   0  0  0  0  0  0  0  0  0  0  0  0
   18.2011   19.1603   21.7145 H   0  0  0  0  0  0  0  0  0  0  0  0
   19.9738   20.4041   21.8111 C   0  0  0  0  0  0  0  0  0  0  0  0
   19.7458   20.8858   20.8499 H   0  0  0  0  0  0  0  0  0  0  0  0
   21.0654   20.2847   21.8370 H   0  0  0  0  0  0  0  0  0  0  0  0
   19.5239   21.3376   22.9581 C   0  0  0  0  0  0  0  0  0  0  0  0
   18.4344   21.4725   22.9526 H   0  0  0  0  0  0  0  0  0  0  0  0
   19.9840   22.3285   22.8503 H   0  0  0  0  0  0  0  0  0  0  0  0
   19.8154   20.9430   23.9395 H   0  0  0  0  0  0  0  0  0  0  0  0
  1  2  1  0  0  0  0
  1  3  1  0  0  0  0
  1  4  1  0  0  0  0
  1  5  1  0  0  0  0
  5  6  1  0  0  0  0
  5  7  1  0  0  0  0
  7  8  1  0  0  0  0
  7  9  1  0  0  0  0
  7 10  1  0  0  0  0
  5 11  1  0  0  0  0
 11 12  1  0  0  0  0
 11 13  1  0  0  0  0
 11 14  1  0  0  0  0
 14 15  1  0  0  0  0
 14 16  1  0  0  0  0
 14 17  1  0  0  0  0
 17 18  1  0  0  0  0
 17 19  1  0  0  0  0
 17 20  1  0  0  0  0
M  END
> <VConfSearch Rank>
716

> <Conf_Id>
50

> <Delta U+W>
0.466

> <U+W>
-35.811

> <U>
22.369

> <W>
-58.180

> <W(PB)>
-60.103

> <W(SA)>
1.923

> <Valence>
2.168

> <Coulomb>
19.636

> <VdW>
0.566

> <VdW6>
-5.263

> <VdW12>
5.829

> <Bond>
0.162

> <Angle>
1.066

> <Pdih>
0.939

> <Idih>
0.000

> <Tether>
0.000

$$$$
VeraChem MOL file


 20 19  0  0  0  0  0  0  0  0999 V2000     
   19.2343   20.4335   21.1025 N   0  3  0  0  0  0  0  0  0  0  0  0
   19.2379   21.3385   21.5810 H   0  0  0  0  0  0  0  0  0  0  0  0
   18.2760   20.2540   20.7921 H   0  0  0  0  0  0  0  0  0  0  0  0
   19.8122   20.5330   20.2635 H   0  0  0  0  0  0  0  0  0  0  0  0
   19.7422   19.3325   21.9938 C   0  0  2  0  0  0  0  0  0  0  0  0
   20.7622   19.6134   22.2739 H   0  0  0  0  0  0  0  0  0  0  0  0
   19.7920   18.0048   21.2148 C   0  0  0  0  0  0  0  0  0  0  0  0
   18.7922   17.7095   20.8729 H   0  0  0  0  0  0  0  0  0  0  0  0
   20.1906   17.1912   21.8303 H   0  0  0  0  0  0  0  0  0  0  0  0
   20.4374   18.0984   20.3329 H   0  0  0  0  0  0  0  0  0  0  0  0
   18.9044   19.2050   23.2899 C   0  0  0  0  0  0  0  0  0  0  0  0
   18.3184   20.1229   23.4308 H   0  0  0  0  0  0  0  0  0  0  0  0
   18.1678   18.3963   23.1927 H   0  0  0  0  0  0  0  0  0  0  0  0
   19.7549   19.0001   24.5692 C   0  0  0  0  0  0  0  0  0  0  0  0
   19.0843   18.9995   25.4399 H   0  0  0  0  0  0  0  0  0  0  0  0
   20.4285   19.8582   24.7038 H   0  0  0  0  0  0  0  0  0  0  0  0
   20.5804   17.6945   24.5772 C   0  0  0  0  0  0  0  0  0  0  0  0
   19.9406   16.8199   24.4020 H   0  0  0  0  0  0  0  0  0  0  0  0
   21.0738   17.5589   25.5484 H   0  0  0  0  0  0  0  0  0  0  0  0
   21.3654   17.7117   23.8109 H   0  0  0  0  0  0  0  0  0  0  0  0
  1  2  1  0  0  0  0
  1  3  1  0  0  0  0
  1  4  1  0  0  0  0
  1  5  1  0  0  0  0
  5  6  1  0  0  0  0
  5  7  1  0  0  0  0
  7  8  1  0  0  0  0
  7  9  1  0  0  0  0
  7 10  1  0  0  0  0
  5 11  1  0  0  0  0
 11 12  1  0  0  0  0
 11 13  1  0  0  0  0
 11 14  1  0  0  0  0
 14 15  1  0  0  0  0
 14 16  1  0  0  0  0
 14 17  1  0  0  0  0
 17 18  1  0  0  0  0
 17 19  1  0  0  0  0
 17 20  1  0  0  0  0
M  END
> <VConfSearch Rank>
717

> <Conf_Id>
3

> <Delta U+W>
3.093

> <U+W>
-33.184

> <U>
25.256

> <W>
-58.439

> <W(PB)>
-60.337

> <W(SA)>
1.898

> <Valence>
4.963

> <Coulomb>
19.511

> <VdW>
0.782

> <VdW6>
-5.429

> <VdW12>
6.211

> <Bond>
0.174

> <Angle>
1.377

> <Pdih>
3.412

> <Idih>
0.000

> <Tether>
0.000

$$$$
VeraChem MOL file


 20 19  0  0  0  0  0  0  0  0999 V2000     
   20.0510   19.8265   24.8307 N   0  3  0  0  0  0  0  0  0  0  0  0
   20.3951   19.2749   25.6212 H   0  0  0  0  0  0  0  0  0  0  0  0
   19.1357   20.1991   25.0976 H   0  0  0  0  0  0  0  0  0  0  0  0
   20.6841   20.6220   24.7167 H   0  0  0  0  0  0  0  0  0  0  0  0
   19.9701   19.0005   23.5763 C   0  0  2  0  0  0  0  0  0  0  0  0
   19.2801   18.1797   23.7938 H   0  0  0  0  0  0  0  0  0  0  0  0
   21.3477   18.4014   23.2398 C   0  0  0  0  0  0  0  0  0  0  0  0
   21.2790   17.6866   22.4117 H   0  0  0  0  0  0  0  0  0  0  0  0
   21.7553   17.8603   24.1025 H   0  0  0  0  0  0  0  0  0  0  0  0
   22.0636   19.1842   22.9599 H   0  0  0  0  0  0  0  0  0  0  0  0
   19.3913   19.8232   22.4004 C   0  0  0  0  0  0  0  0  0  0  0  0
   18.4521   20.2891   22.7264 H   0  0  0  0  0  0  0  0  0  0  0  0
   20.0748   20.6495   22.1639 H   0  0  0  0  0  0  0  0  0  0  0  0
   19.1109   19.0127   21.1091 C   0  0  0  0  0  0  0  0  0  0  0  0
   20.0512   18.6417   20.6796 H   0  0  0  0  0  0  0  0  0  0  0  0
   18.6832   19.6887   20.3554 H   0  0  0  0  0  0  0  0  0  0  0  0
   18.1376   17.8332   21.3335 C   0  0  0  0  0  0  0  0  0  0  0  0
   17.1898   18.1799   21.7655 H   0  0  0  0  0  0  0  0  0  0  0  0
   18.5660   17.0790   22.0055 H   0  0  0  0  0  0  0  0  0  0  0  0
   17.9097   17.3362   20.3815 H   0  0  0  0  0  0  0  0  0  0  0  0
  1  2  1  0  0  0  0
  1  3  1  0  0  0  0
  1  4  1  0  0  0  0
  1  5  1  0  0  0  0
  5  6  1  0  0  0  0
  5  7  1  0  0  0  0
  7  8  1  0  0  0  0
  7  9  1  0  0  0  0
  7 10  1  0  0  0  0
  5 11  1  0  0  0  0
 11 12  1  0  0  0  0
 11 13  1  0  0  0  0
 11 14  1  0  0  0  0
 14 15  1  0  0  0  0
 14 16  1  0  0  0  0
 14 17  1  0  0  0  0
 17 18  1  0  0  0  0
 17 19  1  0  0  0  0
 17 20  1  0  0  0  0
M  END
> <VConfSearch Rank>
718

> <Conf_Id>
64

> <Delta U+W>
0.544

> <U+W>
-35.732

> <U>
22.800

> <W>
-58.532

> <W(PB)>
-60.437

> <W(SA)>
1.905

> <Valence>
2.662

> <Coulomb>
19.485

> <VdW>
0.653

> <VdW6>
-5.460

> <VdW12>
6.113

> <Bond>
0.174

> <Angle>
1.378

> <Pdih>
1.109

> <Idih>
0.000

> <Tether>
0.000

$$$$
VeraChem MOL file


 20 19  0  0  0  0  0  0  0  0999 V2000     
   18.9858   19.7956   24.4472 N   0  3  0  0  0  0  0  0  0  0  0  0
   18.1449   19.4391   23.9877 H   0  0  0  0  0  0  0  0  0  0  0  0
   18.7921   20.7587   24.7345 H   0  0  0  0  0  0  0  0  0  0  0  0
   19.1261   19.2470   25.2998 H   0  0  0  0  0  0  0  0  0  0  0  0
   20.1833   19.7226   23.5385 C   0  0  2  0  0  0  0  0  0  0  0  0
   21.0198   20.1332   24.1125 H   0  0  0  0  0  0  0  0  0  0  0  0
   19.9900   20.6184   22.3040 C   0  0  0  0  0  0  0  0  0  0  0  0
   19.0837   20.3480   21.7497 H   0  0  0  0  0  0  0  0  0  0  0  0
   20.8498   20.5422   21.6272 H   0  0  0  0  0  0  0  0  0  0  0  0
   19.8954   21.6690   22.6045 H   0  0  0  0  0  0  0  0  0  0  0  0
   20.5586   18.2641   23.1740 C   0  0  0  0  0  0  0  0  0  0  0  0
   21.5294   18.2552   22.6612 H   0  0  0  0  0  0  0  0  0  0  0  0
   20.7252   17.7235   24.1150 H   0  0  0  0  0  0  0  0  0  0  0  0
   19.5136   17.4745   22.3376 C   0  0  0  0  0  0  0  0  0  0  0  0
   18.4937   17.8102   22.5667 H   0  0  0  0  0  0  0  0  0  0  0  0
   19.5556   16.4185   22.6393 H   0  0  0  0  0  0  0  0  0  0  0  0
   19.7655   17.5397   20.8128 C   0  0  0  0  0  0  0  0  0  0  0  0
   19.6955   18.5619   20.4253 H   0  0  0  0  0  0  0  0  0  0  0  0
   19.0260   16.9316   20.2758 H   0  0  0  0  0  0  0  0  0  0  0  0
   20.7605   17.1498   20.5618 H   0  0  0  0  0  0  0  0  0  0  0  0
  1  2  1  0  0  0  0
  1  3  1  0  0  0  0
  1  4  1  0  0  0  0
  1  5  1  0  0  0  0
  5  6  1  0  0  0  0
  5  7  1  0  0  0  0
  7  8  1  0  0  0  0
  7  9  1  0  0  0  0
  7 10  1  0  0  0  0
  5 11  1  0  0  0  0
 11 12  1  0  0  0  0
 11 13  1  0  0  0  0
 11 14  1  0  0  0  0
 14 15  1  0  0  0  0
 14 16  1  0  0  0  0
 14 17  1  0  0  0  0
 17 18  1  0  0  0  0
 17 19  1  0  0  0  0
 17 20  1  0  0  0  0
M  END
> <VConfSearch Rank>
719

> <Conf_Id>
35

> <Delta U+W>
3.004

> <U+W>
-33.272

> <U>
25.367

> <W>
-58.639

> <W(PB)>
-60.512

> <W(SA)>
1.873

> <Valence>
4.943

> <Coulomb>
19.661

> <VdW>
0.764

> <VdW6>
-5.871

> <VdW12>
6.636

> <Bond>
0.230

> <Angle>
1.857

> <Pdih>
2.855

> <Idih>
0.000

> <Tether>
0.000

$$$$
VeraChem MOL file


 20 19  0  0  0  0  0  0  0  0999 V2000     
   19.7072   18.1228   24.2635 N   0  3  0  0  0  0  0  0  0  0  0  0
   20.1324   18.1807   25.1927 H   0  0  0  0  0  0  0  0  0  0  0  0
   19.2845   17.1945   24.1792 H   0  0  0  0  0  0  0  0  0  0  0  0
   18.9503   18.8082   24.2257 H   0  0  0  0  0  0  0  0  0  0  0  0
   20.7184   18.3682   23.1774 C   0  0  2  0  0  0  0  0  0  0  0  0
   21.4624   17.5734   23.2901 H   0  0  0  0  0  0  0  0  0  0  0  0
   21.4462   19.7089   23.3802 C   0  0  0  0  0  0  0  0  0  0  0  0
   20.7474   20.5539   23.3742 H   0  0  0  0  0  0  0  0  0  0  0  0
   22.1898   19.8712   22.5902 H   0  0  0  0  0  0  0  0  0  0  0  0
   21.9748   19.7177   24.3412 H   0  0  0  0  0  0  0  0  0  0  0  0
   20.1250   18.2276   21.7521 C   0  0  0  0  0  0  0  0  0  0  0  0
   20.9634   18.1084   21.0533 H   0  0  0  0  0  0  0  0  0  0  0  0
   19.5614   17.2874   21.6929 H   0  0  0  0  0  0  0  0  0  0  0  0
   19.2356   19.3918   21.2321 C   0  0  0  0  0  0  0  0  0  0  0  0
   18.9375   19.1562   20.2008 H   0  0  0  0  0  0  0  0  0  0  0  0
   19.8220   20.3182   21.1645 H   0  0  0  0  0  0  0  0  0  0  0  0
   17.9558   19.6459   22.0605 C   0  0  0  0  0  0  0  0  0  0  0  0
   17.3919   18.7172   22.2175 H   0  0  0  0  0  0  0  0  0  0  0  0
   17.2971   20.3499   21.5354 H   0  0  0  0  0  0  0  0  0  0  0  0
   18.1875   20.0895   23.0356 H   0  0  0  0  0  0  0  0  0  0  0  0
  1  2  1  0  0  0  0
  1  3  1  0  0  0  0
  1  4  1  0  0  0  0
  1  5  1  0  0  0  0
  5  6  1  0  0  0  0
  5  7  1  0  0  0  0
  7  8  1  0  0  0  0
  7  9  1  0  0  0  0
  7 10  1  0  0  0  0
  5 11  1  0  0  0  0
 11 12  1  0  0  0  0
 11 13  1  0  0  0  0
 11 14  1  0  0  0  0
 14 15  1  0  0  0  0
 14 16  1  0  0  0  0
 14 17  1  0  0  0  0
 17 18  1  0  0  0  0
 17 19  1  0  0  0  0
 17 20  1  0  0  0  0
M  END
> <VConfSearch Rank>
720

> <Conf_Id>
55

> <Delta U+W>
2.767

> <U+W>
-33.509

> <U>
24.552

> <W>
-58.061

> <W(PB)>
-59.930

> <W(SA)>
1.869

> <Valence>
3.726

> <Coulomb>
20.219

> <VdW>
0.606

> <VdW6>
-6.395

> <VdW12>
7.001

> <Bond>
0.241

> <Angle>
2.098

> <Pdih>
1.387

> <Idih>
0.000

> <Tether>
0.000

$$$$
VeraChem MOL file


 20 19  0  0  0  0  0  0  0  0999 V2000     
   20.2457   17.4646   23.9076 N   0  3  0  0  0  0  0  0  0  0  0  0
   20.2343   16.7224   23.2036 H   0  0  0  0  0  0  0  0  0  0  0  0
   20.0897   17.0239   24.8181 H   0  0  0  0  0  0  0  0  0  0  0  0
   21.1882   17.8623   23.9201 H   0  0  0  0  0  0  0  0  0  0  0  0
   19.2069   18.5146   23.6187 C   0  0  2  0  0  0  0  0  0  0  0  0
   19.2898   19.2657   24.4105 H   0  0  0  0  0  0  0  0  0  0  0  0
   17.7952   17.9081   23.6770 C   0  0  0  0  0  0  0  0  0  0  0  0
   17.6131   17.4407   24.6525 H   0  0  0  0  0  0  0  0  0  0  0  0
   17.6585   17.1444   22.9012 H   0  0  0  0  0  0  0  0  0  0  0  0
   17.0316   18.6824   23.5322 H   0  0  0  0  0  0  0  0  0  0  0  0
   19.4340   19.2167   22.2617 C   0  0  0  0  0  0  0  0  0  0  0  0
   19.3793   18.4792   21.4500 H   0  0  0  0  0  0  0  0  0  0  0  0
   18.6170   19.9306   22.0912 H   0  0  0  0  0  0  0  0  0  0  0  0
   20.7815   19.9747   22.1899 C   0  0  0  0  0  0  0  0  0  0  0  0
   21.6187   19.2725   22.3015 H   0  0  0  0  0  0  0  0  0  0  0  0
   20.8504   20.6874   23.0239 H   0  0  0  0  0  0  0  0  0  0  0  0
   20.9380   20.7339   20.8548 C   0  0  0  0  0  0  0  0  0  0  0  0
   20.9038   20.0438   20.0017 H   0  0  0  0  0  0  0  0  0  0  0  0
   21.8987   21.2640   20.8205 H   0  0  0  0  0  0  0  0  0  0  0  0
   20.1397   21.4764   20.7260 H   0  0  0  0  0  0  0  0  0  0  0  0
  1  2  1  0  0  0  0
  1  3  1  0  0  0  0
  1  4  1  0  0  0  0
  1  5  1  0  0  0  0
  5  6  1  0  0  0  0
  5  7  1  0  0  0  0
  7  8  1  0  0  0  0
  7  9  1  0  0  0  0
  7 10  1  0  0  0  0
  5 11  1  0  0  0  0
 11 12  1  0  0  0  0
 11 13  1  0  0  0  0
 11 14  1  0  0  0  0
 14 15  1  0  0  0  0
 14 16  1  0  0  0  0
 14 17  1  0  0  0  0
 17 18  1  0  0  0  0
 17 19  1  0  0  0  0
 17 20  1  0  0  0  0
M  END
> <VConfSearch Rank>
721

> <Conf_Id>
74

> <Delta U+W>
0.000

> <U+W>
-36.276

> <U>
22.080

> <W>
-58.356

> <W(PB)>
-60.289

> <W(SA)>
1.932

> <Valence>
1.885

> <Coulomb>
19.559

> <VdW>
0.637

> <VdW6>
-4.482

> <VdW12>
5.119

> <Bond>
0.136

> <Angle>
0.867

> <Pdih>
0.882

> <Idih>
0.000

> <Tether>
0.000

$$$$
VeraChem MOL file


 20 19  0  0  0  0  0  0  0  0999 V2000     
   20.1450   20.6133   24.3734 N   0  3  0  0  0  0  0  0  0  0  0  0
   19.6133   21.4050   24.0012 H   0  0  0  0  0  0  0  0  0  0  0  0
   21.1324   20.7831   24.1666 H   0  0  0  0  0  0  0  0  0  0  0  0
   20.0401   20.6310   25.3914 H   0  0  0  0  0  0  0  0  0  0  0  0
   19.6755   19.3071   23.7939 C   0  0  2  0  0  0  0  0  0  0  0  0
   18.6197   19.2111   24.0659 H   0  0  0  0  0  0  0  0  0  0  0  0
   20.4486   18.1345   24.4250 C   0  0  0  0  0  0  0  0  0  0  0  0
   20.4016   18.1855   25.5197 H   0  0  0  0  0  0  0  0  0  0  0  0
   21.5049   18.1501   24.1291 H   0  0  0  0  0  0  0  0  0  0  0  0
   20.0225   17.1694   24.1280 H   0  0  0  0  0  0  0  0  0  0  0  0
   19.7789   19.3104   22.2509 C   0  0  0  0  0  0  0  0  0  0  0  0
   19.3024   20.2245   21.8728 H   0  0  0  0  0  0  0  0  0  0  0  0
   20.8339   19.3633   21.9511 H   0  0  0  0  0  0  0  0  0  0  0  0
   19.1054   18.0903   21.5764 C   0  0  0  0  0  0  0  0  0  0  0  0
   18.0670   18.0002   21.9252 H   0  0  0  0  0  0  0  0  0  0  0  0
   19.6198   17.1636   21.8639 H   0  0  0  0  0  0  0  0  0  0  0  0
   19.1193   18.2107   20.0372 C   0  0  0  0  0  0  0  0  0  0  0  0
   18.5757   19.1049   19.7051 H   0  0  0  0  0  0  0  0  0  0  0  0
   18.6418   17.3366   19.5756 H   0  0  0  0  0  0  0  0  0  0  0  0
   20.1466   18.2737   19.6553 H   0  0  0  0  0  0  0  0  0  0  0  0
  1  2  1  0  0  0  0
  1  3  1  0  0  0  0
  1  4  1  0  0  0  0
  1  5  1  0  0  0  0
  5  6  1  0  0  0  0
  5  7  1  0  0  0  0
  7  8  1  0  0  0  0
  7  9  1  0  0  0  0
  7 10  1  0  0  0  0
  5 11  1  0  0  0  0
 11 12  1  0  0  0  0
 11 13  1  0  0  0  0
 11 14  1  0  0  0  0
 14 15  1  0  0  0  0
 14 16  1  0  0  0  0
 14 17  1  0  0  0  0
 17 18  1  0  0  0  0
 17 19  1  0  0  0  0
 17 20  1  0  0  0  0
M  END
> <VConfSearch Rank>
722

> <Conf_Id>
80

> <Delta U+W>
0.460

> <U+W>
-35.817

> <U>
22.495

> <W>
-58.311

> <W(PB)>
-60.259

> <W(SA)>
1.948

> <Valence>
2.419

> <Coulomb>
19.304

> <VdW>
0.772

> <VdW6>
-4.635

> <VdW12>
5.407

> <Bond>
0.149

> <Angle>
1.142

> <Pdih>
1.129

> <Idih>
0.000

> <Tether>
0.000

$$$$
VeraChem MOL file


 20 19  0  0  0  0  0  0  0  0999 V2000     
   17.4255   18.8775   22.1402 N   0  3  0  0  0  0  0  0  0  0  0  0
   16.9412   18.0779   22.5571 H   0  0  0  0  0  0  0  0  0  0  0  0
   17.5846   18.6592   21.1535 H   0  0  0  0  0  0  0  0  0  0  0  0
   16.7820   19.6727   22.1758 H   0  0  0  0  0  0  0  0  0  0  0  0
   18.7148   19.1801   22.8536 C   0  0  2  0  0  0  0  0  0  0  0  0
   18.4457   19.4054   23.8902 H   0  0  0  0  0  0  0  0  0  0  0  0
   19.3769   20.4302   22.2492 C   0  0  0  0  0  0  0  0  0  0  0  0
   18.6578   21.2559   22.1830 H   0  0  0  0  0  0  0  0  0  0  0  0
   19.7599   20.2300   21.2409 H   0  0  0  0  0  0  0  0  0  0  0  0
   20.2067   20.7767   22.8757 H   0  0  0  0  0  0  0  0  0  0  0  0
   19.6504   17.9464   22.8578 C   0  0  0  0  0  0  0  0  0  0  0  0
   19.0810   17.1028   23.2699 H   0  0  0  0  0  0  0  0  0  0  0  0
   19.9052   17.6599   21.8288 H   0  0  0  0  0  0  0  0  0  0  0  0
   20.9401   18.1046   23.7059 C   0  0  0  0  0  0  0  0  0  0  0  0
   21.1619   17.1425   24.1889 H   0  0  0  0  0  0  0  0  0  0  0  0
   20.7746   18.8203   24.5234 H   0  0  0  0  0  0  0  0  0  0  0  0
   22.1775   18.5146   22.8729 C   0  0  0  0  0  0  0  0  0  0  0  0
   22.3958   17.7654   22.1007 H   0  0  0  0  0  0  0  0  0  0  0  0
   23.0633   18.5963   23.5160 H   0  0  0  0  0  0  0  0  0  0  0  0
   22.0390   19.4807   22.3750 H   0  0  0  0  0  0  0  0  0  0  0  0
  1  2  1  0  0  0  0
  1  3  1  0  0  0  0
  1  4  1  0  0  0  0
  1  5  1  0  0  0  0
  5  6  1  0  0  0  0
  5  7  1  0  0  0  0
  7  8  1  0  0  0  0
  7  9  1  0  0  0  0
  7 10  1  0  0  0  0
  5 11  1  0  0  0  0
 11 12  1  0  0  0  0
 11 13  1  0  0  0  0
 11 14  1  0  0  0  0
 14 15  1  0  0  0  0
 14 16  1  0  0  0  0
 14 17  1  0  0  0  0
 17 18  1  0  0  0  0
 17 19  1  0  0  0  0
 17 20  1  0  0  0  0
M  END
> <VConfSearch Rank>
723

> <Conf_Id>
52

> <Delta U+W>
2.995

> <U+W>
-33.282

> <U>
25.224

> <W>
-58.506

> <W(PB)>
-60.411

> <W(SA)>
1.905

> <Valence>
4.945

> <Coulomb>
19.467

> <VdW>
0.813

> <VdW6>
-5.458

> <VdW12>
6.270

> <Bond>
0.200

> <Angle>
1.675

> <Pdih>
3.070

> <Idih>
0.000

> <Tether>
0.000

$$$$
VeraChem MOL file


 20 19  0  0  0  0  0  0  0  0999 V2000     
   18.9619   20.4220   22.5763 N   0  3  0  0  0  0  0  0  0  0  0  0
   18.2456   20.4064   23.3064 H   0  0  0  0  0  0  0  0  0  0  0  0
   18.6614   21.0960   21.8671 H   0  0  0  0  0  0  0  0  0  0  0  0
   19.8213   20.7801   22.9985 H   0  0  0  0  0  0  0  0  0  0  0  0
   19.1725   19.0547   21.9852 C   0  0  2  0  0  0  0  0  0  0  0  0
   19.9114   19.1600   21.1848 H   0  0  0  0  0  0  0  0  0  0  0  0
   17.8600   18.5473   21.3641 C   0  0  0  0  0  0  0  0  0  0  0  0
   17.0861   18.4086   22.1295 H   0  0  0  0  0  0  0  0  0  0  0  0
   18.0134   17.5875   20.8553 H   0  0  0  0  0  0  0  0  0  0  0  0
   17.4814   19.2588   20.6200 H   0  0  0  0  0  0  0  0  0  0  0  0
   19.7128   18.0331   23.0141 C   0  0  0  0  0  0  0  0  0  0  0  0
   19.1292   18.0922   23.9423 H   0  0  0  0  0  0  0  0  0  0  0  0
   19.5491   17.0207   22.6212 H   0  0  0  0  0  0  0  0  0  0  0  0
   21.2269   18.1629   23.3258 C   0  0  0  0  0  0  0  0  0  0  0  0
   21.8064   18.0554   22.3981 H   0  0  0  0  0  0  0  0  0  0  0  0
   21.5185   17.3168   23.9640 H   0  0  0  0  0  0  0  0  0  0  0  0
   21.6332   19.4726   24.0390 C   0  0  0  0  0  0  0  0  0  0  0  0
   22.6669   19.4014   24.4020 H   0  0  0  0  0  0  0  0  0  0  0  0
   20.9900   19.6716   24.9062 H   0  0  0  0  0  0  0  0  0  0  0  0
   21.5923   20.3322   23.3601 H   0  0  0  0  0  0  0  0  0  0  0  0
  1  2  1  0  0  0  0
  1  3  1  0  0  0  0
  1  4  1  0  0  0  0
  1  5  1  0  0  0  0
  5  6  1  0  0  0  0
  5  7  1  0  0  0  0
  7  8  1  0  0  0  0
  7  9  1  0  0  0  0
  7 10  1  0  0  0  0
  5 11  1  0  0  0  0
 11 12  1  0  0  0  0
 11 13  1  0  0  0  0
 11 14  1  0  0  0  0
 14 15  1  0  0  0  0
 14 16  1  0  0  0  0
 14 17  1  0  0  0  0
 17 18  1  0  0  0  0
 17 19  1  0  0  0  0
 17 20  1  0  0  0  0
M  END
> <VConfSearch Rank>
724

> <Conf_Id>
54

> <Delta U+W>
2.752

> <U+W>
-33.525

> <U>
24.337

> <W>
-57.862

> <W(PB)>
-59.764

> <W(SA)>
1.901

> <Valence>
3.593

> <Coulomb>
20.067

> <VdW>
0.677

> <VdW6>
-5.466

> <VdW12>
6.144

> <Bond>
0.191

> <Angle>
1.557

> <Pdih>
1.845

> <Idih>
0.000

> <Tether>
0.000

$$$$
VeraChem MOL file


 20 19  0  0  0  0  0  0  0  0999 V2000     
   20.9395   18.3313   21.1221 N   0  3  0  0  0  0  0  0  0  0  0  0
   21.8472   18.4547   20.6655 H   0  0  0  0  0  0  0  0  0  0  0  0
   20.2678   18.0673   20.3963 H   0  0  0  0  0  0  0  0  0  0  0  0
   21.0256   17.5398   21.7637 H   0  0  0  0  0  0  0  0  0  0  0  0
   20.5118   19.5804   21.8438 C   0  0  2  0  0  0  0  0  0  0  0  0
   20.4648   20.3675   21.0846 H   0  0  0  0  0  0  0  0  0  0  0  0
   21.5620   20.0038   22.8862 C   0  0  0  0  0  0  0  0  0  0  0  0
   21.2457   20.9136   23.4113 H   0  0  0  0  0  0  0  0  0  0  0  0
   22.5210   20.2183   22.3991 H   0  0  0  0  0  0  0  0  0  0  0  0
   21.7339   19.2186   23.6318 H   0  0  0  0  0  0  0  0  0  0  0  0
   19.0979   19.4542   22.4604 C   0  0  0  0  0  0  0  0  0  0  0  0
   18.8126   20.4235   22.8903 H   0  0  0  0  0  0  0  0  0  0  0  0
   18.3821   19.2619   21.6504 H   0  0  0  0  0  0  0  0  0  0  0  0
   18.9511   18.3520   23.5411 C   0  0  0  0  0  0  0  0  0  0  0  0
   19.6234   18.5554   24.3853 H   0  0  0  0  0  0  0  0  0  0  0  0
   19.2419   17.3762   23.1296 H   0  0  0  0  0  0  0  0  0  0  0  0
   17.5023   18.2642   24.0672 C   0  0  0  0  0  0  0  0  0  0  0  0
   17.4144   17.4820   24.8323 H   0  0  0  0  0  0  0  0  0  0  0  0
   16.8015   18.0227   23.2574 H   0  0  0  0  0  0  0  0  0  0  0  0
   17.1879   19.2139   24.5194 H   0  0  0  0  0  0  0  0  0  0  0  0
  1  2  1  0  0  0  0
  1  3  1  0  0  0  0
  1  4  1  0  0  0  0
  1  5  1  0  0  0  0
  5  6  1  0  0  0  0
  5  7  1  0  0  0  0
  7  8  1  0  0  0  0
  7  9  1  0  0  0  0
  7 10  1  0  0  0  0
  5 11  1  0  0  0  0
 11 12  1  0  0  0  0
 11 13  1  0  0  0  0
 11 14  1  0  0  0  0
 14 15  1  0  0  0  0
 14 16  1  0  0  0  0
 14 17  1  0  0  0  0
 17 18  1  0  0  0  0
 17 19  1  0  0  0  0
 17 20  1  0  0  0  0
M  END
> <VConfSearch Rank>
725

> <Conf_Id>
63

> <Delta U+W>
0.420

> <U+W>
-35.856

> <U>
22.625

> <W>
-58.481

> <W(PB)>
-60.400

> <W(SA)>
1.919

> <Valence>
2.404

> <Coulomb>
19.464

> <VdW>
0.757

> <VdW6>
-5.074

> <VdW12>
5.830

> <Bond>
0.172

> <Angle>
1.207

> <Pdih>
1.025

> <Idih>
0.000

> <Tether>
0.000

$$$$
VeraChem MOL file


 20 19  0  0  0  0  0  0  0  0999 V2000     
   18.7233   17.5810   22.2489 N   0  3  0  0  0  0  0  0  0  0  0  0
   18.9101   17.2244   23.1896 H   0  0  0  0  0  0  0  0  0  0  0  0
   19.2539   17.0055   21.5904 H   0  0  0  0  0  0  0  0  0  0  0  0
   17.7296   17.4292   22.0562 H   0  0  0  0  0  0  0  0  0  0  0  0
   19.0926   19.0350   22.1320 C   0  0  2  0  0  0  0  0  0  0  0  0
   18.4823   19.5744   22.8625 H   0  0  0  0  0  0  0  0  0  0  0  0
   18.7492   19.5717   20.7328 C   0  0  0  0  0  0  0  0  0  0  0  0
   17.6847   19.4267   20.5117 H   0  0  0  0  0  0  0  0  0  0  0  0
   19.3322   19.0602   19.9567 H   0  0  0  0  0  0  0  0  0  0  0  0
   18.9593   20.6464   20.6653 H   0  0  0  0  0  0  0  0  0  0  0  0
   20.5810   19.2949   22.4577 C   0  0  0  0  0  0  0  0  0  0  0  0
   21.2107   18.7742   21.7242 H   0  0  0  0  0  0  0  0  0  0  0  0
   20.7914   20.3659   22.3367 H   0  0  0  0  0  0  0  0  0  0  0  0
   21.0034   18.8638   23.8851 C   0  0  0  0  0  0  0  0  0  0  0  0
   22.0720   19.0837   24.0180 H   0  0  0  0  0  0  0  0  0  0  0  0
   20.9031   17.7759   23.9989 H   0  0  0  0  0  0  0  0  0  0  0  0
   20.2028   19.5805   24.9964 C   0  0  0  0  0  0  0  0  0  0  0  0
   20.2882   20.6710   24.9032 H   0  0  0  0  0  0  0  0  0  0  0  0
   20.5831   19.2987   25.9869 H   0  0  0  0  0  0  0  0  0  0  0  0
   19.1385   19.3160   24.9636 H   0  0  0  0  0  0  0  0  0  0  0  0
  1  2  1  0  0  0  0
  1  3  1  0  0  0  0
  1  4  1  0  0  0  0
  1  5  1  0  0  0  0
  5  6  1  0  0  0  0
  5  7  1  0  0  0  0
  7  8  1  0  0  0  0
  7  9  1  0  0  0  0
  7 10  1  0  0  0  0
  5 11  1  0  0  0  0
 11 12  1  0  0  0  0
 11 13  1  0  0  0  0
 11 14  1  0  0  0  0
 14 15  1  0  0  0  0
 14 16  1  0  0  0  0
 14 17  1  0  0  0  0
 17 18  1  0  0  0  0
 17 19  1  0  0  0  0
 17 20  1  0  0  0  0
M  END
> <VConfSearch Rank>
726

> <Conf_Id>
50

> <Delta U+W>
0.466

> <U+W>
-35.811

> <U>
22.369

> <W>
-58.180

> <W(PB)>
-60.103

> <W(SA)>
1.923

> <Valence>
2.168

> <Coulomb>
19.636

> <VdW>
0.566

> <VdW6>
-5.263

> <VdW12>
5.829

> <Bond>
0.162

> <Angle>
1.066

> <Pdih>
0.939

> <Idih>
0.000

> <Tether>
0.000

$$$$
VeraChem MOL file


 20 19  0  0  0  0  0  0  0  0999 V2000     
   21.6137   17.6408   23.0467 N   0  3  0  0  0  0  0  0  0  0  0  0
   22.1460   17.7819   22.1838 H   0  0  0  0  0  0  0  0  0  0  0  0
   21.3236   16.6599   23.0718 H   0  0  0  0  0  0  0  0  0  0  0  0
   22.2593   17.7871   23.8274 H   0  0  0  0  0  0  0  0  0  0  0  0
   20.4320   18.5690   23.1280 C   0  0  2  0  0  0  0  0  0  0  0  0
   20.8390   19.5843   23.0909 H   0  0  0  0  0  0  0  0  0  0  0  0
   19.7033   18.3778   24.4713 C   0  0  0  0  0  0  0  0  0  0  0  0
   19.3191   17.3550   24.5704 H   0  0  0  0  0  0  0  0  0  0  0  0
   18.8571   19.0660   24.5721 H   0  0  0  0  0  0  0  0  0  0  0  0
   20.3842   18.5666   25.3103 H   0  0  0  0  0  0  0  0  0  0  0  0
   19.4727   18.3903   21.9255 C   0  0  0  0  0  0  0  0  0  0  0  0
   19.9976   17.8547   21.1234 H   0  0  0  0  0  0  0  0  0  0  0  0
   18.6250   17.7496   22.2029 H   0  0  0  0  0  0  0  0  0  0  0  0
   18.9589   19.7252   21.3288 C   0  0  0  0  0  0  0  0  0  0  0  0
   18.3533   19.5018   20.4393 H   0  0  0  0  0  0  0  0  0  0  0  0
   19.8116   20.3217   20.9752 H   0  0  0  0  0  0  0  0  0  0  0  0
   18.1127   20.5704   22.3065 C   0  0  0  0  0  0  0  0  0  0  0  0
   17.2751   19.9878   22.7115 H   0  0  0  0  0  0  0  0  0  0  0  0
   17.6940   21.4456   21.7929 H   0  0  0  0  0  0  0  0  0  0  0  0
   18.7176   20.9405   23.1436 H   0  0  0  0  0  0  0  0  0  0  0  0
  1  2  1  0  0  0  0
  1  3  1  0  0  0  0
  1  4  1  0  0  0  0
  1  5  1  0  0  0  0
  5  6  1  0  0  0  0
  5  7  1  0  0  0  0
  7  8  1  0  0  0  0
  7  9  1  0  0  0  0
  7 10  1  0  0  0  0
  5 11  1  0  0  0  0
 11 12  1  0  0  0  0
 11 13  1  0  0  0  0
 11 14  1  0  0  0  0
 14 15  1  0  0  0  0
 14 16  1  0  0  0  0
 14 17  1  0  0  0  0
 17 18  1  0  0  0  0
 17 19  1  0  0  0  0
 17 20  1  0  0  0  0
M  END
> <VConfSearch Rank>
727

> <Conf_Id>
3

> <Delta U+W>
3.093

> <U+W>
-33.184

> <U>
25.256

> <W>
-58.439

> <W(PB)>
-60.337

> <W(SA)>
1.898

> <Valence>
4.963

> <Coulomb>
19.511

> <VdW>
0.782

> <VdW6>
-5.429

> <VdW12>
6.211

> <Bond>
0.174

> <Angle>
1.377

> <Pdih>
3.412

> <Idih>
0.000

> <Tether>
0.000

$$$$
VeraChem MOL file


 20 19  0  0  0  0  0  0  0  0999 V2000     
   19.8986   19.4942   20.5627 N   0  3  0  0  0  0  0  0  0  0  0  0
   20.6849   20.0411   20.2017 H   0  0  0  0  0  0  0  0  0  0  0  0
   19.0455   20.0243   20.3651 H   0  0  0  0  0  0  0  0  0  0  0  0
   19.8548   18.6292   20.0181 H   0  0  0  0  0  0  0  0  0  0  0  0
   20.0509   19.2146   22.0327 C   0  0  2  0  0  0  0  0  0  0  0  0
   20.0924   20.1895   22.5275 H   0  0  0  0  0  0  0  0  0  0  0  0
   21.3741   18.4755   22.3030 C   0  0  0  0  0  0  0  0  0  0  0  0
   21.5679   18.3874   23.3783 H   0  0  0  0  0  0  0  0  0  0  0  0
   22.2185   19.0216   21.8649 H   0  0  0  0  0  0  0  0  0  0  0  0
   21.3607   17.4668   21.8721 H   0  0  0  0  0  0  0  0  0  0  0  0
   18.8299   18.4409   22.5850 C   0  0  0  0  0  0  0  0  0  0  0  0
   17.9152   18.9732   22.2927 H   0  0  0  0  0  0  0  0  0  0  0  0
   18.7757   17.4557   22.1032 H   0  0  0  0  0  0  0  0  0  0  0  0
   18.8143   18.2534   24.1237 C   0  0  0  0  0  0  0  0  0  0  0  0
   19.6466   17.6096   24.4383 H   0  0  0  0  0  0  0  0  0  0  0  0
   17.8973   17.7160   24.4034 H   0  0  0  0  0  0  0  0  0  0  0  0
   18.8665   19.5904   24.8975 C   0  0  0  0  0  0  0  0  0  0  0  0
   18.0443   20.2529   24.5974 H   0  0  0  0  0  0  0  0  0  0  0  0
   19.8131   20.1186   24.7266 H   0  0  0  0  0  0  0  0  0  0  0  0
   18.7770   19.4136   25.9772 H   0  0  0  0  0  0  0  0  0  0  0  0
  1  2  1  0  0  0  0
  1  3  1  0  0  0  0
  1  4  1  0  0  0  0
  1  5  1  0  0  0  0
  5  6  1  0  0  0  0
  5  7  1  0  0  0  0
  7  8  1  0  0  0  0
  7  9  1  0  0  0  0
  7 10  1  0  0  0  0
  5 11  1  0  0  0  0
 11 12  1  0  0  0  0
 11 13  1  0  0  0  0
 11 14  1  0  0  0  0
 14 15  1  0  0  0  0
 14 16  1  0  0  0  0
 14 17  1  0  0  0  0
 17 18  1  0  0  0  0
 17 19  1  0  0  0  0
 17 20  1  0  0  0  0
M  END
> <VConfSearch Rank>
728

> <Conf_Id>
64

> <Delta U+W>
0.544

> <U+W>
-35.732

> <U>
22.800

> <W>
-58.532

> <W(PB)>
-60.437

> <W(SA)>
1.905

> <Valence>
2.662

> <Coulomb>
19.485

> <VdW>
0.653

> <VdW6>
-5.460

> <VdW12>
6.113

> <Bond>
0.174

> <Angle>
1.378

> <Pdih>
1.109

> <Idih>
0.000

> <Tether>
0.000

$$$$
VeraChem MOL file


 20 19  0  0  0  0  0  0  0  0999 V2000     
   20.1831   17.1186   21.6705 N   0  3  0  0  0  0  0  0  0  0  0  0
   20.3397   17.8164   20.9399 H   0  0  0  0  0  0  0  0  0  0  0  0
   19.5935   16.3840   21.2702 H   0  0  0  0  0  0  0  0  0  0  0  0
   21.0887   16.6949   21.8899 H   0  0  0  0  0  0  0  0  0  0  0  0
   19.5481   17.7304   22.8900 C   0  0  2  0  0  0  0  0  0  0  0  0
   19.4130   16.9092   23.6009 H   0  0  0  0  0  0  0  0  0  0  0  0
   18.1532   18.2869   22.5609 C   0  0  0  0  0  0  0  0  0  0  0  0
   18.1962   19.0256   21.7520 H   0  0  0  0  0  0  0  0  0  0  0  0
   17.7027   18.7594   23.4425 H   0  0  0  0  0  0  0  0  0  0  0  0
   17.4850   17.4789   22.2388 H   0  0  0  0  0  0  0  0  0  0  0  0
   20.4685   18.7726   23.5738 C   0  0  0  0  0  0  0  0  0  0  0  0
   20.0394   19.0567   24.5437 H   0  0  0  0  0  0  0  0  0  0  0  0
   21.4135   18.2679   23.8140 H   0  0  0  0  0  0  0  0  0  0  0  0
   20.7943   20.0481   22.7479 C   0  0  0  0  0  0  0  0  0  0  0  0
   20.8055   19.8265   21.6727 H   0  0  0  0  0  0  0  0  0  0  0  0
   21.8150   20.3704   22.9973 H   0  0  0  0  0  0  0  0  0  0  0  0
   19.8418   21.2320   23.0375 C   0  0  0  0  0  0  0  0  0  0  0  0
   18.8042   21.0031   22.7710 H   0  0  0  0  0  0  0  0  0  0  0  0
   20.1434   22.1163   22.4612 H   0  0  0  0  0  0  0  0  0  0  0  0
   19.8660   21.5049   24.1005 H   0  0  0  0  0  0  0  0  0  0  0  0
  1  2  1  0  0  0  0
  1  3  1  0  0  0  0
  1  4  1  0  0  0  0
  1  5  1  0  0  0  0
  5  6  1  0  0  0  0
  5  7  1  0  0  0  0
  7  8  1  0  0  0  0
  7  9  1  0  0  0  0
  7 10  1  0  0  0  0
  5 11  1  0  0  0  0
 11 12  1  0  0  0  0
 11 13  1  0  0  0  0
 11 14  1  0  0  0  0
 14 15  1  0  0  0  0
 14 16  1  0  0  0  0
 14 17  1  0  0  0  0
 17 18  1  0  0  0  0
 17 19  1  0  0  0  0
 17 20  1  0  0  0  0
M  END
> <VConfSearch Rank>
729

> <Conf_Id>
35

> <Delta U+W>
3.004

> <U+W>
-33.272

> <U>
25.367

> <W>
-58.639

> <W(PB)>
-60.512

> <W(SA)>
1.873

> <Valence>
4.943

> <Coulomb>
19.661

> <VdW>
0.764

> <VdW6>
-5.871

> <VdW12>
6.636

> <Bond>
0.230

> <Angle>
1.857

> <Pdih>
2.855

> <Idih>
0.000

> <Tether>
0.000

$$$$
VeraChem MOL file


 20 19  0  0  0  0  0  0  0  0999 V2000     
   20.6829   20.3725   22.0365 N   0  3  0  0  0  0  0  0  0  0  0  0
   20.4875   21.3406   21.7678 H   0  0  0  0  0  0  0  0  0  0  0  0
   21.5670   20.1064   21.5948 H   0  0  0  0  0  0  0  0  0  0  0  0
   20.8286   20.3548   23.0477 H   0  0  0  0  0  0  0  0  0  0  0  0
   19.5654   19.4509   21.6312 C   0  0  2  0  0  0  0  0  0  0  0  0
   19.5108   19.5247   20.5406 H   0  0  0  0  0  0  0  0  0  0  0  0
   18.2134   19.9278   22.1908 C   0  0  0  0  0  0  0  0  0  0  0  0
   18.2212   19.9713   23.2864 H   0  0  0  0  0  0  0  0  0  0  0  0
   17.4044   19.2559   21.8785 H   0  0  0  0  0  0  0  0  0  0  0  0
   17.9752   20.9311   21.8171 H   0  0  0  0  0  0  0  0  0  0  0  0
   19.8523   17.9647   21.9660 C   0  0  0  0  0  0  0  0  0  0  0  0
   19.1620   17.3511   21.3724 H   0  0  0  0  0  0  0  0  0  0  0  0
   20.8559   17.7061   21.6037 H   0  0  0  0  0  0  0  0  0  0  0  0
   19.7161   17.5294   23.4522 C   0  0  0  0  0  0  0  0  0  0  0  0
   19.9067   16.4485   23.5078 H   0  0  0  0  0  0  0  0  0  0  0  0
   18.6813   17.6638   23.7952 H   0  0  0  0  0  0  0  0  0  0  0  0
   20.6828   18.2426   24.4247 C   0  0  0  0  0  0  0  0  0  0  0  0
   21.7179   18.1982   24.0615 H   0  0  0  0  0  0  0  0  0  0  0  0
   20.6553   17.7592   25.4100 H   0  0  0  0  0  0  0  0  0  0  0  0
   20.4039   19.2919   24.5741 H   0  0  0  0  0  0  0  0  0  0  0  0
  1  2  1  0  0  0  0
  1  3  1  0  0  0  0
  1  4  1  0  0  0  0
  1  5  1  0  0  0  0
  5  6  1  0  0  0  0
  5  7  1  0  0  0  0
  7  8  1  0  0  0  0
  7  9  1  0  0  0  0
  7 10  1  0  0  0  0
  5 11  1  0  0  0  0
 11 12  1  0  0  0  0
 11 13  1  0  0  0  0
 11 14  1  0  0  0  0
 14 15  1  0  0  0  0
 14 16  1  0  0  0  0
 14 17  1  0  0  0  0
 17 18  1  0  0  0  0
 17 19  1  0  0  0  0
 17 20  1  0  0  0  0
M  END
> <VConfSearch Rank>
730

> <Conf_Id>
55

> <Delta U+W>
2.767

> <U+W>
-33.509

> <U>
24.552

> <W>
-58.061

> <W(PB)>
-59.930

> <W(SA)>
1.869

> <Valence>
3.726

> <Coulomb>
20.219

> <VdW>
0.606

> <VdW6>
-6.395

> <VdW12>
7.001

> <Bond>
0.241

> <Angle>
2.098

> <Pdih>
1.387

> <Idih>
0.000

> <Tether>
0.000

$$$$
VeraChem MOL file


 20 19  0  0  0  0  0  0  0  0999 V2000     
   17.9223   19.5941   23.1112 N   0  3  0  0  0  0  0  0  0  0  0  0
   18.1530   20.5815   23.2470 H   0  0  0  0  0  0  0  0  0  0  0  0
   17.0570   19.4094   23.6258 H   0  0  0  0  0  0  0  0  0  0  0  0
   17.7194   19.4594   22.1176 H   0  0  0  0  0  0  0  0  0  0  0  0
   19.0398   18.6981   23.5733 C   0  0  2  0  0  0  0  0  0  0  0  0
   18.7147   17.6693   23.3899 H   0  0  0  0  0  0  0  0  0  0  0  0
   19.2772   18.8657   25.0831 C   0  0  0  0  0  0  0  0  0  0  0  0
   18.3582   18.6609   25.6460 H   0  0  0  0  0  0  0  0  0  0  0  0
   19.6051   19.8848   25.3232 H   0  0  0  0  0  0  0  0  0  0  0  0
   20.0458   18.1674   25.4370 H   0  0  0  0  0  0  0  0  0  0  0  0
   20.3521   18.9359   22.7938 C   0  0  0  0  0  0  0  0  0  0  0  0
   20.6881   19.9708   22.9423 H   0  0  0  0  0  0  0  0  0  0  0  0
   21.1350   18.2898   23.2129 H   0  0  0  0  0  0  0  0  0  0  0  0
   20.2195   18.6410   21.2802 C   0  0  0  0  0  0  0  0  0  0  0  0
   19.4809   19.3147   20.8253 H   0  0  0  0  0  0  0  0  0  0  0  0
   19.8488   17.6166   21.1336 H   0  0  0  0  0  0  0  0  0  0  0  0
   21.5680   18.8061   20.5471 C   0  0  0  0  0  0  0  0  0  0  0  0
   21.9505   19.8301   20.6496 H   0  0  0  0  0  0  0  0  0  0  0  0
   21.4553   18.5948   19.4758 H   0  0  0  0  0  0  0  0  0  0  0  0
   22.3232   18.1175   20.9480 H   0  0  0  0  0  0  0  0  0  0  0  0
  1  2  1  0  0  0  0
  1  3  1  0  0  0  0
  1  4  1  0  0  0  0
  1  5  1  0  0  0  0
  5  6  1  0  0  0  0
  5  7  1  0  0  0  0
  7  8  1  0  0  0  0
  7  9  1  0  0  0  0
  7 10  1  0  0  0  0
  5 11  1  0  0  0  0
 11 12  1  0  0  0  0
 11 13  1  0  0  0  0
 11 14  1  0  0  0  0
 14 15  1  0  0  0  0
 14 16  1  0  0  0  0
 14 17  1  0  0  0  0
 17 18  1  0  0  0  0
 17 19  1  0  0  0  0
 17 20  1  0  0  0  0
M  END
> <VConfSearch Rank>
731

> <Conf_Id>
74

> <Delta U+W>
0.000

> <U+W>
-36.276

> <U>
22.080

> <W>
-58.356

> <W(PB)>
-60.289

> <W(SA)>
1.932

> <Valence>
1.885

> <Coulomb>
19.559

> <VdW>
0.637

> <VdW6>
-4.482

> <VdW12>
5.119

> <Bond>
0.136

> <Angle>
0.867

> <Pdih>
0.882

> <Idih>
0.000

> <Tether>
0.000

$$$$
VeraChem MOL file


 20 19  0  0  0  0  0  0  0  0999 V2000     
   21.9460   18.0109   22.7381 N   0  3  0  0  0  0  0  0  0  0  0  0
   21.8162   17.1492   22.2009 H   0  0  0  0  0  0  0  0  0  0  0  0
   21.9856   17.7523   23.7272 H   0  0  0  0  0  0  0  0  0  0  0  0
   22.8630   18.3890   22.4856 H   0  0  0  0  0  0  0  0  0  0  0  0
   20.8481   19.0035   22.4699 C   0  0  2  0  0  0  0  0  0  0  0  0
   20.8843   19.2207   21.3978 H   0  0  0  0  0  0  0  0  0  0  0  0
   21.1106   20.3109   23.2398 C   0  0  0  0  0  0  0  0  0  0  0  0
   22.1197   20.6865   23.0305 H   0  0  0  0  0  0  0  0  0  0  0  0
   21.0225   20.1587   24.3226 H   0  0  0  0  0  0  0  0  0  0  0  0
   20.4058   21.0966   22.9444 H   0  0  0  0  0  0  0  0  0  0  0  0
   19.4602   18.4040   22.7951 C   0  0  0  0  0  0  0  0  0  0  0  0
   19.3804   17.4257   22.3029 H   0  0  0  0  0  0  0  0  0  0  0  0
   19.3824   18.2158   23.8742 H   0  0  0  0  0  0  0  0  0  0  0  0
   18.2742   19.2851   22.3323 C   0  0  0  0  0  0  0  0  0  0  0  0
   18.3855   19.5260   21.2657 H   0  0  0  0  0  0  0  0  0  0  0  0
   18.2731   20.2391   22.8761 H   0  0  0  0  0  0  0  0  0  0  0  0
   16.9190   18.5809   22.5589 C   0  0  0  0  0  0  0  0  0  0  0  0
   16.8625   17.6404   21.9955 H   0  0  0  0  0  0  0  0  0  0  0  0
   16.0899   19.2204   22.2290 H   0  0  0  0  0  0  0  0  0  0  0  0
   16.7655   18.3525   23.6216 H   0  0  0  0  0  0  0  0  0  0  0  0
  1  2  1  0  0  0  0
  1  3  1  0  0  0  0
  1  4  1  0  0  0  0
  1  5  1  0  0  0  0
  5  6  1  0  0  0  0
  5  7  1  0  0  0  0
  7  8  1  0  0  0  0
  7  9  1  0  0  0  0
  7 10  1  0  0  0  0
  5 11  1  0  0  0  0
 11 12  1  0  0  0  0
 11 13  1  0  0  0  0
 11 14  1  0  0  0  0
 14 15  1  0  0  0  0
 14 16  1  0  0  0  0
 14 17  1  0  0  0  0
 17 18  1  0  0  0  0
 17 19  1  0  0  0  0
 17 20  1  0  0  0  0
M  END
> <VConfSearch Rank>
732

> <Conf_Id>
80

> <Delta U+W>
0.460

> <U+W>
-35.817

> <U>
22.495

> <W>
-58.311

> <W(PB)>
-60.259

> <W(SA)>
1.948

> <Valence>
2.419

> <Coulomb>
19.304

> <VdW>
0.772

> <VdW6>
-4.635

> <VdW12>
5.407

> <Bond>
0.149

> <Angle>
1.142

> <Pdih>
1.129

> <Idih>
0.000

> <Tether>
0.000

$$$$
VeraChem MOL file


 20 19  0  0  0  0  0  0  0  0999 V2000     
   21.2406   19.0831   20.8519 N   0  3  0  0  0  0  0  0  0  0  0  0
   20.7548   19.4587   20.0329 H   0  0  0  0  0  0  0  0  0  0  0  0
   21.3413   18.0745   20.7127 H   0  0  0  0  0  0  0  0  0  0  0  0
   22.1818   19.4851   20.8556 H   0  0  0  0  0  0  0  0  0  0  0  0
   20.5040   19.3937   22.1261 C   0  0  2  0  0  0  0  0  0  0  0  0
   20.4512   20.4849   22.1911 H   0  0  0  0  0  0  0  0  0  0  0  0
   21.2988   18.8806   23.3391 C   0  0  0  0  0  0  0  0  0  0  0  0
   22.3411   19.2188   23.2906 H   0  0  0  0  0  0  0  0  0  0  0  0
   21.2977   17.7844   23.3811 H   0  0  0  0  0  0  0  0  0  0  0  0
   20.8793   19.2665   24.2751 H   0  0  0  0  0  0  0  0  0  0  0  0
   19.0569   18.8451   22.0794 C   0  0  0  0  0  0  0  0  0  0  0  0
   18.5865   19.2344   21.1668 H   0  0  0  0  0  0  0  0  0  0  0  0
   19.0686   17.7529   21.9661 H   0  0  0  0  0  0  0  0  0  0  0  0
   18.1629   19.2505   23.2811 C   0  0  0  0  0  0  0  0  0  0  0  0
   17.1423   19.4285   22.9140 H   0  0  0  0  0  0  0  0  0  0  0  0
   18.5015   20.2069   23.7038 H   0  0  0  0  0  0  0  0  0  0  0  0
   18.0891   18.1693   24.3850 C   0  0  0  0  0  0  0  0  0  0  0  0
   17.6801   17.2311   23.9880 H   0  0  0  0  0  0  0  0  0  0  0  0
   17.4331   18.4983   25.2014 H   0  0  0  0  0  0  0  0  0  0  0  0
   19.0723   17.9518   24.8170 H   0  0  0  0  0  0  0  0  0  0  0  0
  1  2  1  0  0  0  0
  1  3  1  0  0  0  0
  1  4  1  0  0  0  0
  1  5  1  0  0  0  0
  5  6  1  0  0  0  0
  5  7  1  0  0  0  0
  7  8  1  0  0  0  0
  7  9  1  0  0  0  0
  7 10  1  0  0  0  0
  5 11  1  0  0  0  0
 11 12  1  0  0  0  0
 11 13  1  0  0  0  0
 11 14  1  0  0  0  0
 14 15  1  0  0  0  0
 14 16  1  0  0  0  0
 14 17  1  0  0  0  0
 17 18  1  0  0  0  0
 17 19  1  0  0  0  0
 17 20  1  0  0  0  0
M  END
> <VConfSearch Rank>
733

> <Conf_Id>
52

> <Delta U+W>
2.995

> <U+W>
-33.282

> <U>
25.224

> <W>
-58.506

> <W(PB)>
-60.411

> <W(SA)>
1.905

> <Valence>
4.945

> <Coulomb>
19.467

> <VdW>
0.813

> <VdW6>
-5.458

> <VdW12>
6.270

> <Bond>
0.200

> <Angle>
1.675

> <Pdih>
3.070

> <Idih>
0.000

> <Tether>
0.000

$$$$
VeraChem MOL file


 20 19  0  0  0  0  0  0  0  0999 V2000     
   20.2435   17.6372   23.4481 N   0  3  0  0  0  0  0  0  0  0  0  0
   20.1749   17.8203   24.4522 H   0  0  0  0  0  0  0  0  0  0  0  0
   20.8955   16.8582   23.3229 H   0  0  0  0  0  0  0  0  0  0  0  0
   19.3236   17.3242   23.1307 H   0  0  0  0  0  0  0  0  0  0  0  0
   20.6934   18.8606   22.6970 C   0  0  2  0  0  0  0  0  0  0  0  0
   20.7895   18.5755   21.6448 H   0  0  0  0  0  0  0  0  0  0  0  0
   22.0764   19.3041   23.2032 C   0  0  0  0  0  0  0  0  0  0  0  0
   22.0331   19.6171   24.2539 H   0  0  0  0  0  0  0  0  0  0  0  0
   22.4583   20.1453   22.6114 H   0  0  0  0  0  0  0  0  0  0  0  0
   22.8018   18.4854   23.1199 H   0  0  0  0  0  0  0  0  0  0  0  0
   19.6834   20.0289   22.7937 C   0  0  0  0  0  0  0  0  0  0  0  0
   19.3719   20.1692   23.8371 H   0  0  0  0  0  0  0  0  0  0  0  0
   20.1941   20.9576   22.5060 H   0  0  0  0  0  0  0  0  0  0  0  0
   18.4385   19.8897   21.8785 C   0  0  0  0  0  0  0  0  0  0  0  0
   18.7577   19.7972   20.8308 H   0  0  0  0  0  0  0  0  0  0  0  0
   17.8640   20.8248   21.9379 H   0  0  0  0  0  0  0  0  0  0  0  0
   17.4972   18.7171   22.2364 C   0  0  0  0  0  0  0  0  0  0  0  0
   16.5532   18.8068   21.6832 H   0  0  0  0  0  0  0  0  0  0  0  0
   17.2551   18.7115   23.3072 H   0  0  0  0  0  0  0  0  0  0  0  0
   17.9352   17.7497   21.9648 H   0  0  0  0  0  0  0  0  0  0  0  0
  1  2  1  0  0  0  0
  1  3  1  0  0  0  0
  1  4  1  0  0  0  0
  1  5  1  0  0  0  0
  5  6  1  0  0  0  0
  5  7  1  0  0  0  0
  7  8  1  0  0  0  0
  7  9  1  0  0  0  0
  7 10  1  0  0  0  0
  5 11  1  0  0  0  0
 11 12  1  0  0  0  0
 11 13  1  0  0  0  0
 11 14  1  0  0  0  0
 14 15  1  0  0  0  0
 14 16  1  0  0  0  0
 14 17  1  0  0  0  0
 17 18  1  0  0  0  0
 17 19  1  0  0  0  0
 17 20  1  0  0  0  0
M  END
> <VConfSearch Rank>
734

> <Conf_Id>
54

> <Delta U+W>
2.752

> <U+W>
-33.525

> <U>
24.337

> <W>
-57.862

> <W(PB)>
-59.764

> <W(SA)>
1.901

> <Valence>
3.593

> <Coulomb>
20.067

> <VdW>
0.677

> <VdW6>
-5.466

> <VdW12>
6.144

> <Bond>
0.191

> <Angle>
1.557

> <Pdih>
1.845

> <Idih>
0.000

> <Tether>
0.000

$$$$
VeraChem MOL file


 20 19  0  0  0  0  0  0  0  0999 V2000     
   19.4510   19.2598   24.7172 N   0  3  0  0  0  0  0  0  0  0  0  0
   19.0313   19.8875   25.4082 H   0  0  0  0  0  0  0  0  0  0  0  0
   20.2612   18.8184   25.1604 H   0  0  0  0  0  0  0  0  0  0  0  0
   18.7695   18.5236   24.5198 H   0  0  0  0  0  0  0  0  0  0  0  0
   19.8397   19.9994   23.4659 C   0  0  2  0  0  0  0  0  0  0  0  0
   20.5512   20.7702   23.7785 H   0  0  0  0  0  0  0  0  0  0  0  0
   18.6254   20.7137   22.8459 C   0  0  0  0  0  0  0  0  0  0  0  0
   18.9125   21.2501   21.9331 H   0  0  0  0  0  0  0  0  0  0  0  0
   18.2139   21.4494   23.5477 H   0  0  0  0  0  0  0  0  0  0  0  0
   17.8248   20.0085   22.5931 H   0  0  0  0  0  0  0  0  0  0  0  0
   20.5664   19.0934   22.4431 C   0  0  0  0  0  0  0  0  0  0  0  0
   20.9003   19.7112   21.5991 H   0  0  0  0  0  0  0  0  0  0  0  0
   21.4801   18.7047   22.9116 H   0  0  0  0  0  0  0  0  0  0  0  0
   19.7254   17.9061   21.9069 C   0  0  0  0  0  0  0  0  0  0  0  0
   18.8313   18.2772   21.3884 H   0  0  0  0  0  0  0  0  0  0  0  0
   19.3751   17.2824   22.7403 H   0  0  0  0  0  0  0  0  0  0  0  0
   20.5402   17.0300   20.9312 C   0  0  0  0  0  0  0  0  0  0  0  0
   19.9317   16.1958   20.5586 H   0  0  0  0  0  0  0  0  0  0  0  0
   21.4250   16.6068   21.4244 H   0  0  0  0  0  0  0  0  0  0  0  0
   20.8781   17.6131   20.0646 H   0  0  0  0  0  0  0  0  0  0  0  0
  1  2  1  0  0  0  0
  1  3  1  0  0  0  0
  1  4  1  0  0  0  0
  1  5  1  0  0  0  0
  5  6  1  0  0  0  0
  5  7  1  0  0  0  0
  7  8  1  0  0  0  0
  7  9  1  0  0  0  0
  7 10  1  0  0  0  0
  5 11  1  0  0  0  0
 11 12  1  0  0  0  0
 11 13  1  0  0  0  0
 11 14  1  0  0  0  0
 14 15  1  0  0  0  0
 14 16  1  0  0  0  0
 14 17  1  0  0  0  0
 17 18  1  0  0  0  0
 17 19  1  0  0  0  0
 17 20  1  0  0  0  0
M  END
> <VConfSearch Rank>
735

> <Conf_Id>
63

> <Delta U+W>
0.420

> <U+W>
-35.856

> <U>
22.625

> <W>
-58.481

> <W(PB)>
-60.400

> <W(SA)>
1.919

> <Valence>
2.404

> <Coulomb>
19.464

> <VdW>
0.757

> <VdW6>
-5.074

> <VdW12>
5.830

> <Bond>
0.172

> <Angle>
1.207

> <Pdih>
1.025

> <Idih>
0.000

> <Tether>
0.000

$$$$
VeraChem MOL file


 20 19  0  0  0  0  0  0  0  0999 V2000     
   18.9768   20.3736   21.9274 N   0  3  0  0  0  0  0  0  0  0  0  0
   19.7296   20.9048   22.3723 H   0  0  0  0  0  0  0  0  0  0  0  0
   18.0993   20.6487   22.3753 H   0  0  0  0  0  0  0  0  0  0  0  0
   18.9282   20.6724   20.9497 H   0  0  0  0  0  0  0  0  0  0  0  0
   19.2125   18.8917   22.0407 C   0  0  2  0  0  0  0  0  0  0  0  0
   20.1618   18.6847   21.5377 H   0  0  0  0  0  0  0  0  0  0  0  0
   18.1062   18.1088   21.3150 C   0  0  0  0  0  0  0  0  0  0  0  0
   18.0453   18.4087   20.2616 H   0  0  0  0  0  0  0  0  0  0  0  0
   17.1266   18.2837   21.7772 H   0  0  0  0  0  0  0  0  0  0  0  0
   18.3092   17.0311   21.3425 H   0  0  0  0  0  0  0  0  0  0  0  0
   19.3294   18.4223   23.5087 C   0  0  0  0  0  0  0  0  0  0  0  0
   18.3791   18.6070   24.0270 H   0  0  0  0  0  0  0  0  0  0  0  0
   19.4811   17.3348   23.5250 H   0  0  0  0  0  0  0  0  0  0  0  0
   20.4782   19.0960   24.3013 C   0  0  0  0  0  0  0  0  0  0  0  0
   20.4764   18.7026   25.3275 H   0  0  0  0  0  0  0  0  0  0  0  0
   20.2955   20.1753   24.3919 H   0  0  0  0  0  0  0  0  0  0  0  0
   21.8703   18.8534   23.6746 C   0  0  0  0  0  0  0  0  0  0  0  0
   22.0758   17.7798   23.5738 H   0  0  0  0  0  0  0  0  0  0  0  0
   22.6569   19.2867   24.3059 H   0  0  0  0  0  0  0  0  0  0  0  0
   21.9531   19.3129   22.6816 H   0  0  0  0  0  0  0  0  0  0  0  0
  1  2  1  0  0  0  0
  1  3  1  0  0  0  0
  1  4  1  0  0  0  0
  1  5  1  0  0  0  0
  5  6  1  0  0  0  0
  5  7  1  0  0  0  0
  7  8  1  0  0  0  0
  7  9  1  0  0  0  0
  7 10  1  0  0  0  0
  5 11  1  0  0  0  0
 11 12  1  0  0  0  0
 11 13  1  0  0  0  0
 11 14  1  0  0  0  0
 14 15  1  0  0  0  0
 14 16  1  0  0  0  0
 14 17  1  0  0  0  0
 17 18  1  0  0  0  0
 17 19  1  0  0  0  0
 17 20  1  0  0  0  0
M  END
> <VConfSearch Rank>
736

> <Conf_Id>
50

> <Delta U+W>
0.466

> <U+W>
-35.811

> <U>
22.369

> <W>
-58.180

> <W(PB)>
-60.103

> <W(SA)>
1.923

> <Valence>
2.168

> <Coulomb>
19.636

> <VdW>
0.566

> <VdW6>
-5.263

> <VdW12>
5.829

> <Bond>
0.162

> <Angle>
1.066

> <Pdih>
0.939

> <Idih>
0.000

> <Tether>
0.000

$$$$
VeraChem MOL file


 20 19  0  0  0  0  0  0  0  0999 V2000     
   21.4535   19.3765   24.1780 N   0  3  0  0  0  0  0  0  0  0  0  0
   22.1448   19.8420   23.5836 H   0  0  0  0  0  0  0  0  0  0  0  0
   21.8520   18.4800   24.4685 H   0  0  0  0  0  0  0  0  0  0  0  0
   21.3451   19.9483   25.0201 H   0  0  0  0  0  0  0  0  0  0  0  0
   20.1414   19.1930   23.4643 C   0  0  2  0  0  0  0  0  0  0  0  0
   19.7993   20.1966   23.1930 H   0  0  0  0  0  0  0  0  0  0  0  0
   19.1087   18.5595   24.4151 C   0  0  0  0  0  0  0  0  0  0  0  0
   19.4364   17.5676   24.7504 H   0  0  0  0  0  0  0  0  0  0  0  0
   18.1326   18.4452   23.9313 H   0  0  0  0  0  0  0  0  0  0  0  0
   18.9655   19.1869   25.3033 H   0  0  0  0  0  0  0  0  0  0  0  0
   20.3017   18.3702   22.1622 C   0  0  0  0  0  0  0  0  0  0  0  0
   21.3614   18.3545   21.8751 H   0  0  0  0  0  0  0  0  0  0  0  0
   20.0269   17.3211   22.3351 H   0  0  0  0  0  0  0  0  0  0  0  0
   19.5065   18.9380   20.9593 C   0  0  0  0  0  0  0  0  0  0  0  0
   19.7424   18.3388   20.0686 H   0  0  0  0  0  0  0  0  0  0  0  0
   19.8508   19.9586   20.7402 H   0  0  0  0  0  0  0  0  0  0  0  0
   17.9750   18.9462   21.1610 C   0  0  0  0  0  0  0  0  0  0  0  0
   17.6045   17.9469   21.4239 H   0  0  0  0  0  0  0  0  0  0  0  0
   17.4686   19.2587   20.2385 H   0  0  0  0  0  0  0  0  0  0  0  0
   17.6784   19.6474   21.9509 H   0  0  0  0  0  0  0  0  0  0  0  0
  1  2  1  0  0  0  0
  1  3  1  0  0  0  0
  1  4  1  0  0  0  0
  1  5  1  0  0  0  0
  5  6  1  0  0  0  0
  5  7  1  0  0  0  0
  7  8  1  0  0  0  0
  7  9  1  0  0  0  0
  7 10  1  0  0  0  0
  5 11  1  0  0  0  0
 11 12  1  0  0  0  0
 11 13  1  0  0  0  0
 11 14  1  0  0  0  0
 14 15  1  0  0  0  0
 14 16  1  0  0  0  0
 14 17  1  0  0  0  0
 17 18  1  0  0  0  0
 17 19  1  0  0  0  0
 17 20  1  0  0  0  0
M  END
> <VConfSearch Rank>
737

> <Conf_Id>
3

> <Delta U+W>
3.093

> <U+W>
-33.184

> <U>
25.256

> <W>
-58.439

> <W(PB)>
-60.337

> <W(SA)>
1.898

> <Valence>
4.963

> <Coulomb>
19.511

> <VdW>
0.782

> <VdW6>
-5.429

> <VdW12>
6.211

> <Bond>
0.174

> <Angle>
1.377

> <Pdih>
3.412

> <Idih>
0.000

> <Tether>
0.000

$$$$
VeraChem MOL file


 20 19  0  0  0  0  0  0  0  0999 V2000     
   18.7894   17.0613   23.7078 N   0  3  0  0  0  0  0  0  0  0  0  0
   18.0275   16.5280   23.2803 H   0  0  0  0  0  0  0  0  0  0  0  0
   18.4551   17.3894   24.6179 H   0  0  0  0  0  0  0  0  0  0  0  0
   19.5576   16.4082   23.8809 H   0  0  0  0  0  0  0  0  0  0  0  0
   19.2224   18.2036   22.8303 C   0  0  2  0  0  0  0  0  0  0  0  0
   18.3422   18.8400   22.6991 H   0  0  0  0  0  0  0  0  0  0  0  0
   19.6559   17.6825   21.4480 C   0  0  0  0  0  0  0  0  0  0  0  0
   19.8411   18.5086   20.7517 H   0  0  0  0  0  0  0  0  0  0  0  0
   18.8706   17.0565   21.0070 H   0  0  0  0  0  0  0  0  0  0  0  0
   20.5706   17.0811   21.5193 H   0  0  0  0  0  0  0  0  0  0  0  0
   20.3316   19.0421   23.5092 C   0  0  0  0  0  0  0  0  0  0  0  0
   19.9970   19.3159   24.5185 H   0  0  0  0  0  0  0  0  0  0  0  0
   21.2264   18.4200   23.6437 H   0  0  0  0  0  0  0  0  0  0  0  0
   20.7252   20.3394   22.7574 C   0  0  0  0  0  0  0  0  0  0  0  0
   21.1896   20.0954   21.7926 H   0  0  0  0  0  0  0  0  0  0  0  0
   21.4979   20.8620   23.3385 H   0  0  0  0  0  0  0  0  0  0  0  0
   19.5322   21.2969   22.5358 C   0  0  0  0  0  0  0  0  0  0  0  0
   19.0493   21.5532   23.4878 H   0  0  0  0  0  0  0  0  0  0  0  0
   18.7762   20.8532   21.8757 H   0  0  0  0  0  0  0  0  0  0  0  0
   19.8705   22.2314   22.0697 H   0  0  0  0  0  0  0  0  0  0  0  0
  1  2  1  0  0  0  0
  1  3  1  0  0  0  0
  1  4  1  0  0  0  0
  1  5  1  0  0  0  0
  5  6  1  0  0  0  0
  5  7  1  0  0  0  0
  7  8  1  0  0  0  0
  7  9  1  0  0  0  0
  7 10  1  0  0  0  0
  5 11  1  0  0  0  0
 11 12  1  0  0  0  0
 11 13  1  0  0  0  0
 11 14  1  0  0  0  0
 14 15  1  0  0  0  0
 14 16  1  0  0  0  0
 14 17  1  0  0  0  0
 17 18  1  0  0  0  0
 17 19  1  0  0  0  0
 17 20  1  0  0  0  0
M  END
> <VConfSearch Rank>
738

> <Conf_Id>
64

> <Delta U+W>
0.544

> <U+W>
-35.732

> <U>
22.800

> <W>
-58.532

> <W(PB)>
-60.437

> <W(SA)>
1.905

> <Valence>
2.662

> <Coulomb>
19.485

> <VdW>
0.653

> <VdW6>
-5.460

> <VdW12>
6.113

> <Bond>
0.174

> <Angle>
1.378

> <Pdih>
1.109

> <Idih>
0.000

> <Tether>
0.000

$$$$
VeraChem MOL file


 20 19  0  0  0  0  0  0  0  0999 V2000     
   17.7322   18.4992   22.9663 N   0  3  0  0  0  0  0  0  0  0  0  0
   17.7245   19.5145   22.8464 H   0  0  0  0  0  0  0  0  0  0  0  0
   17.1518   18.2832   23.7812 H   0  0  0  0  0  0  0  0  0  0  0  0
   17.2719   18.0897   22.1489 H   0  0  0  0  0  0  0  0  0  0  0  0
   19.1328   17.9747   23.1337 C   0  0  2  0  0  0  0  0  0  0  0  0
   19.0334   16.8926   23.2649 H   0  0  0  0  0  0  0  0  0  0  0  0
   19.7788   18.5348   24.4115 C   0  0  0  0  0  0  0  0  0  0  0  0
   19.7885   19.6309   24.4092 H   0  0  0  0  0  0  0  0  0  0  0  0
   20.8100   18.1761   24.5179 H   0  0  0  0  0  0  0  0  0  0  0  0
   19.2203   18.2086   25.2973 H   0  0  0  0  0  0  0  0  0  0  0  0
   20.0009   18.1982   21.8698 C   0  0  0  0  0  0  0  0  0  0  0  0
   20.9458   17.6491   21.9752 H   0  0  0  0  0  0  0  0  0  0  0  0
   19.4829   17.7208   21.0276 H   0  0  0  0  0  0  0  0  0  0  0  0
   20.2905   19.6766   21.4880 C   0  0  0  0  0  0  0  0  0  0  0  0
   19.4607   20.3290   21.7898 H   0  0  0  0  0  0  0  0  0  0  0  0
   20.3430   19.7471   20.3925 H   0  0  0  0  0  0  0  0  0  0  0  0
   21.6242   20.2127   22.0596 C   0  0  0  0  0  0  0  0  0  0  0  0
   21.6330   20.2166   23.1550 H   0  0  0  0  0  0  0  0  0  0  0  0
   21.7979   21.2434   21.7243 H   0  0  0  0  0  0  0  0  0  0  0  0
   22.4714   19.6050   21.7162 H   0  0  0  0  0  0  0  0  0  0  0  0
  1  2  1  0  0  0  0
  1  3  1  0  0  0  0
  1  4  1  0  0  0  0
  1  5  1  0  0  0  0
  5  6  1  0  0  0  0
  5  7  1  0  0  0  0
  7  8  1  0  0  0  0
  7  9  1  0  0  0  0
  7 10  1  0  0  0  0
  5 11  1  0  0  0  0
 11 12  1  0  0  0  0
 11 13  1  0  0  0  0
 11 14  1  0  0  0  0
 14 15  1  0  0  0  0
 14 16  1  0  0  0  0
 14 17  1  0  0  0  0
 17 18  1  0  0  0  0
 17 19  1  0  0  0  0
 17 20  1  0  0  0  0
M  END
> <VConfSearch Rank>
739

> <Conf_Id>
35

> <Delta U+W>
3.004

> <U+W>
-33.272

> <U>
25.367

> <W>
-58.639

> <W(PB)>
-60.512

> <W(SA)>
1.873

> <Valence>
4.943

> <Coulomb>
19.661

> <VdW>
0.764

> <VdW6>
-5.871

> <VdW12>
6.636

> <Bond>
0.230

> <Angle>
1.857

> <Pdih>
2.855

> <Idih>
0.000

> <Tether>
0.000

$$$$
VeraChem MOL file


 20 19  0  0  0  0  0  0  0  0999 V2000     
   20.2101   19.5263   21.0539 N   0  3  0  0  0  0  0  0  0  0  0  0
   20.7177   19.1844   20.2335 H   0  0  0  0  0  0  0  0  0  0  0  0
   20.1090   20.5394   20.9491 H   0  0  0  0  0  0  0  0  0  0  0  0
   19.2725   19.1211   21.0295 H   0  0  0  0  0  0  0  0  0  0  0  0
   20.9227   19.1731   22.3306 C   0  0  2  0  0  0  0  0  0  0  0  0
   21.8948   19.6721   22.2668 H   0  0  0  0  0  0  0  0  0  0  0  0
   21.1897   17.6604   22.4247 C   0  0  0  0  0  0  0  0  0  0  0  0
   20.2582   17.0825   22.3987 H   0  0  0  0  0  0  0  0  0  0  0  0
   21.7208   17.4162   23.3529 H   0  0  0  0  0  0  0  0  0  0  0  0
   21.8143   17.3276   21.5868 H   0  0  0  0  0  0  0  0  0  0  0  0
   20.2162   19.7282   23.5940 C   0  0  0  0  0  0  0  0  0  0  0  0
   20.9413   19.7034   24.4181 H   0  0  0  0  0  0  0  0  0  0  0  0
   19.9908   20.7911   23.4371 H   0  0  0  0  0  0  0  0  0  0  0  0
   18.9302   18.9967   24.0711 C   0  0  0  0  0  0  0  0  0  0  0  0
   18.5856   19.4838   24.9940 H   0  0  0  0  0  0  0  0  0  0  0  0
   19.1636   17.9614   24.3543 H   0  0  0  0  0  0  0  0  0  0  0  0
   17.7665   19.0075   23.0539 C   0  0  0  0  0  0  0  0  0  0  0  0
   17.5673   20.0230   22.6874 H   0  0  0  0  0  0  0  0  0  0  0  0
   16.8466   18.6379   23.5253 H   0  0  0  0  0  0  0  0  0  0  0  0
   17.9728   18.3553   22.1975 H   0  0  0  0  0  0  0  0  0  0  0  0
  1  2  1  0  0  0  0
  1  3  1  0  0  0  0
  1  4  1  0  0  0  0
  1  5  1  0  0  0  0
  5  6  1  0  0  0  0
  5  7  1  0  0  0  0
  7  8  1  0  0  0  0
  7  9  1  0  0  0  0
  7 10  1  0  0  0  0
  5 11  1  0  0  0  0
 11 12  1  0  0  0  0
 11 13  1  0  0  0  0
 11 14  1  0  0  0  0
 14 15  1  0  0  0  0
 14 16  1  0  0  0  0
 14 17  1  0  0  0  0
 17 18  1  0  0  0  0
 17 19  1  0  0  0  0
 17 20  1  0  0  0  0
M  END
> <VConfSearch Rank>
740

> <Conf_Id>
55

> <Delta U+W>
2.767

> <U+W>
-33.509

> <U>
24.552

> <W>
-58.061

> <W(PB)>
-59.930

> <W(SA)>
1.869

> <Valence>
3.726

> <Coulomb>
20.219

> <VdW>
0.606

> <VdW6>
-6.395

> <VdW12>
7.001

> <Bond>
0.241

> <Angle>
2.098

> <Pdih>
1.387

> <Idih>
0.000

> <Tether>
0.000

$$$$
VeraChem MOL file


 20 19  0  0  0  0  0  0  0  0999 V2000     
   18.1665   17.9732   22.0634 N   0  3  0  0  0  0  0  0  0  0  0  0
   18.0487   17.3563   22.8708 H   0  0  0  0  0  0  0  0  0  0  0  0
   17.7363   17.5088   21.2591 H   0  0  0  0  0  0  0  0  0  0  0  0
   17.6291   18.8244   22.2456 H   0  0  0  0  0  0  0  0  0  0  0  0
   19.6181   18.2799   21.8109 C   0  0  2  0  0  0  0  0  0  0  0  0
   19.6532   18.9427   20.9406 H   0  0  0  0  0  0  0  0  0  0  0  0
   20.3899   16.9949   21.4682 C   0  0  0  0  0  0  0  0  0  0  0  0
   19.9432   16.4930   20.6012 H   0  0  0  0  0  0  0  0  0  0  0  0
   20.3847   16.2917   22.3104 H   0  0  0  0  0  0  0  0  0  0  0  0
   21.4340   17.2216   21.2191 H   0  0  0  0  0  0  0  0  0  0  0  0
   20.2865   19.0070   22.9986 C   0  0  0  0  0  0  0  0  0  0  0  0
   20.2435   18.3712   23.8930 H   0  0  0  0  0  0  0  0  0  0  0  0
   21.3506   19.1541   22.7703 H   0  0  0  0  0  0  0  0  0  0  0  0
   19.6471   20.3831   23.3038 C   0  0  0  0  0  0  0  0  0  0  0  0
   18.5943   20.2575   23.5905 H   0  0  0  0  0  0  0  0  0  0  0  0
   19.6583   21.0056   22.3979 H   0  0  0  0  0  0  0  0  0  0  0  0
   20.3920   21.1186   24.4384 C   0  0  0  0  0  0  0  0  0  0  0  0
   20.3721   20.5342   25.3676 H   0  0  0  0  0  0  0  0  0  0  0  0
   19.9248   22.0908   24.6424 H   0  0  0  0  0  0  0  0  0  0  0  0
   21.4412   21.2993   24.1709 H   0  0  0  0  0  0  0  0  0  0  0  0
  1  2  1  0  0  0  0
  1  3  1  0  0  0  0
  1  4  1  0  0  0  0
  1  5  1  0  0  0  0
  5  6  1  0  0  0  0
  5  7  1  0  0  0  0
  7  8  1  0  0  0  0
  7  9  1  0  0  0  0
  7 10  1  0  0  0  0
  5 11  1  0  0  0  0
 11 12  1  0  0  0  0
 11 13  1  0  0  0  0
 11 14  1  0  0  0  0
 14 15  1  0  0  0  0
 14 16  1  0  0  0  0
 14 17  1  0  0  0  0
 17 18  1  0  0  0  0
 17 19  1  0  0  0  0
 17 20  1  0  0  0  0
M  END
> <VConfSearch Rank>
741

> <Conf_Id>
74

> <Delta U+W>
0.000

> <U+W>
-36.276

> <U>
22.080

> <W>
-58.356

> <W(PB)>
-60.289

> <W(SA)>
1.932

> <Valence>
1.885

> <Coulomb>
19.559

> <VdW>
0.637

> <VdW6>
-4.482

> <VdW12>
5.119

> <Bond>
0.136

> <Angle>
0.867

> <Pdih>
0.882

> <Idih>
0.000

> <Tether>
0.000

$$$$
VeraChem MOL file


 20 19  0  0  0  0  0  0  0  0999 V2000     
   18.6833   17.3730   24.1927 N   0  3  0  0  0  0  0  0  0  0  0  0
   19.3651   17.3093   24.9536 H   0  0  0  0  0  0  0  0  0  0  0  0
   18.7900   16.5354   23.6149 H   0  0  0  0  0  0  0  0  0  0  0  0
   17.7527   17.3331   24.6170 H   0  0  0  0  0  0  0  0  0  0  0  0
   18.8672   18.6286   23.3853 C   0  0  2  0  0  0  0  0  0  0  0  0
   18.7335   19.4639   24.0798 H   0  0  0  0  0  0  0  0  0  0  0  0
   17.7848   18.7253   22.2945 C   0  0  0  0  0  0  0  0  0  0  0  0
   16.7850   18.6120   22.7313 H   0  0  0  0  0  0  0  0  0  0  0  0
   17.9147   17.9437   21.5357 H   0  0  0  0  0  0  0  0  0  0  0  0
   17.8095   19.6994   21.7927 H   0  0  0  0  0  0  0  0  0  0  0  0
   20.2955   18.7120   22.7983 C   0  0  0  0  0  0  0  0  0  0  0  0
   21.0148   18.5285   23.6074 H   0  0  0  0  0  0  0  0  0  0  0  0
   20.4414   17.9078   22.0649 H   0  0  0  0  0  0  0  0  0  0  0  0
   20.6257   20.0776   22.1478 C   0  0  0  0  0  0  0  0  0  0  0  0
   20.4195   20.8877   22.8614 H   0  0  0  0  0  0  0  0  0  0  0  0
   19.9815   20.2499   21.2752 H   0  0  0  0  0  0  0  0  0  0  0  0
   22.1014   20.1535   21.7002 C   0  0  0  0  0  0  0  0  0  0  0  0
   22.7808   20.0290   22.5535 H   0  0  0  0  0  0  0  0  0  0  0  0
   22.3169   21.1258   21.2384 H   0  0  0  0  0  0  0  0  0  0  0  0
   22.3312   19.3727   20.9635 H   0  0  0  0  0  0  0  0  0  0  0  0
  1  2  1  0  0  0  0
  1  3  1  0  0  0  0
  1  4  1  0  0  0  0
  1  5  1  0  0  0  0
  5  6  1  0  0  0  0
  5  7  1  0  0  0  0
  7  8  1  0  0  0  0
  7  9  1  0  0  0  0
  7 10  1  0  0  0  0
  5 11  1  0  0  0  0
 11 12  1  0  0  0  0
 11 13  1  0  0  0  0
 11 14  1  0  0  0  0
 14 15  1  0  0  0  0
 14 16  1  0  0  0  0
 14 17  1  0  0  0  0
 17 18  1  0  0  0  0
 17 19  1  0  0  0  0
 17 20  1  0  0  0  0
M  END
> <VConfSearch Rank>
742

> <Conf_Id>
80

> <Delta U+W>
0.460

> <U+W>
-35.817

> <U>
22.495

> <W>
-58.311

> <W(PB)>
-60.259

> <W(SA)>
1.948

> <Valence>
2.419

> <Coulomb>
19.304

> <VdW>
0.772

> <VdW6>
-4.635

> <VdW12>
5.407

> <Bond>
0.149

> <Angle>
1.142

> <Pdih>
1.129

> <Idih>
0.000

> <Tether>
0.000

$$$$
VeraChem MOL file


 20 19  0  0  0  0  0  0  0  0999 V2000     
   18.5716   20.7120   23.7435 N   0  3  0  0  0  0  0  0  0  0  0  0
   18.8827   20.8644   24.7068 H   0  0  0  0  0  0  0  0  0  0  0  0
   17.6738   20.2233   23.7851 H   0  0  0  0  0  0  0  0  0  0  0  0
   18.3977   21.6333   23.3328 H   0  0  0  0  0  0  0  0  0  0  0  0
   19.5859   19.9369   22.9478 C   0  0  2  0  0  0  0  0  0  0  0  0
   20.5022   20.5352   22.9540 H   0  0  0  0  0  0  0  0  0  0  0  0
   19.1198   19.7916   21.4890 C   0  0  0  0  0  0  0  0  0  0  0  0
   18.8264   20.7650   21.0773 H   0  0  0  0  0  0  0  0  0  0  0  0
   18.2597   19.1152   21.4112 H   0  0  0  0  0  0  0  0  0  0  0  0
   19.9266   19.4053   20.8558 H   0  0  0  0  0  0  0  0  0  0  0  0
   19.8963   18.5763   23.6184 C   0  0  0  0  0  0  0  0  0  0  0  0
   20.1824   18.7797   24.6588 H   0  0  0  0  0  0  0  0  0  0  0  0
   18.9864   17.9641   23.6736 H   0  0  0  0  0  0  0  0  0  0  0  0
   21.0473   17.7691   22.9616 C   0  0  0  0  0  0  0  0  0  0  0  0
   21.6169   17.2633   23.7540 H   0  0  0  0  0  0  0  0  0  0  0  0
   21.7568   18.4479   22.4679 H   0  0  0  0  0  0  0  0  0  0  0  0
   20.5534   16.6905   21.9688 C   0  0  0  0  0  0  0  0  0  0  0  0
   19.9031   15.9631   22.4719 H   0  0  0  0  0  0  0  0  0  0  0  0
   21.4035   16.1393   21.5464 H   0  0  0  0  0  0  0  0  0  0  0  0
   19.9913   17.1235   21.1338 H   0  0  0  0  0  0  0  0  0  0  0  0
  1  2  1  0  0  0  0
  1  3  1  0  0  0  0
  1  4  1  0  0  0  0
  1  5  1  0  0  0  0
  5  6  1  0  0  0  0
  5  7  1  0  0  0  0
  7  8  1  0  0  0  0
  7  9  1  0  0  0  0
  7 10  1  0  0  0  0
  5 11  1  0  0  0  0
 11 12  1  0  0  0  0
 11 13  1  0  0  0  0
 11 14  1  0  0  0  0
 14 15  1  0  0  0  0
 14 16  1  0  0  0  0
 14 17  1  0  0  0  0
 17 18  1  0  0  0  0
 17 19  1  0  0  0  0
 17 20  1  0  0  0  0
M  END
> <VConfSearch Rank>
743

> <Conf_Id>
52

> <Delta U+W>
2.995

> <U+W>
-33.282

> <U>
25.224

> <W>
-58.506

> <W(PB)>
-60.411

> <W(SA)>
1.905

> <Valence>
4.945

> <Coulomb>
19.467

> <VdW>
0.813

> <VdW6>
-5.458

> <VdW12>
6.270

> <Bond>
0.200

> <Angle>
1.675

> <Pdih>
3.070

> <Idih>
0.000

> <Tether>
0.000

$$$$
VeraChem MOL file


 20 19  0  0  0  0  0  0  0  0999 V2000     
   18.3633   18.2894   23.1680 N   0  3  0  0  0  0  0  0  0  0  0  0
   17.9625   18.8965   23.8871 H   0  0  0  0  0  0  0  0  0  0  0  0
   17.9407   17.3637   23.2787 H   0  0  0  0  0  0  0  0  0  0  0  0
   18.0704   18.6562   22.2600 H   0  0  0  0  0  0  0  0  0  0  0  0
   19.8627   18.2286   23.2747 C   0  0  2  0  0  0  0  0  0  0  0  0
   20.2120   17.5277   22.5102 H   0  0  0  0  0  0  0  0  0  0  0  0
   20.2655   17.6770   24.6528 C   0  0  0  0  0  0  0  0  0  0  0  0
   19.9516   18.3527   25.4583 H   0  0  0  0  0  0  0  0  0  0  0  0
   21.3529   17.5473   24.7196 H   0  0  0  0  0  0  0  0  0  0  0  0
   19.8047   16.6973   24.8293 H   0  0  0  0  0  0  0  0  0  0  0  0
   20.5378   19.5980   23.0235 C   0  0  0  0  0  0  0  0  0  0  0  0
   20.0266   20.3792   23.6014 H   0  0  0  0  0  0  0  0  0  0  0  0
   21.5636   19.5594   23.4139 H   0  0  0  0  0  0  0  0  0  0  0  0
   20.6321   20.0126   21.5315 C   0  0  0  0  0  0  0  0  0  0  0  0
   21.1863   19.2480   20.9691 H   0  0  0  0  0  0  0  0  0  0  0  0
   21.2346   20.9297   21.4687 H   0  0  0  0  0  0  0  0  0  0  0  0
   19.2733   20.2753   20.8433 C   0  0  0  0  0  0  0  0  0  0  0  0
   19.4291   20.7531   19.8673 H   0  0  0  0  0  0  0  0  0  0  0  0
   18.6440   20.9452   21.4439 H   0  0  0  0  0  0  0  0  0  0  0  0
   18.7268   19.3434   20.6584 H   0  0  0  0  0  0  0  0  0  0  0  0
  1  2  1  0  0  0  0
  1  3  1  0  0  0  0
  1  4  1  0  0  0  0
  1  5  1  0  0  0  0
  5  6  1  0  0  0  0
  5  7  1  0  0  0  0
  7  8  1  0  0  0  0
  7  9  1  0  0  0  0
  7 10  1  0  0  0  0
  5 11  1  0  0  0  0
 11 12  1  0  0  0  0
 11 13  1  0  0  0  0
 11 14  1  0  0  0  0
 14 15  1  0  0  0  0
 14 16  1  0  0  0  0
 14 17  1  0  0  0  0
 17 18  1  0  0  0  0
 17 19  1  0  0  0  0
 17 20  1  0  0  0  0
M  END
> <VConfSearch Rank>
744

> <Conf_Id>
54

> <Delta U+W>
2.752

> <U+W>
-33.525

> <U>
24.337

> <W>
-57.862

> <W(PB)>
-59.764

> <W(SA)>
1.901

> <Valence>
3.593

> <Coulomb>
20.067

> <VdW>
0.677

> <VdW6>
-5.466

> <VdW12>
6.144

> <Bond>
0.191

> <Angle>
1.557

> <Pdih>
1.845

> <Idih>
0.000

> <Tether>
0.000

$$$$
VeraChem MOL file


 20 19  0  0  0  0  0  0  0  0999 V2000     
   19.2085   19.8380   24.4823 N   0  3  0  0  0  0  0  0  0  0  0  0
   19.0980   19.6798   25.4875 H   0  0  0  0  0  0  0  0  0  0  0  0
   18.5213   20.5455   24.2089 H   0  0  0  0  0  0  0  0  0  0  0  0
   20.1376   20.2394   24.3368 H   0  0  0  0  0  0  0  0  0  0  0  0
   19.0313   18.5639   23.7017 C   0  0  2  0  0  0  0  0  0  0  0  0
   18.0237   18.2046   23.9336 H   0  0  0  0  0  0  0  0  0  0  0  0
   20.0264   17.4865   24.1684 C   0  0  0  0  0  0  0  0  0  0  0  0
   19.8952   16.5600   23.5958 H   0  0  0  0  0  0  0  0  0  0  0  0
   19.8650   17.2481   25.2268 H   0  0  0  0  0  0  0  0  0  0  0  0
   21.0657   17.8169   24.0548 H   0  0  0  0  0  0  0  0  0  0  0  0
   19.0954   18.7919   22.1724 C   0  0  0  0  0  0  0  0  0  0  0  0
   18.8698   17.8448   21.6647 H   0  0  0  0  0  0  0  0  0  0  0  0
   18.2906   19.4835   21.8906 H   0  0  0  0  0  0  0  0  0  0  0  0
   20.4466   19.3438   21.6489 C   0  0  0  0  0  0  0  0  0  0  0  0
   21.2583   18.6399   21.8759 H   0  0  0  0  0  0  0  0  0  0  0  0
   20.6921   20.2876   22.1541 H   0  0  0  0  0  0  0  0  0  0  0  0
   20.4074   19.5850   20.1245 C   0  0  0  0  0  0  0  0  0  0  0  0
   21.3705   19.9732   19.7685 H   0  0  0  0  0  0  0  0  0  0  0  0
   19.6318   20.3154   19.8595 H   0  0  0  0  0  0  0  0  0  0  0  0
   20.1990   18.6534   19.5823 H   0  0  0  0  0  0  0  0  0  0  0  0
  1  2  1  0  0  0  0
  1  3  1  0  0  0  0
  1  4  1  0  0  0  0
  1  5  1  0  0  0  0
  5  6  1  0  0  0  0
  5  7  1  0  0  0  0
  7  8  1  0  0  0  0
  7  9  1  0  0  0  0
  7 10  1  0  0  0  0
  5 11  1  0  0  0  0
 11 12  1  0  0  0  0
 11 13  1  0  0  0  0
 11 14  1  0  0  0  0
 14 15  1  0  0  0  0
 14 16  1  0  0  0  0
 14 17  1  0  0  0  0
 17 18  1  0  0  0  0
 17 19  1  0  0  0  0
 17 20  1  0  0  0  0
M  END
> <VConfSearch Rank>
745

> <Conf_Id>
63

> <Delta U+W>
0.420

> <U+W>
-35.856

> <U>
22.625

> <W>
-58.481

> <W(PB)>
-60.400

> <W(SA)>
1.919

> <Valence>
2.404

> <Coulomb>
19.464

> <VdW>
0.757

> <VdW6>
-5.074

> <VdW12>
5.830

> <Bond>
0.172

> <Angle>
1.207

> <Pdih>
1.025

> <Idih>
0.000

> <Tether>
0.000

$$$$
VeraChem MOL file


 20 19  0  0  0  0  0  0  0  0999 V2000     
   19.1215   20.5749   22.2352 N   0  3  0  0  0  0  0  0  0  0  0  0
   20.0350   20.9022   22.5597 H   0  0  0  0  0  0  0  0  0  0  0  0
   18.4170   20.9356   22.8832 H   0  0  0  0  0  0  0  0  0  0  0  0
   18.9482   21.0068   21.3236 H   0  0  0  0  0  0  0  0  0  0  0  0
   19.0766   19.0731   22.1521 C   0  0  2  0  0  0  0  0  0  0  0  0
   19.8532   18.7739   21.4417 H   0  0  0  0  0  0  0  0  0  0  0  0
   17.7201   18.5998   21.6049 C   0  0  0  0  0  0  0  0  0  0  0  0
   17.5209   19.0450   20.6224 H   0  0  0  0  0  0  0  0  0  0  0  0
   16.9004   18.8785   22.2789 H   0  0  0  0  0  0  0  0  0  0  0  0
   17.7075   17.5094   21.4844 H   0  0  0  0  0  0  0  0  0  0  0  0
   19.3749   18.3969   23.5095 C   0  0  0  0  0  0  0  0  0  0  0  0
   18.5959   18.6724   24.2327 H   0  0  0  0  0  0  0  0  0  0  0  0
   19.3088   17.3075   23.3880 H   0  0  0  0  0  0  0  0  0  0  0  0
   20.7634   18.7472   24.1021 C   0  0  0  0  0  0  0  0  0  0  0  0
   20.8787   18.2253   25.0625 H   0  0  0  0  0  0  0  0  0  0  0  0
   20.8183   19.8197   24.3334 H   0  0  0  0  0  0  0  0  0  0  0  0
   21.9352   18.3530   23.1743 C   0  0  0  0  0  0  0  0  0  0  0  0
   21.9015   17.2835   22.9289 H   0  0  0  0  0  0  0  0  0  0  0  0
   22.8972   18.5536   23.6635 H   0  0  0  0  0  0  0  0  0  0  0  0
   21.9172   18.9208   22.2355 H   0  0  0  0  0  0  0  0  0  0  0  0
  1  2  1  0  0  0  0
  1  3  1  0  0  0  0
  1  4  1  0  0  0  0
  1  5  1  0  0  0  0
  5  6  1  0  0  0  0
  5  7  1  0  0  0  0
  7  8  1  0  0  0  0
  7  9  1  0  0  0  0
  7 10  1  0  0  0  0
  5 11  1  0  0  0  0
 11 12  1  0  0  0  0
 11 13  1  0  0  0  0
 11 14  1  0  0  0  0
 14 15  1  0  0  0  0
 14 16  1  0  0  0  0
 14 17  1  0  0  0  0
 17 18  1  0  0  0  0
 17 19  1  0  0  0  0
 17 20  1  0  0  0  0
M  END
> <VConfSearch Rank>
746

> <Conf_Id>
50

> <Delta U+W>
0.466

> <U+W>
-35.811

> <U>
22.369

> <W>
-58.180

> <W(PB)>
-60.103

> <W(SA)>
1.923

> <Valence>
2.168

> <Coulomb>
19.636

> <VdW>
0.566

> <VdW6>
-5.263

> <VdW12>
5.829

> <Bond>
0.162

> <Angle>
1.066

> <Pdih>
0.939

> <Idih>
0.000

> <Tether>
0.000

$$$$
VeraChem MOL file


 20 19  0  0  0  0  0  0  0  0999 V2000     
   21.5834   19.2918   24.0294 N   0  3  0  0  0  0  0  0  0  0  0  0
   21.3295   18.9898   24.9740 H   0  0  0  0  0  0  0  0  0  0  0  0
   21.7120   20.3065   24.0554 H   0  0  0  0  0  0  0  0  0  0  0  0
   22.4932   18.8753   23.8133 H   0  0  0  0  0  0  0  0  0  0  0  0
   20.5413   18.8922   23.0200 C   0  0  2  0  0  0  0  0  0  0  0  0
   20.4734   17.8009   23.0678 H   0  0  0  0  0  0  0  0  0  0  0  0
   20.9956   19.2972   21.6052 C   0  0  0  0  0  0  0  0  0  0  0  0
   21.1224   20.3841   21.5268 H   0  0  0  0  0  0  0  0  0  0  0  0
   20.2701   18.9878   20.8451 H   0  0  0  0  0  0  0  0  0  0  0  0
   21.9545   18.8257   21.3577 H   0  0  0  0  0  0  0  0  0  0  0  0
   19.1492   19.4770   23.3639 C   0  0  0  0  0  0  0  0  0  0  0  0
   19.1438   19.7987   24.4137 H   0  0  0  0  0  0  0  0  0  0  0  0
   18.9585   20.3847   22.7759 H   0  0  0  0  0  0  0  0  0  0  0  0
   17.9841   18.4710   23.1840 C   0  0  0  0  0  0  0  0  0  0  0  0
   17.0538   18.9473   23.5240 H   0  0  0  0  0  0  0  0  0  0  0  0
   18.1416   17.6051   23.8423 H   0  0  0  0  0  0  0  0  0  0  0  0
   17.7897   17.9819   21.7317 C   0  0  0  0  0  0  0  0  0  0  0  0
   17.6721   18.8271   21.0412 H   0  0  0  0  0  0  0  0  0  0  0  0
   16.8891   17.3590   21.6543 H   0  0  0  0  0  0  0  0  0  0  0  0
   18.6386   17.3730   21.3967 H   0  0  0  0  0  0  0  0  0  0  0  0
  1  2  1  0  0  0  0
  1  3  1  0  0  0  0
  1  4  1  0  0  0  0
  1  5  1  0  0  0  0
  5  6  1  0  0  0  0
  5  7  1  0  0  0  0
  7  8  1  0  0  0  0
  7  9  1  0  0  0  0
  7 10  1  0  0  0  0
  5 11  1  0  0  0  0
 11 12  1  0  0  0  0
 11 13  1  0  0  0  0
 11 14  1  0  0  0  0
 14 15  1  0  0  0  0
 14 16  1  0  0  0  0
 14 17  1  0  0  0  0
 17 18  1  0  0  0  0
 17 19  1  0  0  0  0
 17 20  1  0  0  0  0
M  END
> <VConfSearch Rank>
747

> <Conf_Id>
3

> <Delta U+W>
3.093

> <U+W>
-33.184

> <U>
25.256

> <W>
-58.439

> <W(PB)>
-60.337

> <W(SA)>
1.898

> <Valence>
4.963

> <Coulomb>
19.511

> <VdW>
0.782

> <VdW6>
-5.429

> <VdW12>
6.211

> <Bond>
0.174

> <Angle>
1.377

> <Pdih>
3.412

> <Idih>
0.000

> <Tether>
0.000

$$$$
VeraChem MOL file


 20 19  0  0  0  0  0  0  0  0999 V2000     
   20.2646   17.2922   24.2286 N   0  3  0  0  0  0  0  0  0  0  0  0
   20.3591   16.3102   23.9562 H   0  0  0  0  0  0  0  0  0  0  0  0
   19.5329   17.3387   24.9430 H   0  0  0  0  0  0  0  0  0  0  0  0
   21.1436   17.5706   24.6718 H   0  0  0  0  0  0  0  0  0  0  0  0
   19.9419   18.1635   23.0457 C   0  0  2  0  0  0  0  0  0  0  0  0
   18.9969   17.7909   22.6393 H   0  0  0  0  0  0  0  0  0  0  0  0
   21.0270   18.0199   21.9631 C   0  0  0  0  0  0  0  0  0  0  0  0
   20.7392   18.5372   21.0405 H   0  0  0  0  0  0  0  0  0  0  0  0
   21.1817   16.9643   21.7082 H   0  0  0  0  0  0  0  0  0  0  0  0
   21.9850   18.4317   22.3039 H   0  0  0  0  0  0  0  0  0  0  0  0
   19.7396   19.6367   23.4738 C   0  0  0  0  0  0  0  0  0  0  0  0
   19.0167   19.6664   24.2997 H   0  0  0  0  0  0  0  0  0  0  0  0
   20.6813   20.0298   23.8794 H   0  0  0  0  0  0  0  0  0  0  0  0
   19.2377   20.5819   22.3524 C   0  0  0  0  0  0  0  0  0  0  0  0
   19.9994   20.6808   21.5673 H   0  0  0  0  0  0  0  0  0  0  0  0
   19.1081   21.5890   22.7730 H   0  0  0  0  0  0  0  0  0  0  0  0
   17.8999   20.1243   21.7279 C   0  0  0  0  0  0  0  0  0  0  0  0
   17.1225   20.0156   22.4954 H   0  0  0  0  0  0  0  0  0  0  0  0
   18.0054   19.1641   21.2073 H   0  0  0  0  0  0  0  0  0  0  0  0
   17.5460   20.8606   20.9947 H   0  0  0  0  0  0  0  0  0  0  0  0
  1  2  1  0  0  0  0
  1  3  1  0  0  0  0
  1  4  1  0  0  0  0
  1  5  1  0  0  0  0
  5  6  1  0  0  0  0
  5  7  1  0  0  0  0
  7  8  1  0  0  0  0
  7  9  1  0  0  0  0
  7 10  1  0  0  0  0
  5 11  1  0  0  0  0
 11 12  1  0  0  0  0
 11 13  1  0  0  0  0
 11 14  1  0  0  0  0
 14 15  1  0  0  0  0
 14 16  1  0  0  0  0
 14 17  1  0  0  0  0
 17 18  1  0  0  0  0
 17 19  1  0  0  0  0
 17 20  1  0  0  0  0
M  END
> <VConfSearch Rank>
748

> <Conf_Id>
64

> <Delta U+W>
0.544

> <U+W>
-35.732

> <U>
22.800

> <W>
-58.532

> <W(PB)>
-60.437

> <W(SA)>
1.905

> <Valence>
2.662

> <Coulomb>
19.485

> <VdW>
0.653

> <VdW6>
-5.460

> <VdW12>
6.113

> <Bond>
0.174

> <Angle>
1.378

> <Pdih>
1.109

> <Idih>
0.000

> <Tether>
0.000

$$$$
VeraChem MOL file


 20 19  0  0  0  0  0  0  0  0999 V2000     
   20.4629   17.9856   24.4675 N   0  3  0  0  0  0  0  0  0  0  0  0
   19.7959   18.6686   24.8333 H   0  0  0  0  0  0  0  0  0  0  0  0
   21.3158   18.0607   25.0283 H   0  0  0  0  0  0  0  0  0  0  0  0
   20.0716   17.0545   24.6335 H   0  0  0  0  0  0  0  0  0  0  0  0
   20.7426   18.2162   23.0068 C   0  0  2  0  0  0  0  0  0  0  0  0
   21.4681   17.4498   22.7165 H   0  0  0  0  0  0  0  0  0  0  0  0
   21.4073   19.5848   22.7855 C   0  0  0  0  0  0  0  0  0  0  0  0
   20.7896   20.3997   23.1804 H   0  0  0  0  0  0  0  0  0  0  0  0
   21.5840   19.7656   21.7180 H   0  0  0  0  0  0  0  0  0  0  0  0
   22.3778   19.6258   23.2947 H   0  0  0  0  0  0  0  0  0  0  0  0
   19.4858   18.0052   22.1255 C   0  0  0  0  0  0  0  0  0  0  0  0
   19.7778   18.0118   21.0671 H   0  0  0  0  0  0  0  0  0  0  0  0
   19.1185   16.9883   22.3164 H   0  0  0  0  0  0  0  0  0  0  0  0
   18.3119   18.9976   22.3543 C   0  0  0  0  0  0  0  0  0  0  0  0
   18.2836   19.3372   23.3980 H   0  0  0  0  0  0  0  0  0  0  0  0
   17.3675   18.4602   22.1891 H   0  0  0  0  0  0  0  0  0  0  0  0
   18.3357   20.2140   21.3991 C   0  0  0  0  0  0  0  0  0  0  0  0
   19.2317   20.8294   21.5352 H   0  0  0  0  0  0  0  0  0  0  0  0
   17.4636   20.8569   21.5755 H   0  0  0  0  0  0  0  0  0  0  0  0
   18.3029   19.8909   20.3505 H   0  0  0  0  0  0  0  0  0  0  0  0
  1  2  1  0  0  0  0
  1  3  1  0  0  0  0
  1  4  1  0  0  0  0
  1  5  1  0  0  0  0
  5  6  1  0  0  0  0
  5  7  1  0  0  0  0
  7  8  1  0  0  0  0
  7  9  1  0  0  0  0
  7 10  1  0  0  0  0
  5 11  1  0  0  0  0
 11 12  1  0  0  0  0
 11 13  1  0  0  0  0
 11 14  1  0  0  0  0
 14 15  1  0  0  0  0
 14 16  1  0  0  0  0
 14 17  1  0  0  0  0
 17 18  1  0  0  0  0
 17 19  1  0  0  0  0
 17 20  1  0  0  0  0
M  END
> <VConfSearch Rank>
749

> <Conf_Id>
35

> <Delta U+W>
3.004

> <U+W>
-33.272

> <U>
25.367

> <W>
-58.639

> <W(PB)>
-60.512

> <W(SA)>
1.873

> <Valence>
4.943

> <Coulomb>
19.661

> <VdW>
0.764

> <VdW6>
-5.871

> <VdW12>
6.636

> <Bond>
0.230

> <Angle>
1.857

> <Pdih>
2.855

> <Idih>
0.000

> <Tether>
0.000

$$$$
VeraChem MOL file


 20 19  0  0  0  0  0  0  0  0999 V2000     
   20.5994   17.3953   22.4387 N   0  3  0  0  0  0  0  0  0  0  0  0
   20.5019   16.4272   22.7563 H   0  0  0  0  0  0  0  0  0  0  0  0
   21.5379   17.4928   22.0423 H   0  0  0  0  0  0  0  0  0  0  0  0
   19.9303   17.5417   21.6805 H   0  0  0  0  0  0  0  0  0  0  0  0
   20.3717   18.3700   23.5614 C   0  0  2  0  0  0  0  0  0  0  0  0
   21.1479   18.1467   24.3001 H   0  0  0  0  0  0  0  0  0  0  0  0
   19.0112   18.1356   24.2414 C   0  0  0  0  0  0  0  0  0  0  0  0
   18.1804   18.2497   23.5349 H   0  0  0  0  0  0  0  0  0  0  0  0
   18.8616   18.8432   25.0663 H   0  0  0  0  0  0  0  0  0  0  0  0
   18.9597   17.1226   24.6588 H   0  0  0  0  0  0  0  0  0  0  0  0
   20.5719   19.8466   23.1336 C   0  0  0  0  0  0  0  0  0  0  0  0
   20.6987   20.4429   24.0468 H   0  0  0  0  0  0  0  0  0  0  0  0
   21.5242   19.9345   22.5945 H   0  0  0  0  0  0  0  0  0  0  0  0
   19.4433   20.5039   22.2905 C   0  0  0  0  0  0  0  0  0  0  0  0
   19.7194   21.5528   22.1134 H   0  0  0  0  0  0  0  0  0  0  0  0
   18.5086   20.5389   22.8666 H   0  0  0  0  0  0  0  0  0  0  0  0
   19.1857   19.8329   20.9222 C   0  0  0  0  0  0  0  0  0  0  0  0
   20.1192   19.7065   20.3585 H   0  0  0  0  0  0  0  0  0  0  0  0
   18.5127   20.4531   20.3159 H   0  0  0  0  0  0  0  0  0  0  0  0
   18.7050   18.8546   21.0364 H   0  0  0  0  0  0  0  0  0  0  0  0
  1  2  1  0  0  0  0
  1  3  1  0  0  0  0
  1  4  1  0  0  0  0
  1  5  1  0  0  0  0
  5  6  1  0  0  0  0
  5  7  1  0  0  0  0
  7  8  1  0  0  0  0
  7  9  1  0  0  0  0
  7 10  1  0  0  0  0
  5 11  1  0  0  0  0
 11 12  1  0  0  0  0
 11 13  1  0  0  0  0
 11 14  1  0  0  0  0
 14 15  1  0  0  0  0
 14 16  1  0  0  0  0
 14 17  1  0  0  0  0
 17 18  1  0  0  0  0
 17 19  1  0  0  0  0
 17 20  1  0  0  0  0
M  END
> <VConfSearch Rank>
750

> <Conf_Id>
55

> <Delta U+W>
2.767

> <U+W>
-33.509

> <U>
24.552

> <W>
-58.061

> <W(PB)>
-59.930

> <W(SA)>
1.869

> <Valence>
3.726

> <Coulomb>
20.219

> <VdW>
0.606

> <VdW6>
-6.395

> <VdW12>
7.001

> <Bond>
0.241

> <Angle>
2.098

> <Pdih>
1.387

> <Idih>
0.000

> <Tether>
0.000

$$$$
VeraChem MOL file


 20 19  0  0  0  0  0  0  0  0999 V2000     
   17.9599   19.5149   22.0975 N   0  3  0  0  0  0  0  0  0  0  0  0
   17.4911   19.4977   23.0066 H   0  0  0  0  0  0  0  0  0  0  0  0
   17.2399   19.3921   21.3804 H   0  0  0  0  0  0  0  0  0  0  0  0
   18.3559   20.4500   21.9732 H   0  0  0  0  0  0  0  0  0  0  0  0
   19.0188   18.4496   22.0029 C   0  0  2  0  0  0  0  0  0  0  0  0
   19.4691   18.5406   21.0094 H   0  0  0  0  0  0  0  0  0  0  0  0
   18.3902   17.0514   22.1199 C   0  0  0  0  0  0  0  0  0  0  0  0
   17.6229   16.9047   21.3499 H   0  0  0  0  0  0  0  0  0  0  0  0
   17.9214   16.9073   23.1014 H   0  0  0  0  0  0  0  0  0  0  0  0
   19.1487   16.2701   21.9859 H   0  0  0  0  0  0  0  0  0  0  0  0
   20.1345   18.6265   23.0565 C   0  0  0  0  0  0  0  0  0  0  0  0
   19.7044   18.5630   24.0648 H   0  0  0  0  0  0  0  0  0  0  0  0
   20.8430   17.7923   22.9656 H   0  0  0  0  0  0  0  0  0  0  0  0
   20.9089   19.9576   22.9010 C   0  0  0  0  0  0  0  0  0  0  0  0
   20.2313   20.8102   23.0440 H   0  0  0  0  0  0  0  0  0  0  0  0
   21.3086   20.0364   21.8800 H   0  0  0  0  0  0  0  0  0  0  0  0
   22.0694   20.0635   23.9136 C   0  0  0  0  0  0  0  0  0  0  0  0
   21.6982   20.0185   24.9458 H   0  0  0  0  0  0  0  0  0  0  0  0
   22.6062   21.0131   23.7902 H   0  0  0  0  0  0  0  0  0  0  0  0
   22.7917   19.2485   23.7743 H   0  0  0  0  0  0  0  0  0  0  0  0
  1  2  1  0  0  0  0
  1  3  1  0  0  0  0
  1  4  1  0  0  0  0
  1  5  1  0  0  0  0
  5  6  1  0  0  0  0
  5  7  1  0  0  0  0
  7  8  1  0  0  0  0
  7  9  1  0  0  0  0
  7 10  1  0  0  0  0
  5 11  1  0  0  0  0
 11 12  1  0  0  0  0
 11 13  1  0  0  0  0
 11 14  1  0  0  0  0
 14 15  1  0  0  0  0
 14 16  1  0  0  0  0
 14 17  1  0  0  0  0
 17 18  1  0  0  0  0
 17 19  1  0  0  0  0
 17 20  1  0  0  0  0
M  END
> <VConfSearch Rank>
751

> <Conf_Id>
74

> <Delta U+W>
0.000

> <U+W>
-36.276

> <U>
22.080

> <W>
-58.356

> <W(PB)>
-60.289

> <W(SA)>
1.932

> <Valence>
1.885

> <Coulomb>
19.559

> <VdW>
0.637

> <VdW6>
-4.482

> <VdW12>
5.119

> <Bond>
0.136

> <Angle>
0.867

> <Pdih>
0.882

> <Idih>
0.000

> <Tether>
0.000

$$$$
VeraChem MOL file


 20 19  0  0  0  0  0  0  0  0999 V2000     
   21.2198   20.0348   21.1989 N   0  3  0  0  0  0  0  0  0  0  0  0
   22.0656   19.4640   21.2804 H   0  0  0  0  0  0  0  0  0  0  0  0
   21.3733   20.8890   21.7408 H   0  0  0  0  0  0  0  0  0  0  0  0
   21.1341   20.3092   20.2165 H   0  0  0  0  0  0  0  0  0  0  0  0
   20.0004   19.2919   21.6717 C   0  0  2  0  0  0  0  0  0  0  0  0
   19.9160   18.4035   21.0381 H   0  0  0  0  0  0  0  0  0  0  0  0
   18.7397   20.1531   21.4719 C   0  0  0  0  0  0  0  0  0  0  0  0
   18.6768   20.5115   20.4371 H   0  0  0  0  0  0  0  0  0  0  0  0
   18.7467   21.0274   22.1345 H   0  0  0  0  0  0  0  0  0  0  0  0
   17.8279   19.5783   21.6705 H   0  0  0  0  0  0  0  0  0  0  0  0
   20.1623   18.8267   23.1376 C   0  0  0  0  0  0  0  0  0  0  0  0
   21.1284   18.3140   23.2347 H   0  0  0  0  0  0  0  0  0  0  0  0
   20.2069   19.7011   23.8003 H   0  0  0  0  0  0  0  0  0  0  0  0
   19.0462   17.8661   23.6158 C   0  0  0  0  0  0  0  0  0  0  0  0
   18.9588   17.0222   22.9171 H   0  0  0  0  0  0  0  0  0  0  0  0
   18.0757   18.3801   23.6177 H   0  0  0  0  0  0  0  0  0  0  0  0
   19.3274   17.3278   25.0353 C   0  0  0  0  0  0  0  0  0  0  0  0
   20.2713   16.7681   25.0666 H   0  0  0  0  0  0  0  0  0  0  0  0
   18.5253   16.6521   25.3596 H   0  0  0  0  0  0  0  0  0  0  0  0
   19.3917   18.1474   25.7628 H   0  0  0  0  0  0  0  0  0  0  0  0
  1  2  1  0  0  0  0
  1  3  1  0  0  0  0
  1  4  1  0  0  0  0
  1  5  1  0  0  0  0
  5  6  1  0  0  0  0
  5  7  1  0  0  0  0
  7  8  1  0  0  0  0
  7  9  1  0  0  0  0
  7 10  1  0  0  0  0
  5 11  1  0  0  0  0
 11 12  1  0  0  0  0
 11 13  1  0  0  0  0
 11 14  1  0  0  0  0
 14 15  1  0  0  0  0
 14 16  1  0  0  0  0
 14 17  1  0  0  0  0
 17 18  1  0  0  0  0
 17 19  1  0  0  0  0
 17 20  1  0  0  0  0
M  END
> <VConfSearch Rank>
752

> <Conf_Id>
80

> <Delta U+W>
0.460

> <U+W>
-35.817

> <U>
22.495

> <W>
-58.311

> <W(PB)>
-60.259

> <W(SA)>
1.948

> <Valence>
2.419

> <Coulomb>
19.304

> <VdW>
0.772

> <VdW6>
-4.635

> <VdW12>
5.407

> <Bond>
0.149

> <Angle>
1.142

> <Pdih>
1.129

> <Idih>
0.000

> <Tether>
0.000

$$$$
VeraChem MOL file


 20 19  0  0  0  0  0  0  0  0999 V2000     
   20.5331   18.3825   24.9435 N   0  3  0  0  0  0  0  0  0  0  0  0
   20.8115   19.2334   25.4398 H   0  0  0  0  0  0  0  0  0  0  0  0
   21.3885   17.9155   24.6322 H   0  0  0  0  0  0  0  0  0  0  0  0
   20.0825   17.7679   25.6268 H   0  0  0  0  0  0  0  0  0  0  0  0
   19.6183   18.6865   23.7887 C   0  0  2  0  0  0  0  0  0  0  0  0
   18.7371   19.1747   24.2165 H   0  0  0  0  0  0  0  0  0  0  0  0
   19.1616   17.3819   23.1138 C   0  0  0  0  0  0  0  0  0  0  0  0
   18.7780   16.6739   23.8586 H   0  0  0  0  0  0  0  0  0  0  0  0
   19.9890   16.8992   22.5790 H   0  0  0  0  0  0  0  0  0  0  0  0
   18.3493   17.5712   22.4028 H   0  0  0  0  0  0  0  0  0  0  0  0
   20.2822   19.6753   22.7993 C   0  0  0  0  0  0  0  0  0  0  0  0
   20.6049   20.5518   23.3766 H   0  0  0  0  0  0  0  0  0  0  0  0
   21.1995   19.2377   22.3837 H   0  0  0  0  0  0  0  0  0  0  0  0
   19.3607   20.1764   21.6559 C   0  0  0  0  0  0  0  0  0  0  0  0
   19.5935   21.2317   21.4554 H   0  0  0  0  0  0  0  0  0  0  0  0
   18.3093   20.1560   21.9757 H   0  0  0  0  0  0  0  0  0  0  0  0
   19.5375   19.3913   20.3348 C   0  0  0  0  0  0  0  0  0  0  0  0
   20.5692   19.4694   19.9677 H   0  0  0  0  0  0  0  0  0  0  0  0
   18.8769   19.7952   19.5567 H   0  0  0  0  0  0  0  0  0  0  0  0
   19.3012   18.3278   20.4510 H   0  0  0  0  0  0  0  0  0  0  0  0
  1  2  1  0  0  0  0
  1  3  1  0  0  0  0
  1  4  1  0  0  0  0
  1  5  1  0  0  0  0
  5  6  1  0  0  0  0
  5  7  1  0  0  0  0
  7  8  1  0  0  0  0
  7  9  1  0  0  0  0
  7 10  1  0  0  0  0
  5 11  1  0  0  0  0
 11 12  1  0  0  0  0
 11 13  1  0  0  0  0
 11 14  1  0  0  0  0
 14 15  1  0  0  0  0
 14 16  1  0  0  0  0
 14 17  1  0  0  0  0
 17 18  1  0  0  0  0
 17 19  1  0  0  0  0
 17 20  1  0  0  0  0
M  END
> <VConfSearch Rank>
753

> <Conf_Id>
52

> <Delta U+W>
2.995

> <U+W>
-33.282

> <U>
25.224

> <W>
-58.506

> <W(PB)>
-60.411

> <W(SA)>
1.905

> <Valence>
4.945

> <Coulomb>
19.467

> <VdW>
0.813

> <VdW6>
-5.458

> <VdW12>
6.270

> <Bond>
0.200

> <Angle>
1.675

> <Pdih>
3.070

> <Idih>
0.000

> <Tether>
0.000

$$$$
VeraChem MOL file


 20 19  0  0  0  0  0  0  0  0999 V2000     
   19.5650   18.5950   24.2998 N   0  3  0  0  0  0  0  0  0  0  0  0
   18.5701   18.7379   24.4900 H   0  0  0  0  0  0  0  0  0  0  0  0
   20.0531   18.6057   25.1994 H   0  0  0  0  0  0  0  0  0  0  0  0
   19.6690   17.6587   23.9029 H   0  0  0  0  0  0  0  0  0  0  0  0
   20.1018   19.6463   23.3672 C   0  0  2  0  0  0  0  0  0  0  0  0
   21.1734   19.4571   23.2510 H   0  0  0  0  0  0  0  0  0  0  0  0
   19.9247   21.0394   23.9946 C   0  0  0  0  0  0  0  0  0  0  0  0
   18.8630   21.2869   24.1191 H   0  0  0  0  0  0  0  0  0  0  0  0
   20.3846   21.8126   23.3666 H   0  0  0  0  0  0  0  0  0  0  0  0
   20.4044   21.0859   24.9800 H   0  0  0  0  0  0  0  0  0  0  0  0
   19.4450   19.5978   21.9670 C   0  0  0  0  0  0  0  0  0  0  0  0
   18.3538   19.5285   22.0675 H   0  0  0  0  0  0  0  0  0  0  0  0
   19.6389   20.5506   21.4564 H   0  0  0  0  0  0  0  0  0  0  0  0
   19.9692   18.4685   21.0416 C   0  0  0  0  0  0  0  0  0  0  0  0
   21.0552   18.5732   20.9084 H   0  0  0  0  0  0  0  0  0  0  0  0
   19.5275   18.6100   20.0452 H   0  0  0  0  0  0  0  0  0  0  0  0
   19.6440   17.0346   21.5186 C   0  0  0  0  0  0  0  0  0  0  0  0
   19.8647   16.3115   20.7225 H   0  0  0  0  0  0  0  0  0  0  0  0
   18.5819   16.9305   21.7764 H   0  0  0  0  0  0  0  0  0  0  0  0
   20.2510   16.7494   22.3855 H   0  0  0  0  0  0  0  0  0  0  0  0
  1  2  1  0  0  0  0
  1  3  1  0  0  0  0
  1  4  1  0  0  0  0
  1  5  1  0  0  0  0
  5  6  1  0  0  0  0
  5  7  1  0  0  0  0
  7  8  1  0  0  0  0
  7  9  1  0  0  0  0
  7 10  1  0  0  0  0
  5 11  1  0  0  0  0
 11 12  1  0  0  0  0
 11 13  1  0  0  0  0
 11 14  1  0  0  0  0
 14 15  1  0  0  0  0
 14 16  1  0  0  0  0
 14 17  1  0  0  0  0
 17 18  1  0  0  0  0
 17 19  1  0  0  0  0
 17 20  1  0  0  0  0
M  END
> <VConfSearch Rank>
754

> <Conf_Id>
54

> <Delta U+W>
2.752

> <U+W>
-33.525

> <U>
24.337

> <W>
-57.862

> <W(PB)>
-59.764

> <W(SA)>
1.901

> <Valence>
3.593

> <Coulomb>
20.067

> <VdW>
0.677

> <VdW6>
-5.466

> <VdW12>
6.144

> <Bond>
0.191

> <Angle>
1.557

> <Pdih>
1.845

> <Idih>
0.000

> <Tether>
0.000

$$$$
VeraChem MOL file


 20 19  0  0  0  0  0  0  0  0999 V2000     
   18.5955   17.2509   22.8204 N   0  3  0  0  0  0  0  0  0  0  0  0
   18.6216   16.2279   22.8410 H   0  0  0  0  0  0  0  0  0  0  0  0
   17.7077   17.5234   22.3900 H   0  0  0  0  0  0  0  0  0  0  0  0
   18.5796   17.5754   23.7899 H   0  0  0  0  0  0  0  0  0  0  0  0
   19.7707   17.8166   22.0702 C   0  0  2  0  0  0  0  0  0  0  0  0
   19.7118   17.4026   21.0587 H   0  0  0  0  0  0  0  0  0  0  0  0
   21.0996   17.3453   22.6873 C   0  0  0  0  0  0  0  0  0  0  0  0
   21.9537   17.7613   22.1388 H   0  0  0  0  0  0  0  0  0  0  0  0
   21.1769   16.2521   22.6423 H   0  0  0  0  0  0  0  0  0  0  0  0
   21.1877   17.6437   23.7386 H   0  0  0  0  0  0  0  0  0  0  0  0
   19.7042   19.3572   21.9389 C   0  0  0  0  0  0  0  0  0  0  0  0
   20.5374   19.6938   21.3077 H   0  0  0  0  0  0  0  0  0  0  0  0
   18.7883   19.6197   21.3933 H   0  0  0  0  0  0  0  0  0  0  0  0
   19.7351   20.1307   23.2824 C   0  0  0  0  0  0  0  0  0  0  0  0
   20.6694   19.9211   23.8203 H   0  0  0  0  0  0  0  0  0  0  0  0
   18.9127   19.7988   23.9302 H   0  0  0  0  0  0  0  0  0  0  0  0
   19.6178   21.6541   23.0617 C   0  0  0  0  0  0  0  0  0  0  0  0
   19.6433   22.1880   24.0205 H   0  0  0  0  0  0  0  0  0  0  0  0
   18.6755   21.9096   22.5597 H   0  0  0  0  0  0  0  0  0  0  0  0
   20.4457   22.0291   22.4459 H   0  0  0  0  0  0  0  0  0  0  0  0
  1  2  1  0  0  0  0
  1  3  1  0  0  0  0
  1  4  1  0  0  0  0
  1  5  1  0  0  0  0
  5  6  1  0  0  0  0
  5  7  1  0  0  0  0
  7  8  1  0  0  0  0
  7  9  1  0  0  0  0
  7 10  1  0  0  0  0
  5 11  1  0  0  0  0
 11 12  1  0  0  0  0
 11 13  1  0  0  0  0
 11 14  1  0  0  0  0
 14 15  1  0  0  0  0
 14 16  1  0  0  0  0
 14 17  1  0  0  0  0
 17 18  1  0  0  0  0
 17 19  1  0  0  0  0
 17 20  1  0  0  0  0
M  END
> <VConfSearch Rank>
755

> <Conf_Id>
63

> <Delta U+W>
0.420

> <U+W>
-35.856

> <U>
22.625

> <W>
-58.481

> <W(PB)>
-60.400

> <W(SA)>
1.919

> <Valence>
2.404

> <Coulomb>
19.464

> <VdW>
0.757

> <VdW6>
-5.074

> <VdW12>
5.830

> <Bond>
0.172

> <Angle>
1.207

> <Pdih>
1.025

> <Idih>
0.000

> <Tether>
0.000

$$$$
VeraChem MOL file


 20 19  0  0  0  0  0  0  0  0999 V2000     
   21.3477   19.4616   23.1368 N   0  3  0  0  0  0  0  0  0  0  0  0
   21.5934   18.5169   22.8301 H   0  0  0  0  0  0  0  0  0  0  0  0
   21.4867   19.5027   24.1494 H   0  0  0  0  0  0  0  0  0  0  0  0
   22.0185   20.1059   22.7095 H   0  0  0  0  0  0  0  0  0  0  0  0
   19.9327   19.8081   22.7601 C   0  0  2  0  0  0  0  0  0  0  0  0
   19.8725   19.7433   21.6695 H   0  0  0  0  0  0  0  0  0  0  0  0
   19.5988   21.2510   23.1724 C   0  0  0  0  0  0  0  0  0  0  0  0
   20.3020   21.9581   22.7156 H   0  0  0  0  0  0  0  0  0  0  0  0
   19.6485   21.3750   24.2614 H   0  0  0  0  0  0  0  0  0  0  0  0
   18.5893   21.5267   22.8430 H   0  0  0  0  0  0  0  0  0  0  0  0
   18.9032   18.8246   23.3616 C   0  0  0  0  0  0  0  0  0  0  0  0
   18.9369   18.8870   24.4574 H   0  0  0  0  0  0  0  0  0  0  0  0
   17.8934   19.1405   23.0676 H   0  0  0  0  0  0  0  0  0  0  0  0
   19.1073   17.3498   22.9314 C   0  0  0  0  0  0  0  0  0  0  0  0
   18.3346   16.7326   23.4110 H   0  0  0  0  0  0  0  0  0  0  0  0
   20.0689   16.9741   23.3065 H   0  0  0  0  0  0  0  0  0  0  0  0
   19.0299   17.1488   21.4008 C   0  0  0  0  0  0  0  0  0  0  0  0
   18.0757   17.5174   21.0023 H   0  0  0  0  0  0  0  0  0  0  0  0
   19.1083   16.0833   21.1484 H   0  0  0  0  0  0  0  0  0  0  0  0
   19.8430   17.6718   20.8819 H   0  0  0  0  0  0  0  0  0  0  0  0
  1  2  1  0  0  0  0
  1  3  1  0  0  0  0
  1  4  1  0  0  0  0
  1  5  1  0  0  0  0
  5  6  1  0  0  0  0
  5  7  1  0  0  0  0
  7  8  1  0  0  0  0
  7  9  1  0  0  0  0
  7 10  1  0  0  0  0
  5 11  1  0  0  0  0
 11 12  1  0  0  0  0
 11 13  1  0  0  0  0
 11 14  1  0  0  0  0
 14 15  1  0  0  0  0
 14 16  1  0  0  0  0
 14 17  1  0  0  0  0
 17 18  1  0  0  0  0
 17 19  1  0  0  0  0
 17 20  1  0  0  0  0
M  END
> <VConfSearch Rank>
756

> <Conf_Id>
50

> <Delta U+W>
0.466

> <U+W>
-35.811

> <U>
22.369

> <W>
-58.180

> <W(PB)>
-60.103

> <W(SA)>
1.923

> <Valence>
2.168

> <Coulomb>
19.636

> <VdW>
0.566

> <VdW6>
-5.263

> <VdW12>
5.829

> <Bond>
0.162

> <Angle>
1.066

> <Pdih>
0.939

> <Idih>
0.000

> <Tether>
0.000

$$$$
VeraChem MOL file


 20 19  0  0  0  0  0  0  0  0999 V2000     
   21.2704   19.4627   21.1713 N   0  3  0  0  0  0  0  0  0  0  0  0
   22.0131   18.7670   21.2821 H   0  0  0  0  0  0  0  0  0  0  0  0
   21.6547   20.3693   21.4491 H   0  0  0  0  0  0  0  0  0  0  0  0
   21.0541   19.5172   20.1723 H   0  0  0  0  0  0  0  0  0  0  0  0
   20.0520   19.1075   21.9799 C   0  0  2  0  0  0  0  0  0  0  0  0
   19.7189   18.1306   21.6159 H   0  0  0  0  0  0  0  0  0  0  0  0
   18.9338   20.1360   21.7273 C   0  0  0  0  0  0  0  0  0  0  0  0
   19.2451   21.1419   22.0355 H   0  0  0  0  0  0  0  0  0  0  0  0
   18.0216   19.8829   22.2783 H   0  0  0  0  0  0  0  0  0  0  0  0
   18.6764   20.1728   20.6617 H   0  0  0  0  0  0  0  0  0  0  0  0
   20.3777   18.9742   23.4880 C   0  0  0  0  0  0  0  0  0  0  0  0
   21.4631   18.8652   23.6130 H   0  0  0  0  0  0  0  0  0  0  0  0
   20.1101   19.8963   24.0212 H   0  0  0  0  0  0  0  0  0  0  0  0
   19.7101   17.7523   24.1686 C   0  0  0  0  0  0  0  0  0  0  0  0
   20.0592   17.6963   25.2092 H   0  0  0  0  0  0  0  0  0  0  0  0
   20.0526   16.8283   23.6819 H   0  0  0  0  0  0  0  0  0  0  0  0
   18.1659   17.7916   24.1641 C   0  0  0  0  0  0  0  0  0  0  0  0
   17.7918   18.7242   24.6061 H   0  0  0  0  0  0  0  0  0  0  0  0
   17.7595   16.9572   24.7503 H   0  0  0  0  0  0  0  0  0  0  0  0
   17.7655   17.7025   23.1466 H   0  0  0  0  0  0  0  0  0  0  0  0
  1  2  1  0  0  0  0
  1  3  1  0  0  0  0
  1  4  1  0  0  0  0
  1  5  1  0  0  0  0
  5  6  1  0  0  0  0
  5  7  1  0  0  0  0
  7  8  1  0  0  0  0
  7  9  1  0  0  0  0
  7 10  1  0  0  0  0
  5 11  1  0  0  0  0
 11 12  1  0  0  0  0
 11 13  1  0  0  0  0
 11 14  1  0  0  0  0
 14 15  1  0  0  0  0
 14 16  1  0  0  0  0
 14 17  1  0  0  0  0
 17 18  1  0  0  0  0
 17 19  1  0  0  0  0
 17 20  1  0  0  0  0
M  END
> <VConfSearch Rank>
757

> <Conf_Id>
3

> <Delta U+W>
3.093

> <U+W>
-33.184

> <U>
25.256

> <W>
-58.439

> <W(PB)>
-60.337

> <W(SA)>
1.898

> <Valence>
4.963

> <Coulomb>
19.511

> <VdW>
0.782

> <VdW6>
-5.429

> <VdW12>
6.211

> <Bond>
0.174

> <Angle>
1.377

> <Pdih>
3.412

> <Idih>
0.000

> <Tether>
0.000

$$$$
VeraChem MOL file


 20 19  0  0  0  0  0  0  0  0999 V2000     
   17.7415   19.4525   23.8561 N   0  3  0  0  0  0  0  0  0  0  0  0
   17.1089   18.7427   24.2352 H   0  0  0  0  0  0  0  0  0  0  0  0
   17.2132   19.9887   23.1624 H   0  0  0  0  0  0  0  0  0  0  0  0
   17.9768   20.0896   24.6213 H   0  0  0  0  0  0  0  0  0  0  0  0
   18.9726   18.8299   23.2570 C   0  0  2  0  0  0  0  0  0  0  0  0
   18.6238   18.1685   22.4582 H   0  0  0  0  0  0  0  0  0  0  0  0
   19.7072   17.9777   24.3078 C   0  0  0  0  0  0  0  0  0  0  0  0
   20.5258   17.4064   23.8548 H   0  0  0  0  0  0  0  0  0  0  0  0
   19.0221   17.2545   24.7668 H   0  0  0  0  0  0  0  0  0  0  0  0
   20.1252   18.6042   25.1054 H   0  0  0  0  0  0  0  0  0  0  0  0
   19.8950   19.9032   22.6312 C   0  0  0  0  0  0  0  0  0  0  0  0
   19.2980   20.5276   21.9535 H   0  0  0  0  0  0  0  0  0  0  0  0
   20.2600   20.5736   23.4205 H   0  0  0  0  0  0  0  0  0  0  0  0
   21.1062   19.3458   21.8403 C   0  0  0  0  0  0  0  0  0  0  0  0
   21.7972   18.8256   22.5171 H   0  0  0  0  0  0  0  0  0  0  0  0
   21.6732   20.1902   21.4240 H   0  0  0  0  0  0  0  0  0  0  0  0
   20.6946   18.4022   20.6873 C   0  0  0  0  0  0  0  0  0  0  0  0
   20.0004   18.9003   19.9980 H   0  0  0  0  0  0  0  0  0  0  0  0
   20.2108   17.4922   21.0641 H   0  0  0  0  0  0  0  0  0  0  0  0
   21.5757   18.0932   20.1101 H   0  0  0  0  0  0  0  0  0  0  0  0
  1  2  1  0  0  0  0
  1  3  1  0  0  0  0
  1  4  1  0  0  0  0
  1  5  1  0  0  0  0
  5  6  1  0  0  0  0
  5  7  1  0  0  0  0
  7  8  1  0  0  0  0
  7  9  1  0  0  0  0
  7 10  1  0  0  0  0
  5 11  1  0  0  0  0
 11 12  1  0  0  0  0
 11 13  1  0  0  0  0
 11 14  1  0  0  0  0
 14 15  1  0  0  0  0
 14 16  1  0  0  0  0
 14 17  1  0  0  0  0
 17 18  1  0  0  0  0
 17 19  1  0  0  0  0
 17 20  1  0  0  0  0
M  END
> <VConfSearch Rank>
758

> <Conf_Id>
64

> <Delta U+W>
0.544

> <U+W>
-35.732

> <U>
22.800

> <W>
-58.532

> <W(PB)>
-60.437

> <W(SA)>
1.905

> <Valence>
2.662

> <Coulomb>
19.485

> <VdW>
0.653

> <VdW6>
-5.460

> <VdW12>
6.113

> <Bond>
0.174

> <Angle>
1.378

> <Pdih>
1.109

> <Idih>
0.000

> <Tether>
0.000

$$$$
VeraChem MOL file


 20 19  0  0  0  0  0  0  0  0999 V2000     
   18.3827   17.3419   22.7712 N   0  3  0  0  0  0  0  0  0  0  0  0
   17.8225   18.1354   23.0904 H   0  0  0  0  0  0  0  0  0  0  0  0
   18.2163   16.5691   23.4213 H   0  0  0  0  0  0  0  0  0  0  0  0
   18.0176   17.0551   21.8591 H   0  0  0  0  0  0  0  0  0  0  0  0
   19.8441   17.6936   22.6970 C   0  0  2  0  0  0  0  0  0  0  0  0
   20.3537   16.7853   22.3604 H   0  0  0  0  0  0  0  0  0  0  0  0
   20.3959   18.0403   24.0896 C   0  0  0  0  0  0  0  0  0  0  0  0
   19.8368   18.8634   24.5494 H   0  0  0  0  0  0  0  0  0  0  0  0
   21.4535   18.3254   24.0312 H   0  0  0  0  0  0  0  0  0  0  0  0
   20.3216   17.1734   24.7574 H   0  0  0  0  0  0  0  0  0  0  0  0
   20.1335   18.7909   21.6420 C   0  0  0  0  0  0  0  0  0  0  0  0
   21.2185   18.8852   21.5028 H   0  0  0  0  0  0  0  0  0  0  0  0
   19.7501   18.4290   20.6789 H   0  0  0  0  0  0  0  0  0  0  0  0
   19.5143   20.1894   21.9178 C   0  0  0  0  0  0  0  0  0  0  0  0
   18.5694   20.0977   22.4693 H   0  0  0  0  0  0  0  0  0  0  0  0
   19.2543   20.6488   20.9538 H   0  0  0  0  0  0  0  0  0  0  0  0
   20.4709   21.1540   22.6573 C   0  0  0  0  0  0  0  0  0  0  0  0
   20.7428   20.7851   23.6523 H   0  0  0  0  0  0  0  0  0  0  0  0
   19.9993   22.1367   22.7870 H   0  0  0  0  0  0  0  0  0  0  0  0
   21.3968   21.3033   22.0868 H   0  0  0  0  0  0  0  0  0  0  0  0
  1  2  1  0  0  0  0
  1  3  1  0  0  0  0
  1  4  1  0  0  0  0
  1  5  1  0  0  0  0
  5  6  1  0  0  0  0
  5  7  1  0  0  0  0
  7  8  1  0  0  0  0
  7  9  1  0  0  0  0
  7 10  1  0  0  0  0
  5 11  1  0  0  0  0
 11 12  1  0  0  0  0
 11 13  1  0  0  0  0
 11 14  1  0  0  0  0
 14 15  1  0  0  0  0
 14 16  1  0  0  0  0
 14 17  1  0  0  0  0
 17 18  1  0  0  0  0
 17 19  1  0  0  0  0
 17 20  1  0  0  0  0
M  END
> <VConfSearch Rank>
759

> <Conf_Id>
35

> <Delta U+W>
3.004

> <U+W>
-33.272

> <U>
25.367

> <W>
-58.639

> <W(PB)>
-60.512

> <W(SA)>
1.873

> <Valence>
4.943

> <Coulomb>
19.661

> <VdW>
0.764

> <VdW6>
-5.871

> <VdW12>
6.636

> <Bond>
0.230

> <Angle>
1.857

> <Pdih>
2.855

> <Idih>
0.000

> <Tether>
0.000

$$$$
VeraChem MOL file


 20 19  0  0  0  0  0  0  0  0999 V2000     
   19.5724   18.0279   21.2024 N   0  3  0  0  0  0  0  0  0  0  0  0
   19.4306   18.2005   20.2035 H   0  0  0  0  0  0  0  0  0  0  0  0
   19.2823   17.0643   21.3892 H   0  0  0  0  0  0  0  0  0  0  0  0
   20.5754   18.0869   21.3878 H   0  0  0  0  0  0  0  0  0  0  0  0
   18.8042   19.0078   22.0463 C   0  0  2  0  0  0  0  0  0  0  0  0
   17.7520   18.8458   21.7922 H   0  0  0  0  0  0  0  0  0  0  0  0
   19.1472   20.4607   21.6724 C   0  0  0  0  0  0  0  0  0  0  0  0
   20.2138   20.6737   21.8120 H   0  0  0  0  0  0  0  0  0  0  0  0
   18.5721   21.1660   22.2849 H   0  0  0  0  0  0  0  0  0  0  0  0
   18.9011   20.6554   20.6215 H   0  0  0  0  0  0  0  0  0  0  0  0
   18.9442   18.7401   23.5669 C   0  0  0  0  0  0  0  0  0  0  0  0
   18.1310   19.2752   24.0747 H   0  0  0  0  0  0  0  0  0  0  0  0
   18.7563   17.6757   23.7592 H   0  0  0  0  0  0  0  0  0  0  0  0
   20.2808   19.1549   24.2438 C   0  0  0  0  0  0  0  0  0  0  0  0
   20.1975   18.9404   25.3184 H   0  0  0  0  0  0  0  0  0  0  0  0
   20.4235   20.2416   24.1708 H   0  0  0  0  0  0  0  0  0  0  0  0
   21.5321   18.4287   23.7002 C   0  0  0  0  0  0  0  0  0  0  0  0
   21.3846   17.3410   23.6810 H   0  0  0  0  0  0  0  0  0  0  0  0
   22.3993   18.6352   24.3408 H   0  0  0  0  0  0  0  0  0  0  0  0
   21.7902   18.7696   22.6910 H   0  0  0  0  0  0  0  0  0  0  0  0
  1  2  1  0  0  0  0
  1  3  1  0  0  0  0
  1  4  1  0  0  0  0
  1  5  1  0  0  0  0
  5  6  1  0  0  0  0
  5  7  1  0  0  0  0
  7  8  1  0  0  0  0
  7  9  1  0  0  0  0
  7 10  1  0  0  0  0
  5 11  1  0  0  0  0
 11 12  1  0  0  0  0
 11 13  1  0  0  0  0
 11 14  1  0  0  0  0
 14 15  1  0  0  0  0
 14 16  1  0  0  0  0
 14 17  1  0  0  0  0
 17 18  1  0  0  0  0
 17 19  1  0  0  0  0
 17 20  1  0  0  0  0
M  END
> <VConfSearch Rank>
760

> <Conf_Id>
55

> <Delta U+W>
2.767

> <U+W>
-33.509

> <U>
24.552

> <W>
-58.061

> <W(PB)>
-59.930

> <W(SA)>
1.869

> <Valence>
3.726

> <Coulomb>
20.219

> <VdW>
0.606

> <VdW6>
-6.395

> <VdW12>
7.001

> <Bond>
0.241

> <Angle>
2.098

> <Pdih>
1.387

> <Idih>
0.000

> <Tether>
0.000

$$$$
VeraChem MOL file


 20 19  0  0  0  0  0  0  0  0999 V2000     
   19.4523   17.0779   22.1928 N   0  3  0  0  0  0  0  0  0  0  0  0
   18.6608   17.2371   21.5645 H   0  0  0  0  0  0  0  0  0  0  0  0
   19.3915   16.1103   22.5210 H   0  0  0  0  0  0  0  0  0  0  0  0
   20.3072   17.1567   21.6365 H   0  0  0  0  0  0  0  0  0  0  0  0
   19.4489   18.0503   23.3414 C   0  0  2  0  0  0  0  0  0  0  0  0
   20.3231   17.8144   23.9563 H   0  0  0  0  0  0  0  0  0  0  0  0
   18.1897   17.8633   24.2036 C   0  0  0  0  0  0  0  0  0  0  0  0
   18.1188   16.8315   24.5691 H   0  0  0  0  0  0  0  0  0  0  0  0
   17.2800   18.0868   23.6324 H   0  0  0  0  0  0  0  0  0  0  0  0
   18.2143   18.5245   25.0788 H   0  0  0  0  0  0  0  0  0  0  0  0
   19.5680   19.5186   22.8764 C   0  0  0  0  0  0  0  0  0  0  0  0
   18.7129   19.7744   22.2367 H   0  0  0  0  0  0  0  0  0  0  0  0
   19.5082   20.1743   23.7553 H   0  0  0  0  0  0  0  0  0  0  0  0
   20.8892   19.8107   22.1252 C   0  0  0  0  0  0  0  0  0  0  0  0
   20.9472   19.2066   21.2097 H   0  0  0  0  0  0  0  0  0  0  0  0
   21.7439   19.5208   22.7526 H   0  0  0  0  0  0  0  0  0  0  0  0
   21.0137   21.3031   21.7503 C   0  0  0  0  0  0  0  0  0  0  0  0
   20.1887   21.6164   21.0972 H   0  0  0  0  0  0  0  0  0  0  0  0
   21.9548   21.4919   21.2176 H   0  0  0  0  0  0  0  0  0  0  0  0
   21.0010   21.9384   22.6455 H   0  0  0  0  0  0  0  0  0  0  0  0
  1  2  1  0  0  0  0
  1  3  1  0  0  0  0
  1  4  1  0  0  0  0
  1  5  1  0  0  0  0
  5  6  1  0  0  0  0
  5  7  1  0  0  0  0
  7  8  1  0  0  0  0
  7  9  1  0  0  0  0
  7 10  1  0  0  0  0
  5 11  1  0  0  0  0
 11 12  1  0  0  0  0
 11 13  1  0  0  0  0
 11 14  1  0  0  0  0
 14 15  1  0  0  0  0
 14 16  1  0  0  0  0
 14 17  1  0  0  0  0
 17 18  1  0  0  0  0
 17 19  1  0  0  0  0
 17 20  1  0  0  0  0
M  END
> <VConfSearch Rank>
761

> <Conf_Id>
74

> <Delta U+W>
0.000

> <U+W>
-36.276

> <U>
22.080

> <W>
-58.356

> <W(PB)>
-60.289

> <W(SA)>
1.932

> <Valence>
1.885

> <Coulomb>
19.559

> <VdW>
0.637

> <VdW6>
-4.482

> <VdW12>
5.119

> <Bond>
0.136

> <Angle>
0.867

> <Pdih>
0.882

> <Idih>
0.000

> <Tether>
0.000

$$$$
VeraChem MOL file


 20 19  0  0  0  0  0  0  0  0999 V2000     
   20.5823   20.7179   24.0711 N   0  3  0  0  0  0  0  0  0  0  0  0
   20.2267   20.4647   24.9970 H   0  0  0  0  0  0  0  0  0  0  0  0
   19.9866   21.4663   23.7083 H   0  0  0  0  0  0  0  0  0  0  0  0
   21.5179   21.1113   24.2041 H   0  0  0  0  0  0  0  0  0  0  0  0
   20.6094   19.5341   23.1435 C   0  0  2  0  0  0  0  0  0  0  0  0
   21.2674   18.7933   23.6085 H   0  0  0  0  0  0  0  0  0  0  0  0
   21.2121   19.9346   21.7844 C   0  0  0  0  0  0  0  0  0  0  0  0
   22.1848   20.4225   21.9219 H   0  0  0  0  0  0  0  0  0  0  0  0
   20.5554   20.6309   21.2483 H   0  0  0  0  0  0  0  0  0  0  0  0
   21.3776   19.0583   21.1472 H   0  0  0  0  0  0  0  0  0  0  0  0
   19.2035   18.9070   22.9958 C   0  0  0  0  0  0  0  0  0  0  0  0
   18.7879   18.7459   23.9992 H   0  0  0  0  0  0  0  0  0  0  0  0
   18.5333   19.6163   22.4923 H   0  0  0  0  0  0  0  0  0  0  0  0
   19.1975   17.5564   22.2389 C   0  0  0  0  0  0  0  0  0  0  0  0
   19.9155   16.8670   22.7051 H   0  0  0  0  0  0  0  0  0  0  0  0
   19.5225   17.7002   21.1998 H   0  0  0  0  0  0  0  0  0  0  0  0
   17.7953   16.9104   22.2374 C   0  0  0  0  0  0  0  0  0  0  0  0
   17.4508   16.7096   23.2602 H   0  0  0  0  0  0  0  0  0  0  0  0
   17.8083   15.9567   21.6940 H   0  0  0  0  0  0  0  0  0  0  0  0
   17.0597   17.5646   21.7512 H   0  0  0  0  0  0  0  0  0  0  0  0
  1  2  1  0  0  0  0
  1  3  1  0  0  0  0
  1  4  1  0  0  0  0
  1  5  1  0  0  0  0
  5  6  1  0  0  0  0
  5  7  1  0  0  0  0
  7  8  1  0  0  0  0
  7  9  1  0  0  0  0
  7 10  1  0  0  0  0
  5 11  1  0  0  0  0
 11 12  1  0  0  0  0
 11 13  1  0  0  0  0
 11 14  1  0  0  0  0
 14 15  1  0  0  0  0
 14 16  1  0  0  0  0
 14 17  1  0  0  0  0
 17 18  1  0  0  0  0
 17 19  1  0  0  0  0
 17 20  1  0  0  0  0
M  END
> <VConfSearch Rank>
762

> <Conf_Id>
80

> <Delta U+W>
0.460

> <U+W>
-35.817

> <U>
22.495

> <W>
-58.311

> <W(PB)>
-60.259

> <W(SA)>
1.948

> <Valence>
2.419

> <Coulomb>
19.304

> <VdW>
0.772

> <VdW6>
-4.635

> <VdW12>
5.407

> <Bond>
0.149

> <Angle>
1.142

> <Pdih>
1.129

> <Idih>
0.000

> <Tether>
0.000

$$$$
VeraChem MOL file


 20 19  0  0  0  0  0  0  0  0999 V2000     
   20.7063   19.9966   24.6321 N   0  3  0  0  0  0  0  0  0  0  0  0
   21.4232   19.4180   25.0782 H   0  0  0  0  0  0  0  0  0  0  0  0
   19.8604   19.9315   25.2039 H   0  0  0  0  0  0  0  0  0  0  0  0
   21.0298   20.9666   24.6769 H   0  0  0  0  0  0  0  0  0  0  0  0
   20.4484   19.5671   23.2137 C   0  0  2  0  0  0  0  0  0  0  0  0
   21.3994   19.6757   22.6832 H   0  0  0  0  0  0  0  0  0  0  0  0
   19.4225   20.5031   22.5523 C   0  0  0  0  0  0  0  0  0  0  0  0
   19.7082   21.5527   22.6933 H   0  0  0  0  0  0  0  0  0  0  0  0
   18.4216   20.3620   22.9787 H   0  0  0  0  0  0  0  0  0  0  0  0
   19.3699   20.3271   21.4719 H   0  0  0  0  0  0  0  0  0  0  0  0
   20.0313   18.0773   23.1514 C   0  0  0  0  0  0  0  0  0  0  0  0
   20.8014   17.4975   23.6773 H   0  0  0  0  0  0  0  0  0  0  0  0
   19.1023   17.9194   23.7152 H   0  0  0  0  0  0  0  0  0  0  0  0
   19.8963   17.4936   21.7201 C   0  0  0  0  0  0  0  0  0  0  0  0
   20.2561   16.4551   21.7299 H   0  0  0  0  0  0  0  0  0  0  0  0
   20.5537   18.0330   21.0238 H   0  0  0  0  0  0  0  0  0  0  0  0
   18.4419   17.4877   21.1930 C   0  0  0  0  0  0  0  0  0  0  0  0
   17.7920   16.8871   21.8428 H   0  0  0  0  0  0  0  0  0  0  0  0
   18.3999   17.0511   20.1867 H   0  0  0  0  0  0  0  0  0  0  0  0
   18.0193   18.4969   21.1344 H   0  0  0  0  0  0  0  0  0  0  0  0
  1  2  1  0  0  0  0
  1  3  1  0  0  0  0
  1  4  1  0  0  0  0
  1  5  1  0  0  0  0
  5  6  1  0  0  0  0
  5  7  1  0  0  0  0
  7  8  1  0  0  0  0
  7  9  1  0  0  0  0
  7 10  1  0  0  0  0
  5 11  1  0  0  0  0
 11 12  1  0  0  0  0
 11 13  1  0  0  0  0
 11 14  1  0  0  0  0
 14 15  1  0  0  0  0
 14 16  1  0  0  0  0
 14 17  1  0  0  0  0
 17 18  1  0  0  0  0
 17 19  1  0  0  0  0
 17 20  1  0  0  0  0
M  END
> <VConfSearch Rank>
763

> <Conf_Id>
52

> <Delta U+W>
2.995

> <U+W>
-33.282

> <U>
25.224

> <W>
-58.506

> <W(PB)>
-60.411

> <W(SA)>
1.905

> <Valence>
4.945

> <Coulomb>
19.467

> <VdW>
0.813

> <VdW6>
-5.458

> <VdW12>
6.270

> <Bond>
0.200

> <Angle>
1.675

> <Pdih>
3.070

> <Idih>
0.000

> <Tether>
0.000

$$$$
VeraChem MOL file


 20 19  0  0  0  0  0  0  0  0999 V2000     
   20.9859   18.4670   21.8414 N   0  3  0  0  0  0  0  0  0  0  0  0
   21.8263   18.7577   22.3470 H   0  0  0  0  0  0  0  0  0  0  0  0
   21.2572   18.2959   20.8695 H   0  0  0  0  0  0  0  0  0  0  0  0
   20.6827   17.5755   22.2392 H   0  0  0  0  0  0  0  0  0  0  0  0
   19.9013   19.5051   21.9378 C   0  0  2  0  0  0  0  0  0  0  0  0
   19.0592   19.1480   21.3370 H   0  0  0  0  0  0  0  0  0  0  0  0
   20.3940   20.8315   21.3347 C   0  0  0  0  0  0  0  0  0  0  0  0
   21.2317   21.2431   21.9114 H   0  0  0  0  0  0  0  0  0  0  0  0
   19.5896   21.5775   21.3205 H   0  0  0  0  0  0  0  0  0  0  0  0
   20.7291   20.6875   20.3002 H   0  0  0  0  0  0  0  0  0  0  0  0
   19.4064   19.7227   23.3876 C   0  0  0  0  0  0  0  0  0  0  0  0
   20.2645   19.8317   24.0639 H   0  0  0  0  0  0  0  0  0  0  0  0
   18.8657   20.6775   23.4333 H   0  0  0  0  0  0  0  0  0  0  0  0
   18.4444   18.6271   23.9176 C   0  0  0  0  0  0  0  0  0  0  0  0
   17.5655   18.5571   23.2614 H   0  0  0  0  0  0  0  0  0  0  0  0
   18.0649   18.9498   24.8974 H   0  0  0  0  0  0  0  0  0  0  0  0
   19.0801   17.2275   24.0793 C   0  0  0  0  0  0  0  0  0  0  0  0
   18.4059   16.5679   24.6411 H   0  0  0  0  0  0  0  0  0  0  0  0
   20.0280   17.2804   24.6305 H   0  0  0  0  0  0  0  0  0  0  0  0
   19.2580   16.7497   23.1090 H   0  0  0  0  0  0  0  0  0  0  0  0
  1  2  1  0  0  0  0
  1  3  1  0  0  0  0
  1  4  1  0  0  0  0
  1  5  1  0  0  0  0
  5  6  1  0  0  0  0
  5  7  1  0  0  0  0
  7  8  1  0  0  0  0
  7  9  1  0  0  0  0
  7 10  1  0  0  0  0
  5 11  1  0  0  0  0
 11 12  1  0  0  0  0
 11 13  1  0  0  0  0
 11 14  1  0  0  0  0
 14 15  1  0  0  0  0
 14 16  1  0  0  0  0
 14 17  1  0  0  0  0
 17 18  1  0  0  0  0
 17 19  1  0  0  0  0
 17 20  1  0  0  0  0
M  END
> <VConfSearch Rank>
764

> <Conf_Id>
54

> <Delta U+W>
2.752

> <U+W>
-33.525

> <U>
24.337

> <W>
-57.862

> <W(PB)>
-59.764

> <W(SA)>
1.901

> <Valence>
3.593

> <Coulomb>
20.067

> <VdW>
0.677

> <VdW6>
-5.466

> <VdW12>
6.144

> <Bond>
0.191

> <Angle>
1.557

> <Pdih>
1.845

> <Idih>
0.000

> <Tether>
0.000

$$$$
VeraChem MOL file


 20 19  0  0  0  0  0  0  0  0999 V2000     
   21.5347   17.9128   22.5547 N   0  3  0  0  0  0  0  0  0  0  0  0
   22.5492   17.9811   22.6728 H   0  0  0  0  0  0  0  0  0  0  0  0
   21.3605   17.2236   21.8183 H   0  0  0  0  0  0  0  0  0  0  0  0
   21.1507   17.5370   23.4246 H   0  0  0  0  0  0  0  0  0  0  0  0
   20.9285   19.2480   22.2174 C   0  0  2  0  0  0  0  0  0  0  0  0
   21.4101   19.5733   21.2898 H   0  0  0  0  0  0  0  0  0  0  0  0
   21.2542   20.2925   23.2998 C   0  0  0  0  0  0  0  0  0  0  0  0
   20.8090   21.2639   23.0512 H   0  0  0  0  0  0  0  0  0  0  0  0
   22.3386   20.4355   23.3809 H   0  0  0  0  0  0  0  0  0  0  0  0
   20.8828   19.9861   24.2849 H   0  0  0  0  0  0  0  0  0  0  0  0
   19.4095   19.1554   21.9364 C   0  0  0  0  0  0  0  0  0  0  0  0
   19.0502   20.1405   21.6103 H   0  0  0  0  0  0  0  0  0  0  0  0
   19.2548   18.4813   21.0837 H   0  0  0  0  0  0  0  0  0  0  0  0
   18.5511   18.6679   23.1321 C   0  0  0  0  0  0  0  0  0  0  0  0
   18.6522   19.3591   23.9795 H   0  0  0  0  0  0  0  0  0  0  0  0
   18.9038   17.6866   23.4771 H   0  0  0  0  0  0  0  0  0  0  0  0
   17.0588   18.5604   22.7515 C   0  0  0  0  0  0  0  0  0  0  0  0
   16.4640   18.2166   23.6077 H   0  0  0  0  0  0  0  0  0  0  0  0
   16.9105   17.8466   21.9308 H   0  0  0  0  0  0  0  0  0  0  0  0
   16.6608   19.5332   22.4345 H   0  0  0  0  0  0  0  0  0  0  0  0
  1  2  1  0  0  0  0
  1  3  1  0  0  0  0
  1  4  1  0  0  0  0
  1  5  1  0  0  0  0
  5  6  1  0  0  0  0
  5  7  1  0  0  0  0
  7  8  1  0  0  0  0
  7  9  1  0  0  0  0
  7 10  1  0  0  0  0
  5 11  1  0  0  0  0
 11 12  1  0  0  0  0
 11 13  1  0  0  0  0
 11 14  1  0  0  0  0
 14 15  1  0  0  0  0
 14 16  1  0  0  0  0
 14 17  1  0  0  0  0
 17 18  1  0  0  0  0
 17 19  1  0  0  0  0
 17 20  1  0  0  0  0
M  END
> <VConfSearch Rank>
765

> <Conf_Id>
63

> <Delta U+W>
0.420

> <U+W>
-35.856

> <U>
22.625

> <W>
-58.481

> <W(PB)>
-60.400

> <W(SA)>
1.919

> <Valence>
2.404

> <Coulomb>
19.464

> <VdW>
0.757

> <VdW6>
-5.074

> <VdW12>
5.830

> <Bond>
0.172

> <Angle>
1.207

> <Pdih>
1.025

> <Idih>
0.000

> <Tether>
0.000

$$$$
VeraChem MOL file


 20 19  0  0  0  0  0  0  0  0999 V2000     
   20.3393   19.9572   21.4361 N   0  3  0  0  0  0  0  0  0  0  0  0
   21.0475   19.2220   21.3661 H   0  0  0  0  0  0  0  0  0  0  0  0
   20.7990   20.7936   21.8042 H   0  0  0  0  0  0  0  0  0  0  0  0
   20.0273   20.1728   20.4855 H   0  0  0  0  0  0  0  0  0  0  0  0
   19.1916   19.5293   22.3101 C   0  0  2  0  0  0  0  0  0  0  0  0
   18.7582   18.6380   21.8465 H   0  0  0  0  0  0  0  0  0  0  0  0
   18.1082   20.6191   22.3559 C   0  0  0  0  0  0  0  0  0  0  0  0
   17.7537   20.8571   21.3455 H   0  0  0  0  0  0  0  0  0  0  0  0
   18.4911   21.5417   22.8098 H   0  0  0  0  0  0  0  0  0  0  0  0
   17.2429   20.2841   22.9413 H   0  0  0  0  0  0  0  0  0  0  0  0
   19.6440   19.1598   23.7411 C   0  0  0  0  0  0  0  0  0  0  0  0
   20.0676   20.0473   24.2297 H   0  0  0  0  0  0  0  0  0  0  0  0
   18.7631   18.8757   24.3321 H   0  0  0  0  0  0  0  0  0  0  0  0
   20.6767   18.0059   23.8026 C   0  0  0  0  0  0  0  0  0  0  0  0
   20.9374   17.8218   24.8543 H   0  0  0  0  0  0  0  0  0  0  0  0
   21.6110   18.3052   23.3085 H   0  0  0  0  0  0  0  0  0  0  0  0
   20.1546   16.6915   23.1788 C   0  0  0  0  0  0  0  0  0  0  0  0
   19.2198   16.3718   23.6574 H   0  0  0  0  0  0  0  0  0  0  0  0
   20.8891   15.8860   23.3084 H   0  0  0  0  0  0  0  0  0  0  0  0
   19.9692   16.7995   22.1028 H   0  0  0  0  0  0  0  0  0  0  0  0
  1  2  1  0  0  0  0
  1  3  1  0  0  0  0
  1  4  1  0  0  0  0
  1  5  1  0  0  0  0
  5  6  1  0  0  0  0
  5  7  1  0  0  0  0
  7  8  1  0  0  0  0
  7  9  1  0  0  0  0
  7 10  1  0  0  0  0
  5 11  1  0  0  0  0
 11 12  1  0  0  0  0
 11 13  1  0  0  0  0
 11 14  1  0  0  0  0
 14 15  1  0  0  0  0
 14 16  1  0  0  0  0
 14 17  1  0  0  0  0
 17 18  1  0  0  0  0
 17 19  1  0  0  0  0
 17 20  1  0  0  0  0
M  END
> <VConfSearch Rank>
766

> <Conf_Id>
50

> <Delta U+W>
0.466

> <U+W>
-35.811

> <U>
22.369

> <W>
-58.180

> <W(PB)>
-60.103

> <W(SA)>
1.923

> <Valence>
2.168

> <Coulomb>
19.636

> <VdW>
0.566

> <VdW6>
-5.263

> <VdW12>
5.829

> <Bond>
0.162

> <Angle>
1.066

> <Pdih>
0.939

> <Idih>
0.000

> <Tether>
0.000

$$$$
VeraChem MOL file


 20 19  0  0  0  0  0  0  0  0999 V2000     
   19.1948   16.6761   23.1680 N   0  3  0  0  0  0  0  0  0  0  0  0
   20.0946   16.2457   23.3982 H   0  0  0  0  0  0  0  0  0  0  0  0
   18.8818   16.2772   22.2793 H   0  0  0  0  0  0  0  0  0  0  0  0
   18.5268   16.3819   23.8856 H   0  0  0  0  0  0  0  0  0  0  0  0
   19.2993   18.1755   23.0946 C   0  0  2  0  0  0  0  0  0  0  0  0
   19.6406   18.5058   24.0806 H   0  0  0  0  0  0  0  0  0  0  0  0
   17.9127   18.7875   22.8215 C   0  0  0  0  0  0  0  0  0  0  0  0
   17.5112   18.4434   21.8602 H   0  0  0  0  0  0  0  0  0  0  0  0
   17.9531   19.8819   22.7965 H   0  0  0  0  0  0  0  0  0  0  0  0
   17.2026   18.5012   23.6070 H   0  0  0  0  0  0  0  0  0  0  0  0
   20.3434   18.6316   22.0457 C   0  0  0  0  0  0  0  0  0  0  0  0
   20.9975   17.7852   21.7981 H   0  0  0  0  0  0  0  0  0  0  0  0
   19.8475   18.9066   21.1053 H   0  0  0  0  0  0  0  0  0  0  0  0
   21.2520   19.7908   22.5279 C   0  0  0  0  0  0  0  0  0  0  0  0
   22.0057   19.9912   21.7534 H   0  0  0  0  0  0  0  0  0  0  0  0
   21.8092   19.4738   23.4207 H   0  0  0  0  0  0  0  0  0  0  0  0
   20.4949   21.1017   22.8351 C   0  0  0  0  0  0  0  0  0  0  0  0
   19.8933   21.4230   21.9750 H   0  0  0  0  0  0  0  0  0  0  0  0
   21.2029   21.9078   23.0678 H   0  0  0  0  0  0  0  0  0  0  0  0
   19.8319   20.9882   23.7019 H   0  0  0  0  0  0  0  0  0  0  0  0
  1  2  1  0  0  0  0
  1  3  1  0  0  0  0
  1  4  1  0  0  0  0
  1  5  1  0  0  0  0
  5  6  1  0  0  0  0
  5  7  1  0  0  0  0
  7  8  1  0  0  0  0
  7  9  1  0  0  0  0
  7 10  1  0  0  0  0
  5 11  1  0  0  0  0
 11 12  1  0  0  0  0
 11 13  1  0  0  0  0
 11 14  1  0  0  0  0
 14 15  1  0  0  0  0
 14 16  1  0  0  0  0
 14 17  1  0  0  0  0
 17 18  1  0  0  0  0
 17 19  1  0  0  0  0
 17 20  1  0  0  0  0
M  END
> <VConfSearch Rank>
767

> <Conf_Id>
3

> <Delta U+W>
3.093

> <U+W>
-33.184

> <U>
25.256

> <W>
-58.439

> <W(PB)>
-60.337

> <W(SA)>
1.898

> <Valence>
4.963

> <Coulomb>
19.511

> <VdW>
0.782

> <VdW6>
-5.429

> <VdW12>
6.211

> <Bond>
0.174

> <Angle>
1.377

> <Pdih>
3.412

> <Idih>
0.000

> <Tether>
0.000

$$$$
VeraChem MOL file


 20 19  0  0  0  0  0  0  0  0999 V2000     
   19.5298   16.7815   23.4903 N   0  3  0  0  0  0  0  0  0  0  0  0
   20.1123   16.0264   23.1186 H   0  0  0  0  0  0  0  0  0  0  0  0
   18.5552   16.5332   23.2996 H   0  0  0  0  0  0  0  0  0  0  0  0
   19.6514   16.7872   24.5061 H   0  0  0  0  0  0  0  0  0  0  0  0
   19.8940   18.1083   22.8827 C   0  0  2  0  0  0  0  0  0  0  0  0
   19.7374   18.0052   21.8047 H   0  0  0  0  0  0  0  0  0  0  0  0
   21.3811   18.4205   23.1302 C   0  0  0  0  0  0  0  0  0  0  0  0
   21.6975   19.3127   22.5775 H   0  0  0  0  0  0  0  0  0  0  0  0
   22.0121   17.5892   22.7928 H   0  0  0  0  0  0  0  0  0  0  0  0
   21.5797   18.5877   24.1961 H   0  0  0  0  0  0  0  0  0  0  0  0
   18.9694   19.2350   23.4025 C   0  0  0  0  0  0  0  0  0  0  0  0
   17.9254   18.9209   23.2721 H   0  0  0  0  0  0  0  0  0  0  0  0
   19.1177   19.3569   24.4836 H   0  0  0  0  0  0  0  0  0  0  0  0
   19.1556   20.6082   22.7079 C   0  0  0  0  0  0  0  0  0  0  0  0
   20.1507   21.0165   22.9301 H   0  0  0  0  0  0  0  0  0  0  0  0
   18.4367   21.3200   23.1373 H   0  0  0  0  0  0  0  0  0  0  0  0
   18.9460   20.5466   21.1777 C   0  0  0  0  0  0  0  0  0  0  0  0
   17.9573   20.1384   20.9306 H   0  0  0  0  0  0  0  0  0  0  0  0
   19.7066   19.9230   20.6912 H   0  0  0  0  0  0  0  0  0  0  0  0
   19.0125   21.5510   20.7397 H   0  0  0  0  0  0  0  0  0  0  0  0
  1  2  1  0  0  0  0
  1  3  1  0  0  0  0
  1  4  1  0  0  0  0
  1  5  1  0  0  0  0
  5  6  1  0  0  0  0
  5  7  1  0  0  0  0
  7  8  1  0  0  0  0
  7  9  1  0  0  0  0
  7 10  1  0  0  0  0
  5 11  1  0  0  0  0
 11 12  1  0  0  0  0
 11 13  1  0  0  0  0
 11 14  1  0  0  0  0
 14 15  1  0  0  0  0
 14 16  1  0  0  0  0
 14 17  1  0  0  0  0
 17 18  1  0  0  0  0
 17 19  1  0  0  0  0
 17 20  1  0  0  0  0
M  END
> <VConfSearch Rank>
768

> <Conf_Id>
64

> <Delta U+W>
0.544

> <U+W>
-35.732

> <U>
22.800

> <W>
-58.532

> <W(PB)>
-60.437

> <W(SA)>
1.905

> <Valence>
2.662

> <Coulomb>
19.485

> <VdW>
0.653

> <VdW6>
-5.460

> <VdW12>
6.113

> <Bond>
0.174

> <Angle>
1.378

> <Pdih>
1.109

> <Idih>
0.000

> <Tether>
0.000

$$$$
VeraChem MOL file


 20 19  0  0  0  0  0  0  0  0999 V2000     
   21.2645   18.8734   24.2053 N   0  3  0  0  0  0  0  0  0  0  0  0
   20.4906   18.3800   24.6557 H   0  0  0  0  0  0  0  0  0  0  0  0
   21.6187   19.5621   24.8746 H   0  0  0  0  0  0  0  0  0  0  0  0
   22.0120   18.1925   24.0463 H   0  0  0  0  0  0  0  0  0  0  0  0
   20.8287   19.5271   22.9217 C   0  0  2  0  0  0  0  0  0  0  0  0
   21.7157   20.0326   22.5273 H   0  0  0  0  0  0  0  0  0  0  0  0
   19.7663   20.6057   23.1891 C   0  0  0  0  0  0  0  0  0  0  0  0
   18.8960   20.1914   23.7112 H   0  0  0  0  0  0  0  0  0  0  0  0
   19.4270   21.0615   22.2507 H   0  0  0  0  0  0  0  0  0  0  0  0
   20.1812   21.4046   23.8157 H   0  0  0  0  0  0  0  0  0  0  0  0
   20.3860   18.4942   21.8549 C   0  0  0  0  0  0  0  0  0  0  0  0
   20.2476   19.0022   20.8915 H   0  0  0  0  0  0  0  0  0  0  0  0
   21.2256   17.8041   21.6985 H   0  0  0  0  0  0  0  0  0  0  0  0
   19.1229   17.6547   22.1941 C   0  0  0  0  0  0  0  0  0  0  0  0
   19.0351   17.4990   23.2774 H   0  0  0  0  0  0  0  0  0  0  0  0
   19.2452   16.6537   21.7572 H   0  0  0  0  0  0  0  0  0  0  0  0
   17.8123   18.2566   21.6349 C   0  0  0  0  0  0  0  0  0  0  0  0
   17.5955   19.2427   22.0597 H   0  0  0  0  0  0  0  0  0  0  0  0
   16.9612   17.6030   21.8662 H   0  0  0  0  0  0  0  0  0  0  0  0
   17.8625   18.3617   20.5433 H   0  0  0  0  0  0  0  0  0  0  0  0
  1  2  1  0  0  0  0
  1  3  1  0  0  0  0
  1  4  1  0  0  0  0
  1  5  1  0  0  0  0
  5  6  1  0  0  0  0
  5  7  1  0  0  0  0
  7  8  1  0  0  0  0
  7  9  1  0  0  0  0
  7 10  1  0  0  0  0
  5 11  1  0  0  0  0
 11 12  1  0  0  0  0
 11 13  1  0  0  0  0
 11 14  1  0  0  0  0
 14 15  1  0  0  0  0
 14 16  1  0  0  0  0
 14 17  1  0  0  0  0
 17 18  1  0  0  0  0
 17 19  1  0  0  0  0
 17 20  1  0  0  0  0
M  END
> <VConfSearch Rank>
769

> <Conf_Id>
35

> <Delta U+W>
3.004

> <U+W>
-33.272

> <U>
25.367

> <W>
-58.639

> <W(PB)>
-60.512

> <W(SA)>
1.873

> <Valence>
4.943

> <Coulomb>
19.661

> <VdW>
0.764

> <VdW6>
-5.871

> <VdW12>
6.636

> <Bond>
0.230

> <Angle>
1.857

> <Pdih>
2.855

> <Idih>
0.000

> <Tether>
0.000

$$$$
VeraChem MOL file


 20 19  0  0  0  0  0  0  0  0999 V2000     
   19.3895   20.6094   23.2603 N   0  3  0  0  0  0  0  0  0  0  0  0
   18.7336   21.0529   23.9088 H   0  0  0  0  0  0  0  0  0  0  0  0
   19.7297   21.3370   22.6260 H   0  0  0  0  0  0  0  0  0  0  0  0
   20.1889   20.2800   23.8048 H   0  0  0  0  0  0  0  0  0  0  0  0
   18.7419   19.4803   22.5064 C   0  0  2  0  0  0  0  0  0  0  0  0
   17.9240   19.9403   21.9430 H   0  0  0  0  0  0  0  0  0  0  0  0
   18.1160   18.4514   23.4646 C   0  0  0  0  0  0  0  0  0  0  0  0
   18.8661   18.0116   24.1326 H   0  0  0  0  0  0  0  0  0  0  0  0
   17.6358   17.6399   22.9041 H   0  0  0  0  0  0  0  0  0  0  0  0
   17.3479   18.9247   24.0883 H   0  0  0  0  0  0  0  0  0  0  0  0
   19.6868   18.8226   21.4682 C   0  0  0  0  0  0  0  0  0  0  0  0
   19.0642   18.2496   20.7684 H   0  0  0  0  0  0  0  0  0  0  0  0
   20.1539   19.6107   20.8633 H   0  0  0  0  0  0  0  0  0  0  0  0
   20.7900   17.8710   22.0104 C   0  0  0  0  0  0  0  0  0  0  0  0
   21.3354   17.4590   21.1499 H   0  0  0  0  0  0  0  0  0  0  0  0
   20.3346   17.0061   22.5116 H   0  0  0  0  0  0  0  0  0  0  0  0
   21.8123   18.5410   22.9564 C   0  0  0  0  0  0  0  0  0  0  0  0
   22.2216   19.4590   22.5148 H   0  0  0  0  0  0  0  0  0  0  0  0
   22.6528   17.8618   23.1496 H   0  0  0  0  0  0  0  0  0  0  0  0
   21.3655   18.7831   23.9275 H   0  0  0  0  0  0  0  0  0  0  0  0
  1  2  1  0  0  0  0
  1  3  1  0  0  0  0
  1  4  1  0  0  0  0
  1  5  1  0  0  0  0
  5  6  1  0  0  0  0
  5  7  1  0  0  0  0
  7  8  1  0  0  0  0
  7  9  1  0  0  0  0
  7 10  1  0  0  0  0
  5 11  1  0  0  0  0
 11 12  1  0  0  0  0
 11 13  1  0  0  0  0
 11 14  1  0  0  0  0
 14 15  1  0  0  0  0
 14 16  1  0  0  0  0
 14 17  1  0  0  0  0
 17 18  1  0  0  0  0
 17 19  1  0  0  0  0
 17 20  1  0  0  0  0
M  END
> <VConfSearch Rank>
770

> <Conf_Id>
55

> <Delta U+W>
2.767

> <U+W>
-33.509

> <U>
24.552

> <W>
-58.061

> <W(PB)>
-59.930

> <W(SA)>
1.869

> <Valence>
3.726

> <Coulomb>
20.219

> <VdW>
0.606

> <VdW6>
-6.395

> <VdW12>
7.001

> <Bond>
0.241

> <Angle>
2.098

> <Pdih>
1.387

> <Idih>
0.000

> <Tether>
0.000

$$$$
VeraChem MOL file


 20 19  0  0  0  0  0  0  0  0999 V2000     
   20.8507   20.2066   21.6690 N   0  3  0  0  0  0  0  0  0  0  0  0
   21.5361   19.5272   21.3297 H   0  0  0  0  0  0  0  0  0  0  0  0
   21.2997   21.1263   21.6545 H   0  0  0  0  0  0  0  0  0  0  0  0
   20.0830   20.2328   20.9934 H   0  0  0  0  0  0  0  0  0  0  0  0
   20.3612   19.8544   23.0479 C   0  0  2  0  0  0  0  0  0  0  0  0
   19.6352   20.6231   23.3302 H   0  0  0  0  0  0  0  0  0  0  0  0
   21.5195   19.8925   24.0583 C   0  0  0  0  0  0  0  0  0  0  0  0
   22.0028   20.8772   24.0583 H   0  0  0  0  0  0  0  0  0  0  0  0
   22.2801   19.1385   23.8196 H   0  0  0  0  0  0  0  0  0  0  0  0
   21.1563   19.7009   25.0756 H   0  0  0  0  0  0  0  0  0  0  0  0
   19.6536   18.4820   23.0940 C   0  0  0  0  0  0  0  0  0  0  0  0
   20.3555   17.6936   22.7913 H   0  0  0  0  0  0  0  0  0  0  0  0
   19.3685   18.2652   24.1321 H   0  0  0  0  0  0  0  0  0  0  0  0
   18.3870   18.4236   22.2064 C   0  0  0  0  0  0  0  0  0  0  0  0
   18.6539   18.5818   21.1527 H   0  0  0  0  0  0  0  0  0  0  0  0
   17.7008   19.2355   22.4863 H   0  0  0  0  0  0  0  0  0  0  0  0
   17.6582   17.0694   22.3416 C   0  0  0  0  0  0  0  0  0  0  0  0
   18.3092   16.2386   22.0395 H   0  0  0  0  0  0  0  0  0  0  0  0
   16.7642   17.0449   21.7051 H   0  0  0  0  0  0  0  0  0  0  0  0
   17.3385   16.8938   23.3771 H   0  0  0  0  0  0  0  0  0  0  0  0
  1  2  1  0  0  0  0
  1  3  1  0  0  0  0
  1  4  1  0  0  0  0
  1  5  1  0  0  0  0
  5  6  1  0  0  0  0
  5  7  1  0  0  0  0
  7  8  1  0  0  0  0
  7  9  1  0  0  0  0
  7 10  1  0  0  0  0
  5 11  1  0  0  0  0
 11 12  1  0  0  0  0
 11 13  1  0  0  0  0
 11 14  1  0  0  0  0
 14 15  1  0  0  0  0
 14 16  1  0  0  0  0
 14 17  1  0  0  0  0
 17 18  1  0  0  0  0
 17 19  1  0  0  0  0
 17 20  1  0  0  0  0
M  END
> <VConfSearch Rank>
771

> <Conf_Id>
74

> <Delta U+W>
0.000

> <U+W>
-36.276

> <U>
22.080

> <W>
-58.356

> <W(PB)>
-60.289

> <W(SA)>
1.932

> <Valence>
1.885

> <Coulomb>
19.559

> <VdW>
0.637

> <VdW6>
-4.482

> <VdW12>
5.119

> <Bond>
0.136

> <Angle>
0.867

> <Pdih>
0.882

> <Idih>
0.000

> <Tether>
0.000

$$$$
VeraChem MOL file


 20 19  0  0  0  0  0  0  0  0999 V2000     
   19.9106   20.6445   21.0586 N   0  3  0  0  0  0  0  0  0  0  0  0
   20.8826   20.5433   20.7540 H   0  0  0  0  0  0  0  0  0  0  0  0
   19.8676   21.4548   21.6817 H   0  0  0  0  0  0  0  0  0  0  0  0
   19.3558   20.8696   20.2284 H   0  0  0  0  0  0  0  0  0  0  0  0
   19.4080   19.3990   21.7358 C   0  0  2  0  0  0  0  0  0  0  0  0
   19.4884   18.5938   20.9989 H   0  0  0  0  0  0  0  0  0  0  0  0
   17.9256   19.5609   22.1191 C   0  0  0  0  0  0  0  0  0  0  0  0
   17.3335   19.8721   21.2498 H   0  0  0  0  0  0  0  0  0  0  0  0
   17.7986   20.3162   22.9047 H   0  0  0  0  0  0  0  0  0  0  0  0
   17.5005   18.6166   22.4781 H   0  0  0  0  0  0  0  0  0  0  0  0
   20.2880   19.0303   22.9529 C   0  0  0  0  0  0  0  0  0  0  0  0
   21.3393   19.0371   22.6361 H   0  0  0  0  0  0  0  0  0  0  0  0
   20.1918   19.8035   23.7266 H   0  0  0  0  0  0  0  0  0  0  0  0
   19.9666   17.6425   23.5595 C   0  0  0  0  0  0  0  0  0  0  0  0
   20.0011   16.8767   22.7718 H   0  0  0  0  0  0  0  0  0  0  0  0
   18.9480   17.6323   23.9696 H   0  0  0  0  0  0  0  0  0  0  0  0
   20.9590   17.2674   24.6812 C   0  0  0  0  0  0  0  0  0  0  0  0
   21.9880   17.2240   24.3013 H   0  0  0  0  0  0  0  0  0  0  0  0
   20.7145   16.2835   25.1021 H   0  0  0  0  0  0  0  0  0  0  0  0
   20.9269   18.0002   25.4980 H   0  0  0  0  0  0  0  0  0  0  0  0
  1  2  1  0  0  0  0
  1  3  1  0  0  0  0
  1  4  1  0  0  0  0
  1  5  1  0  0  0  0
  5  6  1  0  0  0  0
  5  7  1  0  0  0  0
  7  8  1  0  0  0  0
  7  9  1  0  0  0  0
  7 10  1  0  0  0  0
  5 11  1  0  0  0  0
 11 12  1  0  0  0  0
 11 13  1  0  0  0  0
 11 14  1  0  0  0  0
 14 15  1  0  0  0  0
 14 16  1  0  0  0  0
 14 17  1  0  0  0  0
 17 18  1  0  0  0  0
 17 19  1  0  0  0  0
 17 20  1  0  0  0  0
M  END
> <VConfSearch Rank>
772

> <Conf_Id>
80

> <Delta U+W>
0.460

> <U+W>
-35.817

> <U>
22.495

> <W>
-58.311

> <W(PB)>
-60.259

> <W(SA)>
1.948

> <Valence>
2.419

> <Coulomb>
19.304

> <VdW>
0.772

> <VdW6>
-4.635

> <VdW12>
5.407

> <Bond>
0.149

> <Angle>
1.142

> <Pdih>
1.129

> <Idih>
0.000

> <Tether>
0.000

$$$$
VeraChem MOL file


 20 19  0  0  0  0  0  0  0  0999 V2000     
   19.8097   18.4219   20.3720 N   0  3  0  0  0  0  0  0  0  0  0  0
   19.8430   17.4145   20.1934 H   0  0  0  0  0  0  0  0  0  0  0  0
   20.7543   18.7893   20.2325 H   0  0  0  0  0  0  0  0  0  0  0  0
   19.2126   18.8369   19.6517 H   0  0  0  0  0  0  0  0  0  0  0  0
   19.2979   18.7252   21.7536 C   0  0  2  0  0  0  0  0  0  0  0  0
   18.2895   18.3031   21.8060 H   0  0  0  0  0  0  0  0  0  0  0  0
   19.1908   20.2458   21.9597 C   0  0  0  0  0  0  0  0  0  0  0  0
   18.6444   20.7117   21.1306 H   0  0  0  0  0  0  0  0  0  0  0  0
   20.1828   20.7106   22.0182 H   0  0  0  0  0  0  0  0  0  0  0  0
   18.6408   20.4796   22.8783 H   0  0  0  0  0  0  0  0  0  0  0  0
   20.1654   18.0314   22.8322 C   0  0  0  0  0  0  0  0  0  0  0  0
   20.2120   16.9636   22.5805 H   0  0  0  0  0  0  0  0  0  0  0  0
   21.1998   18.3958   22.7792 H   0  0  0  0  0  0  0  0  0  0  0  0
   19.6276   18.1513   24.2828 C   0  0  0  0  0  0  0  0  0  0  0  0
   19.8277   17.2076   24.8096 H   0  0  0  0  0  0  0  0  0  0  0  0
   18.5347   18.2666   24.2769 H   0  0  0  0  0  0  0  0  0  0  0  0
   20.2859   19.2950   25.0900 C   0  0  0  0  0  0  0  0  0  0  0  0
   21.3711   19.1473   25.1655 H   0  0  0  0  0  0  0  0  0  0  0  0
   19.8833   19.3256   26.1108 H   0  0  0  0  0  0  0  0  0  0  0  0
   20.1106   20.2763   24.6351 H   0  0  0  0  0  0  0  0  0  0  0  0
  1  2  1  0  0  0  0
  1  3  1  0  0  0  0
  1  4  1  0  0  0  0
  1  5  1  0  0  0  0
  5  6  1  0  0  0  0
  5  7  1  0  0  0  0
  7  8  1  0  0  0  0
  7  9  1  0  0  0  0
  7 10  1  0  0  0  0
  5 11  1  0  0  0  0
 11 12  1  0  0  0  0
 11 13  1  0  0  0  0
 11 14  1  0  0  0  0
 14 15  1  0  0  0  0
 14 16  1  0  0  0  0
 14 17  1  0  0  0  0
 17 18  1  0  0  0  0
 17 19  1  0  0  0  0
 17 20  1  0  0  0  0
M  END
> <VConfSearch Rank>
773

> <Conf_Id>
52

> <Delta U+W>
2.995

> <U+W>
-33.282

> <U>
25.224

> <W>
-58.506

> <W(PB)>
-60.411

> <W(SA)>
1.905

> <Valence>
4.945

> <Coulomb>
19.467

> <VdW>
0.813

> <VdW6>
-5.458

> <VdW12>
6.270

> <Bond>
0.200

> <Angle>
1.675

> <Pdih>
3.070

> <Idih>
0.000

> <Tether>
0.000

$$$$
VeraChem MOL file


 20 19  0  0  0  0  0  0  0  0999 V2000     
   20.1147   17.9388   21.5824 N   0  3  0  0  0  0  0  0  0  0  0  0
   20.0948   17.0310   22.0535 H   0  0  0  0  0  0  0  0  0  0  0  0
   20.6764   17.8310   20.7336 H   0  0  0  0  0  0  0  0  0  0  0  0
   19.1579   18.1549   21.2944 H   0  0  0  0  0  0  0  0  0  0  0  0
   20.6700   19.0106   22.4803 C   0  0  2  0  0  0  0  0  0  0  0  0
   20.7050   19.9349   21.8952 H   0  0  0  0  0  0  0  0  0  0  0  0
   22.1064   18.6501   22.8959 C   0  0  0  0  0  0  0  0  0  0  0  0
   22.1268   17.7352   23.5012 H   0  0  0  0  0  0  0  0  0  0  0  0
   22.5582   19.4589   23.4836 H   0  0  0  0  0  0  0  0  0  0  0  0
   22.7380   18.4904   22.0134 H   0  0  0  0  0  0  0  0  0  0  0  0
   19.7931   19.2596   23.7305 C   0  0  0  0  0  0  0  0  0  0  0  0
   19.5284   18.3025   24.1989 H   0  0  0  0  0  0  0  0  0  0  0  0
   20.3910   19.8023   24.4749 H   0  0  0  0  0  0  0  0  0  0  0  0
   18.5146   20.0992   23.4713 C   0  0  0  0  0  0  0  0  0  0  0  0
   18.7918   21.0742   23.0463 H   0  0  0  0  0  0  0  0  0  0  0  0
   18.0446   20.3150   24.4411 H   0  0  0  0  0  0  0  0  0  0  0  0
   17.4648   19.4201   22.5625 C   0  0  0  0  0  0  0  0  0  0  0  0
   16.5201   19.9786   22.5922 H   0  0  0  0  0  0  0  0  0  0  0  0
   17.2544   18.3944   22.8924 H   0  0  0  0  0  0  0  0  0  0  0  0
   17.7895   19.3985   21.5158 H   0  0  0  0  0  0  0  0  0  0  0  0
  1  2  1  0  0  0  0
  1  3  1  0  0  0  0
  1  4  1  0  0  0  0
  1  5  1  0  0  0  0
  5  6  1  0  0  0  0
  5  7  1  0  0  0  0
  7  8  1  0  0  0  0
  7  9  1  0  0  0  0
  7 10  1  0  0  0  0
  5 11  1  0  0  0  0
 11 12  1  0  0  0  0
 11 13  1  0  0  0  0
 11 14  1  0  0  0  0
 14 15  1  0  0  0  0
 14 16  1  0  0  0  0
 14 17  1  0  0  0  0
 17 18  1  0  0  0  0
 17 19  1  0  0  0  0
 17 20  1  0  0  0  0
M  END
> <VConfSearch Rank>
774

> <Conf_Id>
54

> <Delta U+W>
2.752

> <U+W>
-33.525

> <U>
24.337

> <W>
-57.862

> <W(PB)>
-59.764

> <W(SA)>
1.901

> <Valence>
3.593

> <Coulomb>
20.067

> <VdW>
0.677

> <VdW6>
-5.466

> <VdW12>
6.144

> <Bond>
0.191

> <Angle>
1.557

> <Pdih>
1.845

> <Idih>
0.000

> <Tether>
0.000

$$$$
VeraChem MOL file


 20 19  0  0  0  0  0  0  0  0999 V2000     
   19.6777   17.4539   24.1139 N   0  3  0  0  0  0  0  0  0  0  0  0
   19.1118   16.6808   24.4742 H   0  0  0  0  0  0  0  0  0  0  0  0
   20.2207   17.8241   24.8987 H   0  0  0  0  0  0  0  0  0  0  0  0
   20.3393   17.0602   23.4410 H   0  0  0  0  0  0  0  0  0  0  0  0
   18.8198   18.5175   23.4841 C   0  0  2  0  0  0  0  0  0  0  0  0
   18.1399   18.8623   24.2695 H   0  0  0  0  0  0  0  0  0  0  0  0
   17.9593   17.9337   22.3494 C   0  0  0  0  0  0  0  0  0  0  0  0
   17.3367   18.7125   21.8917 H   0  0  0  0  0  0  0  0  0  0  0  0
   17.2881   17.1578   22.7375 H   0  0  0  0  0  0  0  0  0  0  0  0
   18.5756   17.4804   21.5641 H   0  0  0  0  0  0  0  0  0  0  0  0
   19.6416   19.7437   23.0192 C   0  0  0  0  0  0  0  0  0  0  0  0
   18.9497   20.5145   22.6547 H   0  0  0  0  0  0  0  0  0  0  0  0
   20.1420   20.1781   23.8946 H   0  0  0  0  0  0  0  0  0  0  0  0
   20.6989   19.4463   21.9247 C   0  0  0  0  0  0  0  0  0  0  0  0
   20.2112   19.0587   21.0203 H   0  0  0  0  0  0  0  0  0  0  0  0
   21.3942   18.6695   22.2700 H   0  0  0  0  0  0  0  0  0  0  0  0
   21.5023   20.7116   21.5547 C   0  0  0  0  0  0  0  0  0  0  0  0
   22.2447   20.4863   20.7781 H   0  0  0  0  0  0  0  0  0  0  0  0
   22.0381   21.1089   22.4267 H   0  0  0  0  0  0  0  0  0  0  0  0
   20.8424   21.5004   21.1705 H   0  0  0  0  0  0  0  0  0  0  0  0
  1  2  1  0  0  0  0
  1  3  1  0  0  0  0
  1  4  1  0  0  0  0
  1  5  1  0  0  0  0
  5  6  1  0  0  0  0
  5  7  1  0  0  0  0
  7  8  1  0  0  0  0
  7  9  1  0  0  0  0
  7 10  1  0  0  0  0
  5 11  1  0  0  0  0
 11 12  1  0  0  0  0
 11 13  1  0  0  0  0
 11 14  1  0  0  0  0
 14 15  1  0  0  0  0
 14 16  1  0  0  0  0
 14 17  1  0  0  0  0
 17 18  1  0  0  0  0
 17 19  1  0  0  0  0
 17 20  1  0  0  0  0
M  END
> <VConfSearch Rank>
775

> <Conf_Id>
63

> <Delta U+W>
0.420

> <U+W>
-35.856

> <U>
22.625

> <W>
-58.481

> <W(PB)>
-60.400

> <W(SA)>
1.919

> <Valence>
2.404

> <Coulomb>
19.464

> <VdW>
0.757

> <VdW6>
-5.074

> <VdW12>
5.830

> <Bond>
0.172

> <Angle>
1.207

> <Pdih>
1.025

> <Idih>
0.000

> <Tether>
0.000

$$$$
VeraChem MOL file


 20 19  0  0  0  0  0  0  0  0999 V2000     
   20.7174   18.5717   24.1421 N   0  3  0  0  0  0  0  0  0  0  0  0
   20.1383   17.7309   24.2094 H   0  0  0  0  0  0  0  0  0  0  0  0
   20.4917   19.1662   24.9434 H   0  0  0  0  0  0  0  0  0  0  0  0
   21.6932   18.2798   24.2429 H   0  0  0  0  0  0  0  0  0  0  0  0
   20.4880   19.2908   22.8404 C   0  0  2  0  0  0  0  0  0  0  0  0
   20.7542   18.5906   22.0429 H   0  0  0  0  0  0  0  0  0  0  0  0
   21.4089   20.5166   22.7275 C   0  0  0  0  0  0  0  0  0  0  0  0
   22.4612   20.2220   22.8233 H   0  0  0  0  0  0  0  0  0  0  0  0
   21.1878   21.2535   23.5097 H   0  0  0  0  0  0  0  0  0  0  0  0
   21.2884   21.0062   21.7531 H   0  0  0  0  0  0  0  0  0  0  0  0
   19.0121   19.7070   22.6471 C   0  0  0  0  0  0  0  0  0  0  0  0
   18.7302   20.4237   23.4298 H   0  0  0  0  0  0  0  0  0  0  0  0
   18.9136   20.2411   21.6927 H   0  0  0  0  0  0  0  0  0  0  0  0
   18.0116   18.5234   22.6595 C   0  0  0  0  0  0  0  0  0  0  0  0
   16.9957   18.9191   22.5203 H   0  0  0  0  0  0  0  0  0  0  0  0
   18.0127   18.0352   23.6435 H   0  0  0  0  0  0  0  0  0  0  0  0
   18.2968   17.4774   21.5578 C   0  0  0  0  0  0  0  0  0  0  0  0
   18.3006   17.9427   20.5635 H   0  0  0  0  0  0  0  0  0  0  0  0
   17.5242   16.6975   21.5589 H   0  0  0  0  0  0  0  0  0  0  0  0
   19.2649   16.9837   21.7089 H   0  0  0  0  0  0  0  0  0  0  0  0
  1  2  1  0  0  0  0
  1  3  1  0  0  0  0
  1  4  1  0  0  0  0
  1  5  1  0  0  0  0
  5  6  1  0  0  0  0
  5  7  1  0  0  0  0
  7  8  1  0  0  0  0
  7  9  1  0  0  0  0
  7 10  1  0  0  0  0
  5 11  1  0  0  0  0
 11 12  1  0  0  0  0
 11 13  1  0  0  0  0
 11 14  1  0  0  0  0
 14 15  1  0  0  0  0
 14 16  1  0  0  0  0
 14 17  1  0  0  0  0
 17 18  1  0  0  0  0
 17 19  1  0  0  0  0
 17 20  1  0  0  0  0
M  END
> <VConfSearch Rank>
776

> <Conf_Id>
50

> <Delta U+W>
0.466

> <U+W>
-35.811

> <U>
22.369

> <W>
-58.180

> <W(PB)>
-60.103

> <W(SA)>
1.923

> <Valence>
2.168

> <Coulomb>
19.636

> <VdW>
0.566

> <VdW6>
-5.263

> <VdW12>
5.829

> <Bond>
0.162

> <Angle>
1.066

> <Pdih>
0.939

> <Idih>
0.000

> <Tether>
0.000

$$$$
VeraChem MOL file


 20 19  0  0  0  0  0  0  0  0999 V2000     
   20.2117   21.1263   23.0486 N   0  3  0  0  0  0  0  0  0  0  0  0
   19.5238   21.4663   23.7262 H   0  0  0  0  0  0  0  0  0  0  0  0
   20.0197   21.5900   22.1569 H   0  0  0  0  0  0  0  0  0  0  0  0
   21.1312   21.4452   23.3656 H   0  0  0  0  0  0  0  0  0  0  0  0
   20.1647   19.6282   22.9140 C   0  0  2  0  0  0  0  0  0  0  0  0
   20.3769   19.2261   23.9096 H   0  0  0  0  0  0  0  0  0  0  0  0
   21.2626   19.1516   21.9448 C   0  0  0  0  0  0  0  0  0  0  0  0
   21.1142   19.5716   20.9422 H   0  0  0  0  0  0  0  0  0  0  0  0
   21.2736   18.0601   21.8537 H   0  0  0  0  0  0  0  0  0  0  0  0
   22.2527   19.4633   22.2993 H   0  0  0  0  0  0  0  0  0  0  0  0
   18.7635   19.1302   22.4819 C   0  0  0  0  0  0  0  0  0  0  0  0
   18.0287   19.9268   22.6584 H   0  0  0  0  0  0  0  0  0  0  0  0
   18.7402   18.9413   21.4003 H   0  0  0  0  0  0  0  0  0  0  0  0
   18.2780   17.8762   23.2524 C   0  0  0  0  0  0  0  0  0  0  0  0
   17.2511   17.6458   22.9359 H   0  0  0  0  0  0  0  0  0  0  0  0
   18.2223   18.1037   24.3263 H   0  0  0  0  0  0  0  0  0  0  0  0
   19.1565   16.6236   23.0390 C   0  0  0  0  0  0  0  0  0  0  0  0
   19.2672   16.3944   21.9712 H   0  0  0  0  0  0  0  0  0  0  0  0
   18.7019   15.7496   23.5233 H   0  0  0  0  0  0  0  0  0  0  0  0
   20.1554   16.7558   23.4729 H   0  0  0  0  0  0  0  0  0  0  0  0
  1  2  1  0  0  0  0
  1  3  1  0  0  0  0
  1  4  1  0  0  0  0
  1  5  1  0  0  0  0
  5  6  1  0  0  0  0
  5  7  1  0  0  0  0
  7  8  1  0  0  0  0
  7  9  1  0  0  0  0
  7 10  1  0  0  0  0
  5 11  1  0  0  0  0
 11 12  1  0  0  0  0
 11 13  1  0  0  0  0
 11 14  1  0  0  0  0
 14 15  1  0  0  0  0
 14 16  1  0  0  0  0
 14 17  1  0  0  0  0
 17 18  1  0  0  0  0
 17 19  1  0  0  0  0
 17 20  1  0  0  0  0
M  END
> <VConfSearch Rank>
777

> <Conf_Id>
3

> <Delta U+W>
3.093

> <U+W>
-33.184

> <U>
25.256

> <W>
-58.439

> <W(PB)>
-60.337

> <W(SA)>
1.898

> <Valence>
4.963

> <Coulomb>
19.511

> <VdW>
0.782

> <VdW6>
-5.429

> <VdW12>
6.211

> <Bond>
0.174

> <Angle>
1.377

> <Pdih>
3.412

> <Idih>
0.000

> <Tether>
0.000

$$$$
VeraChem MOL file


 20 19  0  0  0  0  0  0  0  0999 V2000     
   19.2945   19.5274   20.5935 N   0  3  0  0  0  0  0  0  0  0  0  0
   18.3570   19.5806   20.1862 H   0  0  0  0  0  0  0  0  0  0  0  0
   19.8154   18.8244   20.0622 H   0  0  0  0  0  0  0  0  0  0  0  0
   19.7474   20.4306   20.4326 H   0  0  0  0  0  0  0  0  0  0  0  0
   19.2405   19.1893   22.0581 C   0  0  2  0  0  0  0  0  0  0  0  0
   18.7410   18.2186   22.1304 H   0  0  0  0  0  0  0  0  0  0  0  0
   18.3955   20.2287   22.8168 C   0  0  0  0  0  0  0  0  0  0  0  0
   18.2294   19.9238   23.8565 H   0  0  0  0  0  0  0  0  0  0  0  0
   17.4092   20.3404   22.3501 H   0  0  0  0  0  0  0  0  0  0  0  0
   18.8836   21.2112   22.8203 H   0  0  0  0  0  0  0  0  0  0  0  0
   20.6620   19.0499   22.6534 C   0  0  0  0  0  0  0  0  0  0  0  0
   21.2398   18.3591   22.0252 H   0  0  0  0  0  0  0  0  0  0  0  0
   21.1772   20.0178   22.5946 H   0  0  0  0  0  0  0  0  0  0  0  0
   20.7128   18.5373   24.1155 C   0  0  0  0  0  0  0  0  0  0  0  0
   20.2586   19.2724   24.7935 H   0  0  0  0  0  0  0  0  0  0  0  0
   21.7646   18.4554   24.4233 H   0  0  0  0  0  0  0  0  0  0  0  0
   20.0287   17.1636   24.3001 C   0  0  0  0  0  0  0  0  0  0  0  0
   20.4649   16.4119   23.6294 H   0  0  0  0  0  0  0  0  0  0  0  0
   18.9514   17.2193   24.0993 H   0  0  0  0  0  0  0  0  0  0  0  0
   20.1548   16.8065   25.3304 H   0  0  0  0  0  0  0  0  0  0  0  0
  1  2  1  0  0  0  0
  1  3  1  0  0  0  0
  1  4  1  0  0  0  0
  1  5  1  0  0  0  0
  5  6  1  0  0  0  0
  5  7  1  0  0  0  0
  7  8  1  0  0  0  0
  7  9  1  0  0  0  0
  7 10  1  0  0  0  0
  5 11  1  0  0  0  0
 11 12  1  0  0  0  0
 11 13  1  0  0  0  0
 11 14  1  0  0  0  0
 14 15  1  0  0  0  0
 14 16  1  0  0  0  0
 14 17  1  0  0  0  0
 17 18  1  0  0  0  0
 17 19  1  0  0  0  0
 17 20  1  0  0  0  0
M  END
> <VConfSearch Rank>
778

> <Conf_Id>
64

> <Delta U+W>
0.544

> <U+W>
-35.732

> <U>
22.800

> <W>
-58.532

> <W(PB)>
-60.437

> <W(SA)>
1.905

> <Valence>
2.662

> <Coulomb>
19.485

> <VdW>
0.653

> <VdW6>
-5.460

> <VdW12>
6.113

> <Bond>
0.174

> <Angle>
1.378

> <Pdih>
1.109

> <Idih>
0.000

> <Tether>
0.000

$$$$
VeraChem MOL file


 20 19  0  0  0  0  0  0  0  0999 V2000     
   19.7523   20.2204   21.0344 N   0  3  0  0  0  0  0  0  0  0  0  0
   19.6438   19.3065   20.5891 H   0  0  0  0  0  0  0  0  0  0  0  0
   20.4737   20.7291   20.5164 H   0  0  0  0  0  0  0  0  0  0  0  0
   18.8731   20.7294   20.9094 H   0  0  0  0  0  0  0  0  0  0  0  0
   20.1117   20.0852   22.4895 C   0  0  2  0  0  0  0  0  0  0  0  0
   20.2154   21.1068   22.8683 H   0  0  0  0  0  0  0  0  0  0  0  0
   21.4747   19.3935   22.6555 C   0  0  0  0  0  0  0  0  0  0  0  0
   21.4861   18.4082   22.1751 H   0  0  0  0  0  0  0  0  0  0  0  0
   21.7230   19.2681   23.7166 H   0  0  0  0  0  0  0  0  0  0  0  0
   22.2682   19.9964   22.1974 H   0  0  0  0  0  0  0  0  0  0  0  0
   18.9871   19.4100   23.3143 C   0  0  0  0  0  0  0  0  0  0  0  0
   19.2199   19.4930   24.3840 H   0  0  0  0  0  0  0  0  0  0  0  0
   18.0744   20.0034   23.1715 H   0  0  0  0  0  0  0  0  0  0  0  0
   18.6670   17.9315   22.9580 C   0  0  0  0  0  0  0  0  0  0  0  0
   18.8546   17.7354   21.8941 H   0  0  0  0  0  0  0  0  0  0  0  0
   17.5909   17.7649   23.1074 H   0  0  0  0  0  0  0  0  0  0  0  0
   19.4287   16.9065   23.8308 C   0  0  0  0  0  0  0  0  0  0  0  0
   20.5142   16.9797   23.7025 H   0  0  0  0  0  0  0  0  0  0  0  0
   19.1331   15.8831   23.5659 H   0  0  0  0  0  0  0  0  0  0  0  0
   19.2029   17.0520   24.8951 H   0  0  0  0  0  0  0  0  0  0  0  0
  1  2  1  0  0  0  0
  1  3  1  0  0  0  0
  1  4  1  0  0  0  0
  1  5  1  0  0  0  0
  5  6  1  0  0  0  0
  5  7  1  0  0  0  0
  7  8  1  0  0  0  0
  7  9  1  0  0  0  0
  7 10  1  0  0  0  0
  5 11  1  0  0  0  0
 11 12  1  0  0  0  0
 11 13  1  0  0  0  0
 11 14  1  0  0  0  0
 14 15  1  0  0  0  0
 14 16  1  0  0  0  0
 14 17  1  0  0  0  0
 17 18  1  0  0  0  0
 17 19  1  0  0  0  0
 17 20  1  0  0  0  0
M  END
> <VConfSearch Rank>
779

> <Conf_Id>
35

> <Delta U+W>
3.004

> <U+W>
-33.272

> <U>
25.367

> <W>
-58.639

> <W(PB)>
-60.512

> <W(SA)>
1.873

> <Valence>
4.943

> <Coulomb>
19.661

> <VdW>
0.764

> <VdW6>
-5.871

> <VdW12>
6.636

> <Bond>
0.230

> <Angle>
1.857

> <Pdih>
2.855

> <Idih>
0.000

> <Tether>
0.000

$$$$
VeraChem MOL file


 20 19  0  0  0  0  0  0  0  0999 V2000     
   21.1962   17.9302   23.0983 N   0  3  0  0  0  0  0  0  0  0  0  0
   21.3713   16.9664   23.3951 H   0  0  0  0  0  0  0  0  0  0  0  0
   22.0400   18.4710   23.3060 H   0  0  0  0  0  0  0  0  0  0  0  0
   21.0780   17.9254   22.0834 H   0  0  0  0  0  0  0  0  0  0  0  0
   19.9888   18.5083   23.7842 C   0  0  2  0  0  0  0  0  0  0  0  0
   20.2272   18.4913   24.8523 H   0  0  0  0  0  0  0  0  0  0  0  0
   18.7477   17.6219   23.5778 C   0  0  0  0  0  0  0  0  0  0  0  0
   18.5000   17.5131   22.5152 H   0  0  0  0  0  0  0  0  0  0  0  0
   17.8769   18.0462   24.0928 H   0  0  0  0  0  0  0  0  0  0  0  0
   18.9196   16.6188   23.9866 H   0  0  0  0  0  0  0  0  0  0  0  0
   19.7269   19.9889   23.4070 C   0  0  0  0  0  0  0  0  0  0  0  0
   19.0517   20.4101   24.1634 H   0  0  0  0  0  0  0  0  0  0  0  0
   20.6637   20.5524   23.5076 H   0  0  0  0  0  0  0  0  0  0  0  0
   19.1077   20.2698   22.0090 C   0  0  0  0  0  0  0  0  0  0  0  0
   18.9464   21.3533   21.9210 H   0  0  0  0  0  0  0  0  0  0  0  0
   18.1095   19.8169   21.9365 H   0  0  0  0  0  0  0  0  0  0  0  0
   19.9749   19.8103   20.8149 C   0  0  0  0  0  0  0  0  0  0  0  0
   21.0050   20.1787   20.9057 H   0  0  0  0  0  0  0  0  0  0  0  0
   19.5640   20.2007   19.8748 H   0  0  0  0  0  0  0  0  0  0  0  0
   19.9951   18.7180   20.7273 H   0  0  0  0  0  0  0  0  0  0  0  0
  1  2  1  0  0  0  0
  1  3  1  0  0  0  0
  1  4  1  0  0  0  0
  1  5  1  0  0  0  0
  5  6  1  0  0  0  0
  5  7  1  0  0  0  0
  7  8  1  0  0  0  0
  7  9  1  0  0  0  0
  7 10  1  0  0  0  0
  5 11  1  0  0  0  0
 11 12  1  0  0  0  0
 11 13  1  0  0  0  0
 11 14  1  0  0  0  0
 14 15  1  0  0  0  0
 14 16  1  0  0  0  0
 14 17  1  0  0  0  0
 17 18  1  0  0  0  0
 17 19  1  0  0  0  0
 17 20  1  0  0  0  0
M  END
> <VConfSearch Rank>
780

> <Conf_Id>
55

> <Delta U+W>
2.767

> <U+W>
-33.509

> <U>
24.552

> <W>
-58.061

> <W(PB)>
-59.930

> <W(SA)>
1.869

> <Valence>
3.726

> <Coulomb>
20.219

> <VdW>
0.606

> <VdW6>
-6.395

> <VdW12>
7.001

> <Bond>
0.241

> <Angle>
2.098

> <Pdih>
1.387

> <Idih>
0.000

> <Tether>
0.000

$$$$
VeraChem MOL file


 20 19  0  0  0  0  0  0  0  0999 V2000     
   19.7469   16.9867   22.8254 N   0  3  0  0  0  0  0  0  0  0  0  0
   20.6366   16.8804   23.3191 H   0  0  0  0  0  0  0  0  0  0  0  0
   19.5731   16.1147   22.3184 H   0  0  0  0  0  0  0  0  0  0  0  0
   19.0124   17.0789   23.5316 H   0  0  0  0  0  0  0  0  0  0  0  0
   19.7704   18.1695   21.8951 C   0  0  2  0  0  0  0  0  0  0  0  0
   18.7877   18.2121   21.4151 H   0  0  0  0  0  0  0  0  0  0  0  0
   20.8323   17.9745   20.8004 C   0  0  0  0  0  0  0  0  0  0  0  0
   20.6507   17.0469   20.2437 H   0  0  0  0  0  0  0  0  0  0  0  0
   21.8408   17.9236   21.2296 H   0  0  0  0  0  0  0  0  0  0  0  0
   20.8085   18.8031   20.0817 H   0  0  0  0  0  0  0  0  0  0  0  0
   20.0032   19.5040   22.6373 C   0  0  0  0  0  0  0  0  0  0  0  0
   20.9748   19.4782   23.1485 H   0  0  0  0  0  0  0  0  0  0  0  0
   20.0598   20.3148   21.8988 H   0  0  0  0  0  0  0  0  0  0  0  0
   18.8851   19.8339   23.6554 C   0  0  0  0  0  0  0  0  0  0  0  0
   18.8454   19.0647   24.4385 H   0  0  0  0  0  0  0  0  0  0  0  0
   17.9092   19.8241   23.1498 H   0  0  0  0  0  0  0  0  0  0  0  0
   19.1044   21.2118   24.3161 C   0  0  0  0  0  0  0  0  0  0  0  0
   20.0597   21.2434   24.8562 H   0  0  0  0  0  0  0  0  0  0  0  0
   18.3039   21.4287   25.0354 H   0  0  0  0  0  0  0  0  0  0  0  0
   19.1090   22.0139   23.5665 H   0  0  0  0  0  0  0  0  0  0  0  0
  1  2  1  0  0  0  0
  1  3  1  0  0  0  0
  1  4  1  0  0  0  0
  1  5  1  0  0  0  0
  5  6  1  0  0  0  0
  5  7  1  0  0  0  0
  7  8  1  0  0  0  0
  7  9  1  0  0  0  0
  7 10  1  0  0  0  0
  5 11  1  0  0  0  0
 11 12  1  0  0  0  0
 11 13  1  0  0  0  0
 11 14  1  0  0  0  0
 14 15  1  0  0  0  0
 14 16  1  0  0  0  0
 14 17  1  0  0  0  0
 17 18  1  0  0  0  0
 17 19  1  0  0  0  0
 17 20  1  0  0  0  0
M  END
> <VConfSearch Rank>
781

> <Conf_Id>
74

> <Delta U+W>
0.000

> <U+W>
-36.276

> <U>
22.080

> <W>
-58.356

> <W(PB)>
-60.289

> <W(SA)>
1.932

> <Valence>
1.885

> <Coulomb>
19.559

> <VdW>
0.637

> <VdW6>
-4.482

> <VdW12>
5.119

> <Bond>
0.136

> <Angle>
0.867

> <Pdih>
0.882

> <Idih>
0.000

> <Tether>
0.000

$$$$
VeraChem MOL file


 20 19  0  0  0  0  0  0  0  0999 V2000     
   19.5934   21.2226   22.0445 N   0  3  0  0  0  0  0  0  0  0  0  0
   19.3135   21.6802   22.9163 H   0  0  0  0  0  0  0  0  0  0  0  0
   18.7591   21.1459   21.4572 H   0  0  0  0  0  0  0  0  0  0  0  0
   20.2439   21.8530   21.5678 H   0  0  0  0  0  0  0  0  0  0  0  0
   20.2163   19.8772   22.2982 C   0  0  2  0  0  0  0  0  0  0  0  0
   21.0945   20.0578   22.9259 H   0  0  0  0  0  0  0  0  0  0  0  0
   20.6865   19.2483   20.9737 C   0  0  0  0  0  0  0  0  0  0  0  0
   21.3280   19.9457   20.4212 H   0  0  0  0  0  0  0  0  0  0  0  0
   19.8348   18.9893   20.3326 H   0  0  0  0  0  0  0  0  0  0  0  0
   21.2735   18.3396   21.1494 H   0  0  0  0  0  0  0  0  0  0  0  0
   19.2505   18.9508   23.0730 C   0  0  0  0  0  0  0  0  0  0  0  0
   18.8699   19.4977   23.9458 H   0  0  0  0  0  0  0  0  0  0  0  0
   18.3783   18.7194   22.4472 H   0  0  0  0  0  0  0  0  0  0  0  0
   19.9040   17.6359   23.5638 C   0  0  0  0  0  0  0  0  0  0  0  0
   20.8130   17.8653   24.1376 H   0  0  0  0  0  0  0  0  0  0  0  0
   20.2140   17.0216   22.7080 H   0  0  0  0  0  0  0  0  0  0  0  0
   18.9380   16.8132   24.4434 C   0  0  0  0  0  0  0  0  0  0  0  0
   18.6370   17.3776   25.3357 H   0  0  0  0  0  0  0  0  0  0  0  0
   19.4157   15.8837   24.7792 H   0  0  0  0  0  0  0  0  0  0  0  0
   18.0306   16.5434   23.8875 H   0  0  0  0  0  0  0  0  0  0  0  0
  1  2  1  0  0  0  0
  1  3  1  0  0  0  0
  1  4  1  0  0  0  0
  1  5  1  0  0  0  0
  5  6  1  0  0  0  0
  5  7  1  0  0  0  0
  7  8  1  0  0  0  0
  7  9  1  0  0  0  0
  7 10  1  0  0  0  0
  5 11  1  0  0  0  0
 11 12  1  0  0  0  0
 11 13  1  0  0  0  0
 11 14  1  0  0  0  0
 14 15  1  0  0  0  0
 14 16  1  0  0  0  0
 14 17  1  0  0  0  0
 17 18  1  0  0  0  0
 17 19  1  0  0  0  0
 17 20  1  0  0  0  0
M  END
> <VConfSearch Rank>
782

> <Conf_Id>
80

> <Delta U+W>
0.460

> <U+W>
-35.817

> <U>
22.495

> <W>
-58.311

> <W(PB)>
-60.259

> <W(SA)>
1.948

> <Valence>
2.419

> <Coulomb>
19.304

> <VdW>
0.772

> <VdW6>
-4.635

> <VdW12>
5.407

> <Bond>
0.149

> <Angle>
1.142

> <Pdih>
1.129

> <Idih>
0.000

> <Tether>
0.000

$$$$
VeraChem MOL file


 20 19  0  0  0  0  0  0  0  0999 V2000     
   18.0274   18.1077   21.2508 N   0  3  0  0  0  0  0  0  0  0  0  0
   18.4141   17.8226   20.3469 H   0  0  0  0  0  0  0  0  0  0  0  0
   17.5991   19.0282   21.1242 H   0  0  0  0  0  0  0  0  0  0  0  0
   17.2758   17.4513   21.4785 H   0  0  0  0  0  0  0  0  0  0  0  0
   19.0813   18.1319   22.3238 C   0  0  2  0  0  0  0  0  0  0  0  0
   19.4739   17.1125   22.3904 H   0  0  0  0  0  0  0  0  0  0  0  0
   18.4515   18.4911   23.6805 C   0  0  0  0  0  0  0  0  0  0  0  0
   17.5756   17.8618   23.8799 H   0  0  0  0  0  0  0  0  0  0  0  0
   18.1306   19.5399   23.7054 H   0  0  0  0  0  0  0  0  0  0  0  0
   19.1605   18.3232   24.4991 H   0  0  0  0  0  0  0  0  0  0  0  0
   20.2488   19.0716   21.9348 C   0  0  0  0  0  0  0  0  0  0  0  0
   20.6052   18.7611   20.9437 H   0  0  0  0  0  0  0  0  0  0  0  0
   19.8835   20.0997   21.8117 H   0  0  0  0  0  0  0  0  0  0  0  0
   21.4618   19.0451   22.9021 C   0  0  0  0  0  0  0  0  0  0  0  0
   22.3834   19.1415   22.3110 H   0  0  0  0  0  0  0  0  0  0  0  0
   21.5280   18.0703   23.4055 H   0  0  0  0  0  0  0  0  0  0  0  0
   21.4431   20.1891   23.9433 C   0  0  0  0  0  0  0  0  0  0  0  0
   21.4534   21.1692   23.4488 H   0  0  0  0  0  0  0  0  0  0  0  0
   22.3285   20.1343   24.5899 H   0  0  0  0  0  0  0  0  0  0  0  0
   20.5584   20.1468   24.5883 H   0  0  0  0  0  0  0  0  0  0  0  0
  1  2  1  0  0  0  0
  1  3  1  0  0  0  0
  1  4  1  0  0  0  0
  1  5  1  0  0  0  0
  5  6  1  0  0  0  0
  5  7  1  0  0  0  0
  7  8  1  0  0  0  0
  7  9  1  0  0  0  0
  7 10  1  0  0  0  0
  5 11  1  0  0  0  0
 11 12  1  0  0  0  0
 11 13  1  0  0  0  0
 11 14  1  0  0  0  0
 14 15  1  0  0  0  0
 14 16  1  0  0  0  0
 14 17  1  0  0  0  0
 17 18  1  0  0  0  0
 17 19  1  0  0  0  0
 17 20  1  0  0  0  0
M  END
> <VConfSearch Rank>
783

> <Conf_Id>
52

> <Delta U+W>
2.995

> <U+W>
-33.282

> <U>
25.224

> <W>
-58.506

> <W(PB)>
-60.411

> <W(SA)>
1.905

> <Valence>
4.945

> <Coulomb>
19.467

> <VdW>
0.813

> <VdW6>
-5.458

> <VdW12>
6.270

> <Bond>
0.200

> <Angle>
1.675

> <Pdih>
3.070

> <Idih>
0.000

> <Tether>
0.000

$$$$
VeraChem MOL file


 20 19  0  0  0  0  0  0  0  0999 V2000     
   18.2167   19.3027   23.1831 N   0  3  0  0  0  0  0  0  0  0  0  0
   18.1969   20.2974   23.4211 H   0  0  0  0  0  0  0  0  0  0  0  0
   17.4161   18.8618   23.6440 H   0  0  0  0  0  0  0  0  0  0  0  0
   18.0727   19.2267   22.1739 H   0  0  0  0  0  0  0  0  0  0  0  0
   19.5140   18.6649   23.5993 C   0  0  2  0  0  0  0  0  0  0  0  0
   19.4415   17.5998   23.3581 H   0  0  0  0  0  0  0  0  0  0  0  0
   19.6983   18.8020   25.1201 C   0  0  0  0  0  0  0  0  0  0  0  0
   19.7928   19.8545   25.4154 H   0  0  0  0  0  0  0  0  0  0  0  0
   20.5982   18.2709   25.4546 H   0  0  0  0  0  0  0  0  0  0  0  0
   18.8429   18.3721   25.6557 H   0  0  0  0  0  0  0  0  0  0  0  0
   20.7366   19.2500   22.8529 C   0  0  0  0  0  0  0  0  0  0  0  0
   20.6925   20.3470   22.8642 H   0  0  0  0  0  0  0  0  0  0  0  0
   21.6462   18.9810   23.4064 H   0  0  0  0  0  0  0  0  0  0  0  0
   20.9178   18.7376   21.3998 C   0  0  0  0  0  0  0  0  0  0  0  0
   21.0085   17.6422   21.4021 H   0  0  0  0  0  0  0  0  0  0  0  0
   21.8757   19.1193   21.0194 H   0  0  0  0  0  0  0  0  0  0  0  0
   19.8013   19.1606   20.4181 C   0  0  0  0  0  0  0  0  0  0  0  0
   20.0999   18.9366   19.3857 H   0  0  0  0  0  0  0  0  0  0  0  0
   19.6023   20.2385   20.4797 H   0  0  0  0  0  0  0  0  0  0  0  0
   18.8695   18.6147   20.6060 H   0  0  0  0  0  0  0  0  0  0  0  0
  1  2  1  0  0  0  0
  1  3  1  0  0  0  0
  1  4  1  0  0  0  0
  1  5  1  0  0  0  0
  5  6  1  0  0  0  0
  5  7  1  0  0  0  0
  7  8  1  0  0  0  0
  7  9  1  0  0  0  0
  7 10  1  0  0  0  0
  5 11  1  0  0  0  0
 11 12  1  0  0  0  0
 11 13  1  0  0  0  0
 11 14  1  0  0  0  0
 14 15  1  0  0  0  0
 14 16  1  0  0  0  0
 14 17  1  0  0  0  0
 17 18  1  0  0  0  0
 17 19  1  0  0  0  0
 17 20  1  0  0  0  0
M  END
> <VConfSearch Rank>
784

> <Conf_Id>
54

> <Delta U+W>
2.752

> <U+W>
-33.525

> <U>
24.337

> <W>
-57.862

> <W(PB)>
-59.764

> <W(SA)>
1.901

> <Valence>
3.593

> <Coulomb>
20.067

> <VdW>
0.677

> <VdW6>
-5.466

> <VdW12>
6.144

> <Bond>
0.191

> <Angle>
1.557

> <Pdih>
1.845

> <Idih>
0.000

> <Tether>
0.000

$$$$
VeraChem MOL file


 20 19  0  0  0  0  0  0  0  0999 V2000     
   20.6899   17.2384   23.3677 N   0  3  0  0  0  0  0  0  0  0  0  0
   20.5693   16.3952   23.9353 H   0  0  0  0  0  0  0  0  0  0  0  0
   21.6800   17.4945   23.4110 H   0  0  0  0  0  0  0  0  0  0  0  0
   20.4794   16.9871   22.3992 H   0  0  0  0  0  0  0  0  0  0  0  0
   19.8074   18.3576   23.8499 C   0  0  2  0  0  0  0  0  0  0  0  0
   20.0930   18.5414   24.8904 H   0  0  0  0  0  0  0  0  0  0  0  0
   18.3270   17.9367   23.8430 C   0  0  0  0  0  0  0  0  0  0  0  0
   17.6869   18.7558   24.1934 H   0  0  0  0  0  0  0  0  0  0  0  0
   18.1682   17.0821   24.5119 H   0  0  0  0  0  0  0  0  0  0  0  0
   17.9927   17.6435   22.8408 H   0  0  0  0  0  0  0  0  0  0  0  0
   20.0415   19.6746   23.0715 C   0  0  0  0  0  0  0  0  0  0  0  0
   19.4363   20.4678   23.5299 H   0  0  0  0  0  0  0  0  0  0  0  0
   21.0879   19.9773   23.2085 H   0  0  0  0  0  0  0  0  0  0  0  0
   19.7273   19.6031   21.5547 C   0  0  0  0  0  0  0  0  0  0  0  0
   18.6700   19.3518   21.3970 H   0  0  0  0  0  0  0  0  0  0  0  0
   20.3183   18.8073   21.0820 H   0  0  0  0  0  0  0  0  0  0  0  0
   20.0323   20.9422   20.8495 C   0  0  0  0  0  0  0  0  0  0  0  0
   19.8031   20.8771   19.7779 H   0  0  0  0  0  0  0  0  0  0  0  0
   21.0920   21.2102   20.9510 H   0  0  0  0  0  0  0  0  0  0  0  0
   19.4314   21.7576   21.2730 H   0  0  0  0  0  0  0  0  0  0  0  0
  1  2  1  0  0  0  0
  1  3  1  0  0  0  0
  1  4  1  0  0  0  0
  1  5  1  0  0  0  0
  5  6  1  0  0  0  0
  5  7  1  0  0  0  0
  7  8  1  0  0  0  0
  7  9  1  0  0  0  0
  7 10  1  0  0  0  0
  5 11  1  0  0  0  0
 11 12  1  0  0  0  0
 11 13  1  0  0  0  0
 11 14  1  0  0  0  0
 14 15  1  0  0  0  0
 14 16  1  0  0  0  0
 14 17  1  0  0  0  0
 17 18  1  0  0  0  0
 17 19  1  0  0  0  0
 17 20  1  0  0  0  0
M  END
> <VConfSearch Rank>
785

> <Conf_Id>
63

> <Delta U+W>
0.420

> <U+W>
-35.856

> <U>
22.625

> <W>
-58.481

> <W(PB)>
-60.400

> <W(SA)>
1.919

> <Valence>
2.404

> <Coulomb>
19.464

> <VdW>
0.757

> <VdW6>
-5.074

> <VdW12>
5.830

> <Bond>
0.172

> <Angle>
1.207

> <Pdih>
1.025

> <Idih>
0.000

> <Tether>
0.000

$$$$
VeraChem MOL file


 20 19  0  0  0  0  0  0  0  0999 V2000     
   18.9257   19.3957   21.2146 N   0  3  0  0  0  0  0  0  0  0  0  0
   19.7068   18.8825   20.7981 H   0  0  0  0  0  0  0  0  0  0  0  0
   19.0627   20.3877   21.0062 H   0  0  0  0  0  0  0  0  0  0  0  0
   18.0728   19.0971   20.7340 H   0  0  0  0  0  0  0  0  0  0  0  0
   18.8387   19.1507   22.6967 C   0  0  2  0  0  0  0  0  0  0  0  0
   18.6905   18.0748   22.8297 H   0  0  0  0  0  0  0  0  0  0  0  0
   17.6249   19.8784   23.2972 C   0  0  0  0  0  0  0  0  0  0  0  0
   16.6987   19.5636   22.8008 H   0  0  0  0  0  0  0  0  0  0  0  0
   17.7189   20.9660   23.1872 H   0  0  0  0  0  0  0  0  0  0  0  0
   17.5233   19.6507   24.3655 H   0  0  0  0  0  0  0  0  0  0  0  0
   20.1316   19.5572   23.4398 C   0  0  0  0  0  0  0  0  0  0  0  0
   20.2892   20.6385   23.3317 H   0  0  0  0  0  0  0  0  0  0  0  0
   19.9990   19.3728   24.5142 H   0  0  0  0  0  0  0  0  0  0  0  0
   21.4016   18.8094   22.9604 C   0  0  0  0  0  0  0  0  0  0  0  0
   22.2625   19.1683   23.5417 H   0  0  0  0  0  0  0  0  0  0  0  0
   21.6186   19.0615   21.9135 H   0  0  0  0  0  0  0  0  0  0  0  0
   21.2966   17.2752   23.1166 C   0  0  0  0  0  0  0  0  0  0  0  0
   21.0798   16.9985   24.1567 H   0  0  0  0  0  0  0  0  0  0  0  0
   22.2417   16.7942   22.8328 H   0  0  0  0  0  0  0  0  0  0  0  0
   20.5081   16.8561   22.4790 H   0  0  0  0  0  0  0  0  0  0  0  0
  1  2  1  0  0  0  0
  1  3  1  0  0  0  0
  1  4  1  0  0  0  0
  1  5  1  0  0  0  0
  5  6  1  0  0  0  0
  5  7  1  0  0  0  0
  7  8  1  0  0  0  0
  7  9  1  0  0  0  0
  7 10  1  0  0  0  0
  5 11  1  0  0  0  0
 11 12  1  0  0  0  0
 11 13  1  0  0  0  0
 11 14  1  0  0  0  0
 14 15  1  0  0  0  0
 14 16  1  0  0  0  0
 14 17  1  0  0  0  0
 17 18  1  0  0  0  0
 17 19  1  0  0  0  0
 17 20  1  0  0  0  0
M  END
> <VConfSearch Rank>
786

> <Conf_Id>
50

> <Delta U+W>
0.466

> <U+W>
-35.811

> <U>
22.369

> <W>
-58.180

> <W(PB)>
-60.103

> <W(SA)>
1.923

> <Valence>
2.168

> <Coulomb>
19.636

> <VdW>
0.566

> <VdW6>
-5.263

> <VdW12>
5.829

> <Bond>
0.162

> <Angle>
1.066

> <Pdih>
0.939

> <Idih>
0.000

> <Tether>
0.000

$$$$
VeraChem MOL file


 20 19  0  0  0  0  0  0  0  0999 V2000     
   19.0751   20.8137   23.8854 N   0  3  0  0  0  0  0  0  0  0  0  0
   19.8713   21.0267   24.4926 H   0  0  0  0  0  0  0  0  0  0  0  0
   18.2880   20.5606   24.4881 H   0  0  0  0  0  0  0  0  0  0  0  0
   18.8225   21.6805   23.4031 H   0  0  0  0  0  0  0  0  0  0  0  0
   19.3996   19.7150   22.9095 C   0  0  2  0  0  0  0  0  0  0  0  0
   20.2473   20.0739   22.3176 H   0  0  0  0  0  0  0  0  0  0  0  0
   18.2048   19.4774   21.9672 C   0  0  0  0  0  0  0  0  0  0  0  0
   17.3164   19.1608   22.5277 H   0  0  0  0  0  0  0  0  0  0  0  0
   18.4259   18.7046   21.2232 H   0  0  0  0  0  0  0  0  0  0  0  0
   17.9527   20.3963   21.4239 H   0  0  0  0  0  0  0  0  0  0  0  0
   19.8306   18.4124   23.6277 C   0  0  0  0  0  0  0  0  0  0  0  0
   20.1015   18.6471   24.6656 H   0  0  0  0  0  0  0  0  0  0  0  0
   18.9862   17.7134   23.6937 H   0  0  0  0  0  0  0  0  0  0  0  0
   21.0520   17.7130   22.9793 C   0  0  0  0  0  0  0  0  0  0  0  0
   21.3307   16.8486   23.5983 H   0  0  0  0  0  0  0  0  0  0  0  0
   21.9162   18.3919   22.9969 H   0  0  0  0  0  0  0  0  0  0  0  0
   20.8094   17.2300   21.5322 C   0  0  0  0  0  0  0  0  0  0  0  0
   19.9250   16.5823   21.4735 H   0  0  0  0  0  0  0  0  0  0  0  0
   21.6708   16.6535   21.1710 H   0  0  0  0  0  0  0  0  0  0  0  0
   20.6696   18.0744   20.8458 H   0  0  0  0  0  0  0  0  0  0  0  0
  1  2  1  0  0  0  0
  1  3  1  0  0  0  0
  1  4  1  0  0  0  0
  1  5  1  0  0  0  0
  5  6  1  0  0  0  0
  5  7  1  0  0  0  0
  7  8  1  0  0  0  0
  7  9  1  0  0  0  0
  7 10  1  0  0  0  0
  5 11  1  0  0  0  0
 11 12  1  0  0  0  0
 11 13  1  0  0  0  0
 11 14  1  0  0  0  0
 14 15  1  0  0  0  0
 14 16  1  0  0  0  0
 14 17  1  0  0  0  0
 17 18  1  0  0  0  0
 17 19  1  0  0  0  0
 17 20  1  0  0  0  0
M  END
> <VConfSearch Rank>
787

> <Conf_Id>
3

> <Delta U+W>
3.093

> <U+W>
-33.184

> <U>
25.256

> <W>
-58.439

> <W(PB)>
-60.337

> <W(SA)>
1.898

> <Valence>
4.963

> <Coulomb>
19.511

> <VdW>
0.782

> <VdW6>
-5.429

> <VdW12>
6.211

> <Bond>
0.174

> <Angle>
1.377

> <Pdih>
3.412

> <Idih>
0.000

> <Tether>
0.000

$$$$
VeraChem MOL file


 20 19  0  0  0  0  0  0  0  0999 V2000     
   17.4495   18.4463   22.7389 N   0  3  0  0  0  0  0  0  0  0  0  0
   17.0146   17.8630   22.0190 H   0  0  0  0  0  0  0  0  0  0  0  0
   17.0042   19.3668   22.6919 H   0  0  0  0  0  0  0  0  0  0  0  0
   17.2119   18.0371   23.6460 H   0  0  0  0  0  0  0  0  0  0  0  0
   18.9385   18.5392   22.5475 C   0  0  2  0  0  0  0  0  0  0  0  0
   19.0934   18.9806   21.5584 H   0  0  0  0  0  0  0  0  0  0  0  0
   19.5683   17.1345   22.5572 C   0  0  0  0  0  0  0  0  0  0  0  0
   20.6284   17.1720   22.2809 H   0  0  0  0  0  0  0  0  0  0  0  0
   19.0672   16.4810   21.8326 H   0  0  0  0  0  0  0  0  0  0  0  0
   19.4872   16.6697   23.5476 H   0  0  0  0  0  0  0  0  0  0  0  0
   19.5815   19.4716   23.6019 C   0  0  0  0  0  0  0  0  0  0  0  0
   19.0400   20.4268   23.6031 H   0  0  0  0  0  0  0  0  0  0  0  0
   19.4407   19.0407   24.6020 H   0  0  0  0  0  0  0  0  0  0  0  0
   21.0880   19.7656   23.3848 C   0  0  0  0  0  0  0  0  0  0  0  0
   21.6779   18.8476   23.5100 H   0  0  0  0  0  0  0  0  0  0  0  0
   21.4297   20.4514   24.1727 H   0  0  0  0  0  0  0  0  0  0  0  0
   21.3897   20.3966   22.0064 C   0  0  0  0  0  0  0  0  0  0  0  0
   20.8083   21.3158   21.8571 H   0  0  0  0  0  0  0  0  0  0  0  0
   21.1563   19.7055   21.1867 H   0  0  0  0  0  0  0  0  0  0  0  0
   22.4532   20.6565   21.9269 H   0  0  0  0  0  0  0  0  0  0  0  0
  1  2  1  0  0  0  0
  1  3  1  0  0  0  0
  1  4  1  0  0  0  0
  1  5  1  0  0  0  0
  5  6  1  0  0  0  0
  5  7  1  0  0  0  0
  7  8  1  0  0  0  0
  7  9  1  0  0  0  0
  7 10  1  0  0  0  0
  5 11  1  0  0  0  0
 11 12  1  0  0  0  0
 11 13  1  0  0  0  0
 11 14  1  0  0  0  0
 14 15  1  0  0  0  0
 14 16  1  0  0  0  0
 14 17  1  0  0  0  0
 17 18  1  0  0  0  0
 17 19  1  0  0  0  0
 17 20  1  0  0  0  0
M  END
> <VConfSearch Rank>
788

> <Conf_Id>
64

> <Delta U+W>
0.544

> <U+W>
-35.732

> <U>
22.800

> <W>
-58.532

> <W(PB)>
-60.437

> <W(SA)>
1.905

> <Valence>
2.662

> <Coulomb>
19.485

> <VdW>
0.653

> <VdW6>
-5.460

> <VdW12>
6.113

> <Bond>
0.174

> <Angle>
1.378

> <Pdih>
1.109

> <Idih>
0.000

> <Tether>
0.000

$$$$
VeraChem MOL file


 20 19  0  0  0  0  0  0  0  0999 V2000     
   21.7222   18.1001   22.8866 N   0  3  0  0  0  0  0  0  0  0  0  0
   21.1361   17.3338   23.2248 H   0  0  0  0  0  0  0  0  0  0  0  0
   22.4833   18.2230   23.5599 H   0  0  0  0  0  0  0  0  0  0  0  0
   22.1437   17.7981   22.0040 H   0  0  0  0  0  0  0  0  0  0  0  0
   20.9283   19.3672   22.7161 C   0  0  2  0  0  0  0  0  0  0  0  0
   21.6400   20.1213   22.3656 H   0  0  0  0  0  0  0  0  0  0  0  0
   20.3732   19.8519   24.0654 C   0  0  0  0  0  0  0  0  0  0  0  0
   19.7533   19.0845   24.5435 H   0  0  0  0  0  0  0  0  0  0  0  0
   19.7697   20.7589   23.9368 H   0  0  0  0  0  0  0  0  0  0  0  0
   21.1934   20.0929   24.7524 H   0  0  0  0  0  0  0  0  0  0  0  0
   19.8359   19.2360   21.6251 C   0  0  0  0  0  0  0  0  0  0  0  0
   19.4076   20.2255   21.4177 H   0  0  0  0  0  0  0  0  0  0  0  0
   20.3361   18.9380   20.6943 H   0  0  0  0  0  0  0  0  0  0  0  0
   18.6967   18.2187   21.9126 C   0  0  0  0  0  0  0  0  0  0  0  0
   19.0627   17.3826   22.5228 H   0  0  0  0  0  0  0  0  0  0  0  0
   18.3795   17.7757   20.9580 H   0  0  0  0  0  0  0  0  0  0  0  0
   17.4517   18.8554   22.5739 C   0  0  0  0  0  0  0  0  0  0  0  0
   17.6782   19.2825   23.5569 H   0  0  0  0  0  0  0  0  0  0  0  0
   16.6651   18.1027   22.7141 H   0  0  0  0  0  0  0  0  0  0  0  0
   17.0378   19.6542   21.9448 H   0  0  0  0  0  0  0  0  0  0  0  0
  1  2  1  0  0  0  0
  1  3  1  0  0  0  0
  1  4  1  0  0  0  0
  1  5  1  0  0  0  0
  5  6  1  0  0  0  0
  5  7  1  0  0  0  0
  7  8  1  0  0  0  0
  7  9  1  0  0  0  0
  7 10  1  0  0  0  0
  5 11  1  0  0  0  0
 11 12  1  0  0  0  0
 11 13  1  0  0  0  0
 11 14  1  0  0  0  0
 14 15  1  0  0  0  0
 14 16  1  0  0  0  0
 14 17  1  0  0  0  0
 17 18  1  0  0  0  0
 17 19  1  0  0  0  0
 17 20  1  0  0  0  0
M  END
> <VConfSearch Rank>
789

> <Conf_Id>
35

> <Delta U+W>
3.004

> <U+W>
-33.272

> <U>
25.367

> <W>
-58.639

> <W(PB)>
-60.512

> <W(SA)>
1.873

> <Valence>
4.943

> <Coulomb>
19.661

> <VdW>
0.764

> <VdW6>
-5.871

> <VdW12>
6.636

> <Bond>
0.230

> <Angle>
1.857

> <Pdih>
2.855

> <Idih>
0.000

> <Tether>
0.000

$$$$
VeraChem MOL file


 20 19  0  0  0  0  0  0  0  0999 V2000     
   18.6090   18.6136   21.4246 N   0  3  0  0  0  0  0  0  0  0  0  0
   17.8789   19.1043   20.9015 H   0  0  0  0  0  0  0  0  0  0  0  0
   18.4344   17.6102   21.3231 H   0  0  0  0  0  0  0  0  0  0  0  0
   19.5030   18.8157   20.9730 H   0  0  0  0  0  0  0  0  0  0  0  0
   18.6240   19.0264   22.8709 C   0  0  2  0  0  0  0  0  0  0  0  0
   17.6412   18.7455   23.2621 H   0  0  0  0  0  0  0  0  0  0  0  0
   18.7563   20.5526   23.0179 C   0  0  0  0  0  0  0  0  0  0  0  0
   19.6812   20.9247   22.5613 H   0  0  0  0  0  0  0  0  0  0  0  0
   18.7532   20.8432   24.0757 H   0  0  0  0  0  0  0  0  0  0  0  0
   17.9144   21.0599   22.5312 H   0  0  0  0  0  0  0  0  0  0  0  0
   19.6768   18.2584   23.7108 C   0  0  0  0  0  0  0  0  0  0  0  0
   19.4117   18.3817   24.7691 H   0  0  0  0  0  0  0  0  0  0  0  0
   19.5769   17.1839   23.5094 H   0  0  0  0  0  0  0  0  0  0  0  0
   21.1649   18.6752   23.5426 C   0  0  0  0  0  0  0  0  0  0  0  0
   21.7669   18.0702   24.2350 H   0  0  0  0  0  0  0  0  0  0  0  0
   21.3073   19.7166   23.8617 H   0  0  0  0  0  0  0  0  0  0  0  0
   21.7307   18.4865   22.1167 C   0  0  0  0  0  0  0  0  0  0  0  0
   21.5262   17.4768   21.7373 H   0  0  0  0  0  0  0  0  0  0  0  0
   22.8196   18.6265   22.1186 H   0  0  0  0  0  0  0  0  0  0  0  0
   21.3141   19.2197   21.4166 H   0  0  0  0  0  0  0  0  0  0  0  0
  1  2  1  0  0  0  0
  1  3  1  0  0  0  0
  1  4  1  0  0  0  0
  1  5  1  0  0  0  0
  5  6  1  0  0  0  0
  5  7  1  0  0  0  0
  7  8  1  0  0  0  0
  7  9  1  0  0  0  0
  7 10  1  0  0  0  0
  5 11  1  0  0  0  0
 11 12  1  0  0  0  0
 11 13  1  0  0  0  0
 11 14  1  0  0  0  0
 14 15  1  0  0  0  0
 14 16  1  0  0  0  0
 14 17  1  0  0  0  0
 17 18  1  0  0  0  0
 17 19  1  0  0  0  0
 17 20  1  0  0  0  0
M  END
> <VConfSearch Rank>
790

> <Conf_Id>
55

> <Delta U+W>
2.767

> <U+W>
-33.509

> <U>
24.552

> <W>
-58.061

> <W(PB)>
-59.930

> <W(SA)>
1.869

> <Valence>
3.726

> <Coulomb>
20.219

> <VdW>
0.606

> <VdW6>
-6.395

> <VdW12>
7.001

> <Bond>
0.241

> <Angle>
2.098

> <Pdih>
1.387

> <Idih>
0.000

> <Tether>
0.000

$$$$
VeraChem MOL file


 20 19  0  0  0  0  0  0  0  0999 V2000     
   21.5612   18.6780   23.4353 N   0  3  0  0  0  0  0  0  0  0  0  0
   21.2978   18.5328   24.4131 H   0  0  0  0  0  0  0  0  0  0  0  0
   22.5306   19.0065   23.4260 H   0  0  0  0  0  0  0  0  0  0  0  0
   21.5454   17.7653   22.9736 H   0  0  0  0  0  0  0  0  0  0  0  0
   20.6415   19.6567   22.7560 C   0  0  2  0  0  0  0  0  0  0  0  0
   20.9889   19.7498   21.7223 H   0  0  0  0  0  0  0  0  0  0  0  0
   20.7371   21.0392   23.4220 C   0  0  0  0  0  0  0  0  0  0  0  0
   21.7708   21.4059   23.4095 H   0  0  0  0  0  0  0  0  0  0  0  0
   20.4003   21.0018   24.4656 H   0  0  0  0  0  0  0  0  0  0  0  0
   20.1183   21.7723   22.8897 H   0  0  0  0  0  0  0  0  0  0  0  0
   19.1746   19.1733   22.7306 C   0  0  0  0  0  0  0  0  0  0  0  0
   18.8084   19.0488   23.7583 H   0  0  0  0  0  0  0  0  0  0  0  0
   18.5529   19.9523   22.2693 H   0  0  0  0  0  0  0  0  0  0  0  0
   18.9853   17.8537   21.9443 C   0  0  0  0  0  0  0  0  0  0  0  0
   19.5539   17.0432   22.4199 H   0  0  0  0  0  0  0  0  0  0  0  0
   19.3849   17.9684   20.9267 H   0  0  0  0  0  0  0  0  0  0  0  0
   17.4986   17.4450   21.8663 C   0  0  0  0  0  0  0  0  0  0  0  0
   17.0777   17.2929   22.8687 H   0  0  0  0  0  0  0  0  0  0  0  0
   17.3831   16.5074   21.3070 H   0  0  0  0  0  0  0  0  0  0  0  0
   16.9028   18.2147   21.3586 H   0  0  0  0  0  0  0  0  0  0  0  0
  1  2  1  0  0  0  0
  1  3  1  0  0  0  0
  1  4  1  0  0  0  0
  1  5  1  0  0  0  0
  5  6  1  0  0  0  0
  5  7  1  0  0  0  0
  7  8  1  0  0  0  0
  7  9  1  0  0  0  0
  7 10  1  0  0  0  0
  5 11  1  0  0  0  0
 11 12  1  0  0  0  0
 11 13  1  0  0  0  0
 11 14  1  0  0  0  0
 14 15  1  0  0  0  0
 14 16  1  0  0  0  0
 14 17  1  0  0  0  0
 17 18  1  0  0  0  0
 17 19  1  0  0  0  0
 17 20  1  0  0  0  0
M  END
> <VConfSearch Rank>
791

> <Conf_Id>
74

> <Delta U+W>
0.000

> <U+W>
-36.276

> <U>
22.080

> <W>
-58.356

> <W(PB)>
-60.289

> <W(SA)>
1.932

> <Valence>
1.885

> <Coulomb>
19.559

> <VdW>
0.637

> <VdW6>
-4.482

> <VdW12>
5.119

> <Bond>
0.136

> <Angle>
0.867

> <Pdih>
0.882

> <Idih>
0.000

> <Tether>
0.000

$$$$
VeraChem MOL file


 20 19  0  0  0  0  0  0  0  0999 V2000     
   18.1841   17.1641   23.1310 N   0  3  0  0  0  0  0  0  0  0  0  0
   18.2926   17.0204   24.1386 H   0  0  0  0  0  0  0  0  0  0  0  0
   18.6928   16.4130   22.6579 H   0  0  0  0  0  0  0  0  0  0  0  0
   17.1913   17.0428   22.9137 H   0  0  0  0  0  0  0  0  0  0  0  0
   18.6792   18.5196   22.7065 C   0  0  2  0  0  0  0  0  0  0  0  0
   18.0806   19.2523   23.2565 H   0  0  0  0  0  0  0  0  0  0  0  0
   18.4388   18.7280   21.2000 C   0  0  0  0  0  0  0  0  0  0  0  0
   17.3904   18.5303   20.9451 H   0  0  0  0  0  0  0  0  0  0  0  0
   19.0665   18.0567   20.6009 H   0  0  0  0  0  0  0  0  0  0  0  0
   18.6549   19.7598   20.9001 H   0  0  0  0  0  0  0  0  0  0  0  0
   20.1631   18.7194   23.0932 C   0  0  0  0  0  0  0  0  0  0  0  0
   20.2855   18.4517   24.1510 H   0  0  0  0  0  0  0  0  0  0  0  0
   20.7911   18.0229   22.5220 H   0  0  0  0  0  0  0  0  0  0  0  0
   20.6727   20.1673   22.8908 C   0  0  0  0  0  0  0  0  0  0  0  0
   20.0072   20.8707   23.4109 H   0  0  0  0  0  0  0  0  0  0  0  0
   20.6490   20.4344   21.8259 H   0  0  0  0  0  0  0  0  0  0  0  0
   22.1137   20.3429   23.4165 C   0  0  0  0  0  0  0  0  0  0  0  0
   22.1722   20.1266   24.4912 H   0  0  0  0  0  0  0  0  0  0  0  0
   22.4600   21.3730   23.2618 H   0  0  0  0  0  0  0  0  0  0  0  0
   22.8088   19.6723   22.8946 H   0  0  0  0  0  0  0  0  0  0  0  0
  1  2  1  0  0  0  0
  1  3  1  0  0  0  0
  1  4  1  0  0  0  0
  1  5  1  0  0  0  0
  5  6  1  0  0  0  0
  5  7  1  0  0  0  0
  7  8  1  0  0  0  0
  7  9  1  0  0  0  0
  7 10  1  0  0  0  0
  5 11  1  0  0  0  0
 11 12  1  0  0  0  0
 11 13  1  0  0  0  0
 11 14  1  0  0  0  0
 14 15  1  0  0  0  0
 14 16  1  0  0  0  0
 14 17  1  0  0  0  0
 17 18  1  0  0  0  0
 17 19  1  0  0  0  0
 17 20  1  0  0  0  0
M  END
> <VConfSearch Rank>
792

> <Conf_Id>
80

> <Delta U+W>
0.460

> <U+W>
-35.817

> <U>
22.495

> <W>
-58.311

> <W(PB)>
-60.259

> <W(SA)>
1.948

> <Valence>
2.419

> <Coulomb>
19.304

> <VdW>
0.772

> <VdW6>
-4.635

> <VdW12>
5.407

> <Bond>
0.149

> <Angle>
1.142

> <Pdih>
1.129

> <Idih>
0.000

> <Tether>
0.000

$$$$
VeraChem MOL file


 20 19  0  0  0  0  0  0  0  0999 V2000     
   20.7640   16.7075   22.6456 N   0  3  0  0  0  0  0  0  0  0  0  0
   21.7776   16.7643   22.7771 H   0  0  0  0  0  0  0  0  0  0  0  0
   20.5919   16.5685   21.6467 H   0  0  0  0  0  0  0  0  0  0  0  0
   20.4433   15.8646   23.1296 H   0  0  0  0  0  0  0  0  0  0  0  0
   20.0668   17.9370   23.1602 C   0  0  2  0  0  0  0  0  0  0  0  0
   20.3021   17.9984   24.2273 H   0  0  0  0  0  0  0  0  0  0  0  0
   18.5430   17.7850   23.0148 C   0  0  0  0  0  0  0  0  0  0  0  0
   18.2070   16.8292   23.4353 H   0  0  0  0  0  0  0  0  0  0  0  0
   18.2379   17.8201   21.9616 H   0  0  0  0  0  0  0  0  0  0  0  0
   18.0158   18.5776   23.5578 H   0  0  0  0  0  0  0  0  0  0  0  0
   20.6122   19.2133   22.4740 C   0  0  0  0  0  0  0  0  0  0  0  0
   21.7031   19.2139   22.5993 H   0  0  0  0  0  0  0  0  0  0  0  0
   20.4364   19.1665   21.3911 H   0  0  0  0  0  0  0  0  0  0  0  0
   20.0704   20.5490   23.0485 C   0  0  0  0  0  0  0  0  0  0  0  0
   20.8821   21.2901   23.0370 H   0  0  0  0  0  0  0  0  0  0  0  0
   19.7910   20.4255   24.1043 H   0  0  0  0  0  0  0  0  0  0  0  0
   18.8852   21.1297   22.2416 C   0  0  0  0  0  0  0  0  0  0  0  0
   19.1780   21.3273   21.2023 H   0  0  0  0  0  0  0  0  0  0  0  0
   18.5518   22.0797   22.6789 H   0  0  0  0  0  0  0  0  0  0  0  0
   18.0244   20.4519   22.2257 H   0  0  0  0  0  0  0  0  0  0  0  0
  1  2  1  0  0  0  0
  1  3  1  0  0  0  0
  1  4  1  0  0  0  0
  1  5  1  0  0  0  0
  5  6  1  0  0  0  0
  5  7  1  0  0  0  0
  7  8  1  0  0  0  0
  7  9  1  0  0  0  0
  7 10  1  0  0  0  0
  5 11  1  0  0  0  0
 11 12  1  0  0  0  0
 11 13  1  0  0  0  0
 11 14  1  0  0  0  0
 14 15  1  0  0  0  0
 14 16  1  0  0  0  0
 14 17  1  0  0  0  0
 17 18  1  0  0  0  0
 17 19  1  0  0  0  0
 17 20  1  0  0  0  0
M  END
> <VConfSearch Rank>
793

> <Conf_Id>
52

> <Delta U+W>
2.995

> <U+W>
-33.282

> <U>
25.224

> <W>
-58.506

> <W(PB)>
-60.411

> <W(SA)>
1.905

> <Valence>
4.945

> <Coulomb>
19.467

> <VdW>
0.813

> <VdW6>
-5.458

> <VdW12>
6.270

> <Bond>
0.200

> <Angle>
1.675

> <Pdih>
3.070

> <Idih>
0.000

> <Tether>
0.000

$$$$
VeraChem MOL file


 20 19  0  0  0  0  0  0  0  0999 V2000     
   19.0411   20.2571   23.5069 N   0  3  0  0  0  0  0  0  0  0  0  0
   19.7701   20.9714   23.5758 H   0  0  0  0  0  0  0  0  0  0  0  0
   18.3397   20.4658   24.2226 H   0  0  0  0  0  0  0  0  0  0  0  0
   18.5929   20.3645   22.5945 H   0  0  0  0  0  0  0  0  0  0  0  0
   19.6098   18.8748   23.6769 C   0  0  2  0  0  0  0  0  0  0  0  0
   18.7700   18.1740   23.6401 H   0  0  0  0  0  0  0  0  0  0  0  0
   20.2784   18.7519   25.0566 C   0  0  0  0  0  0  0  0  0  0  0  0
   21.1406   19.4251   25.1415 H   0  0  0  0  0  0  0  0  0  0  0  0
   20.6266   17.7265   25.2327 H   0  0  0  0  0  0  0  0  0  0  0  0
   19.5696   19.0018   25.8557 H   0  0  0  0  0  0  0  0  0  0  0  0
   20.6087   18.4954   22.5578 C   0  0  0  0  0  0  0  0  0  0  0  0
   21.3231   19.3141   22.4002 H   0  0  0  0  0  0  0  0  0  0  0  0
   21.2055   17.6382   22.8972 H   0  0  0  0  0  0  0  0  0  0  0  0
   19.9536   18.0913   21.2109 C   0  0  0  0  0  0  0  0  0  0  0  0
   19.2758   17.2407   21.3693 H   0  0  0  0  0  0  0  0  0  0  0  0
   20.7451   17.7263   20.5413 H   0  0  0  0  0  0  0  0  0  0  0  0
   19.1940   19.2289   20.4910 C   0  0  0  0  0  0  0  0  0  0  0  0
   18.9378   18.9249   19.4677 H   0  0  0  0  0  0  0  0  0  0  0  0
   19.8059   20.1379   20.4238 H   0  0  0  0  0  0  0  0  0  0  0  0
   18.2521   19.4697   20.9972 H   0  0  0  0  0  0  0  0  0  0  0  0
  1  2  1  0  0  0  0
  1  3  1  0  0  0  0
  1  4  1  0  0  0  0
  1  5  1  0  0  0  0
  5  6  1  0  0  0  0
  5  7  1  0  0  0  0
  7  8  1  0  0  0  0
  7  9  1  0  0  0  0
  7 10  1  0  0  0  0
  5 11  1  0  0  0  0
 11 12  1  0  0  0  0
 11 13  1  0  0  0  0
 11 14  1  0  0  0  0
 14 15  1  0  0  0  0
 14 16  1  0  0  0  0
 14 17  1  0  0  0  0
 17 18  1  0  0  0  0
 17 19  1  0  0  0  0
 17 20  1  0  0  0  0
M  END
> <VConfSearch Rank>
794

> <Conf_Id>
54

> <Delta U+W>
2.752

> <U+W>
-33.525

> <U>
24.337

> <W>
-57.862

> <W(PB)>
-59.764

> <W(SA)>
1.901

> <Valence>
3.593

> <Coulomb>
20.067

> <VdW>
0.677

> <VdW6>
-5.466

> <VdW12>
6.144

> <Bond>
0.191

> <Angle>
1.557

> <Pdih>
1.845

> <Idih>
0.000

> <Tether>
0.000

$$$$
VeraChem MOL file


 20 19  0  0  0  0  0  0  0  0999 V2000     
   21.4720   18.9794   21.5458 N   0  3  0  0  0  0  0  0  0  0  0  0
   22.1014   18.4028   20.9810 H   0  0  0  0  0  0  0  0  0  0  0  0
   22.0330   19.7331   21.9519 H   0  0  0  0  0  0  0  0  0  0  0  0
   20.7966   19.4079   20.9088 H   0  0  0  0  0  0  0  0  0  0  0  0
   20.7856   18.1660   22.6093 C   0  0  2  0  0  0  0  0  0  0  0  0
   21.5831   17.7381   23.2248 H   0  0  0  0  0  0  0  0  0  0  0  0
   19.9998   16.9965   21.9901 C   0  0  0  0  0  0  0  0  0  0  0  0
   19.4995   16.4071   22.7684 H   0  0  0  0  0  0  0  0  0  0  0  0
   20.6762   16.3243   21.4481 H   0  0  0  0  0  0  0  0  0  0  0  0
   19.2395   17.3475   21.2824 H   0  0  0  0  0  0  0  0  0  0  0  0
   19.9032   19.0316   23.5406 C   0  0  0  0  0  0  0  0  0  0  0  0
   19.5067   18.3952   24.3428 H   0  0  0  0  0  0  0  0  0  0  0  0
   20.5439   19.7740   24.0343 H   0  0  0  0  0  0  0  0  0  0  0  0
   18.7287   19.7605   22.8380 C   0  0  0  0  0  0  0  0  0  0  0  0
   18.0471   19.0305   22.3812 H   0  0  0  0  0  0  0  0  0  0  0  0
   19.1076   20.3949   22.0256 H   0  0  0  0  0  0  0  0  0  0  0  0
   17.9312   20.6354   23.8289 C   0  0  0  0  0  0  0  0  0  0  0  0
   17.1026   21.1428   23.3181 H   0  0  0  0  0  0  0  0  0  0  0  0
   18.5706   21.4057   24.2794 H   0  0  0  0  0  0  0  0  0  0  0  0
   17.5058   20.0280   24.6384 H   0  0  0  0  0  0  0  0  0  0  0  0
  1  2  1  0  0  0  0
  1  3  1  0  0  0  0
  1  4  1  0  0  0  0
  1  5  1  0  0  0  0
  5  6  1  0  0  0  0
  5  7  1  0  0  0  0
  7  8  1  0  0  0  0
  7  9  1  0  0  0  0
  7 10  1  0  0  0  0
  5 11  1  0  0  0  0
 11 12  1  0  0  0  0
 11 13  1  0  0  0  0
 11 14  1  0  0  0  0
 14 15  1  0  0  0  0
 14 16  1  0  0  0  0
 14 17  1  0  0  0  0
 17 18  1  0  0  0  0
 17 19  1  0  0  0  0
 17 20  1  0  0  0  0
M  END
> <VConfSearch Rank>
795

> <Conf_Id>
63

> <Delta U+W>
0.420

> <U+W>
-35.856

> <U>
22.625

> <W>
-58.481

> <W(PB)>
-60.400

> <W(SA)>
1.919

> <Valence>
2.404

> <Coulomb>
19.464

> <VdW>
0.757

> <VdW6>
-5.074

> <VdW12>
5.830

> <Bond>
0.172

> <Angle>
1.207

> <Pdih>
1.025

> <Idih>
0.000

> <Tether>
0.000

$$$$
VeraChem MOL file


 20 19  0  0  0  0  0  0  0  0999 V2000     
   18.1603   19.2241   23.6309 N   0  3  0  0  0  0  0  0  0  0  0  0
   18.4421   20.2072   23.6605 H   0  0  0  0  0  0  0  0  0  0  0  0
   18.2298   18.8549   24.5824 H   0  0  0  0  0  0  0  0  0  0  0  0
   17.1728   19.1969   23.3635 H   0  0  0  0  0  0  0  0  0  0  0  0
   19.0138   18.4394   22.6717 C   0  0  2  0  0  0  0  0  0  0  0  0
   18.8795   18.8949   21.6860 H   0  0  0  0  0  0  0  0  0  0  0  0
   18.5394   16.9792   22.5922 C   0  0  0  0  0  0  0  0  0  0  0  0
   17.4841   16.9292   22.2969 H   0  0  0  0  0  0  0  0  0  0  0  0
   18.6479   16.4726   23.5594 H   0  0  0  0  0  0  0  0  0  0  0  0
   19.1198   16.4209   21.8472 H   0  0  0  0  0  0  0  0  0  0  0  0
   20.5156   18.4984   23.0323 C   0  0  0  0  0  0  0  0  0  0  0  0
   20.6733   18.0303   24.0131 H   0  0  0  0  0  0  0  0  0  0  0  0
   21.0804   17.8941   22.3100 H   0  0  0  0  0  0  0  0  0  0  0  0
   21.1080   19.9303   23.0529 C   0  0  0  0  0  0  0  0  0  0  0  0
   22.1718   19.8678   23.3220 H   0  0  0  0  0  0  0  0  0  0  0  0
   20.6319   20.5273   23.8426 H   0  0  0  0  0  0  0  0  0  0  0  0
   20.9767   20.6599   21.6966 C   0  0  0  0  0  0  0  0  0  0  0  0
   21.4462   20.0814   20.8903 H   0  0  0  0  0  0  0  0  0  0  0  0
   21.4714   21.6391   21.7372 H   0  0  0  0  0  0  0  0  0  0  0  0
   19.9265   20.8313   21.4288 H   0  0  0  0  0  0  0  0  0  0  0  0
  1  2  1  0  0  0  0
  1  3  1  0  0  0  0
  1  4  1  0  0  0  0
  1  5  1  0  0  0  0
  5  6  1  0  0  0  0
  5  7  1  0  0  0  0
  7  8  1  0  0  0  0
  7  9  1  0  0  0  0
  7 10  1  0  0  0  0
  5 11  1  0  0  0  0
 11 12  1  0  0  0  0
 11 13  1  0  0  0  0
 11 14  1  0  0  0  0
 14 15  1  0  0  0  0
 14 16  1  0  0  0  0
 14 17  1  0  0  0  0
 17 18  1  0  0  0  0
 17 19  1  0  0  0  0
 17 20  1  0  0  0  0
M  END
> <VConfSearch Rank>
796

> <Conf_Id>
50

> <Delta U+W>
0.466

> <U+W>
-35.811

> <U>
22.369

> <W>
-58.180

> <W(PB)>
-60.103

> <W(SA)>
1.923

> <Valence>
2.168

> <Coulomb>
19.636

> <VdW>
0.566

> <VdW6>
-5.263

> <VdW12>
5.829

> <Bond>
0.162

> <Angle>
1.066

> <Pdih>
0.939

> <Idih>
0.000

> <Tether>
0.000

$$$$
VeraChem MOL file


 20 19  0  0  0  0  0  0  0  0999 V2000     
   21.8033   18.6559   21.8493 N   0  3  0  0  0  0  0  0  0  0  0  0
   21.7988   19.2624   21.0246 H   0  0  0  0  0  0  0  0  0  0  0  0
   21.8741   17.6898   21.5198 H   0  0  0  0  0  0  0  0  0  0  0  0
   22.6589   18.8626   22.3717 H   0  0  0  0  0  0  0  0  0  0  0  0
   20.5771   18.8624   22.6968 C   0  0  2  0  0  0  0  0  0  0  0  0
   20.5871   19.9152   22.9958 H   0  0  0  0  0  0  0  0  0  0  0  0
   20.6583   17.9889   23.9626 C   0  0  0  0  0  0  0  0  0  0  0  0
   20.6984   16.9231   23.7054 H   0  0  0  0  0  0  0  0  0  0  0  0
   19.7930   18.1446   24.6159 H   0  0  0  0  0  0  0  0  0  0  0  0
   21.5574   18.2314   24.5422 H   0  0  0  0  0  0  0  0  0  0  0  0
   19.2741   18.5997   21.9022 C   0  0  0  0  0  0  0  0  0  0  0  0
   19.4987   18.6173   20.8276 H   0  0  0  0  0  0  0  0  0  0  0  0
   18.8961   17.5895   22.1084 H   0  0  0  0  0  0  0  0  0  0  0  0
   18.1612   19.6475   22.1578 C   0  0  0  0  0  0  0  0  0  0  0  0
   17.3114   19.4250   21.4972 H   0  0  0  0  0  0  0  0  0  0  0  0
   18.5211   20.6443   21.8663 H   0  0  0  0  0  0  0  0  0  0  0  0
   17.6573   19.6915   23.6174 C   0  0  0  0  0  0  0  0  0  0  0  0
   17.3296   18.6992   23.9537 H   0  0  0  0  0  0  0  0  0  0  0  0
   16.8026   20.3743   23.7075 H   0  0  0  0  0  0  0  0  0  0  0  0
   18.4371   20.0514   24.3001 H   0  0  0  0  0  0  0  0  0  0  0  0
  1  2  1  0  0  0  0
  1  3  1  0  0  0  0
  1  4  1  0  0  0  0
  1  5  1  0  0  0  0
  5  6  1  0  0  0  0
  5  7  1  0  0  0  0
  7  8  1  0  0  0  0
  7  9  1  0  0  0  0
  7 10  1  0  0  0  0
  5 11  1  0  0  0  0
 11 12  1  0  0  0  0
 11 13  1  0  0  0  0
 11 14  1  0  0  0  0
 14 15  1  0  0  0  0
 14 16  1  0  0  0  0
 14 17  1  0  0  0  0
 17 18  1  0  0  0  0
 17 19  1  0  0  0  0
 17 20  1  0  0  0  0
M  END
> <VConfSearch Rank>
797

> <Conf_Id>
3

> <Delta U+W>
3.093

> <U+W>
-33.184

> <U>
25.256

> <W>
-58.439

> <W(PB)>
-60.337

> <W(SA)>
1.898

> <Valence>
4.963

> <Coulomb>
19.511

> <VdW>
0.782

> <VdW6>
-5.429

> <VdW12>
6.211

> <Bond>
0.174

> <Angle>
1.377

> <Pdih>
3.412

> <Idih>
0.000

> <Tether>
0.000

$$$$
VeraChem MOL file


 20 19  0  0  0  0  0  0  0  0999 V2000     
   21.5098   17.8268   23.5416 N   0  3  0  0  0  0  0  0  0  0  0  0
   21.9848   17.0927   23.0096 H   0  0  0  0  0  0  0  0  0  0  0  0
   21.1777   17.4028   24.4120 H   0  0  0  0  0  0  0  0  0  0  0  0
   22.2141   18.5258   23.7905 H   0  0  0  0  0  0  0  0  0  0  0  0
   20.3816   18.4352   22.7545 C   0  0  2  0  0  0  0  0  0  0  0  0
   19.6874   17.6191   22.5329 H   0  0  0  0  0  0  0  0  0  0  0  0
   20.9037   19.0044   21.4227 C   0  0  0  0  0  0  0  0  0  0  0  0
   20.0785   19.3253   20.7766 H   0  0  0  0  0  0  0  0  0  0  0  0
   21.4695   18.2430   20.8721 H   0  0  0  0  0  0  0  0  0  0  0  0
   21.5640   19.8643   21.5900 H   0  0  0  0  0  0  0  0  0  0  0  0
   19.6291   19.5009   23.5866 C   0  0  0  0  0  0  0  0  0  0  0  0
   19.3531   19.0608   24.5539 H   0  0  0  0  0  0  0  0  0  0  0  0
   20.3099   20.3320   23.8136 H   0  0  0  0  0  0  0  0  0  0  0  0
   18.3461   20.0641   22.9235 C   0  0  0  0  0  0  0  0  0  0  0  0
   18.6015   20.6291   22.0170 H   0  0  0  0  0  0  0  0  0  0  0  0
   17.8852   20.7893   23.6088 H   0  0  0  0  0  0  0  0  0  0  0  0
   17.3098   18.9693   22.5823 C   0  0  0  0  0  0  0  0  0  0  0  0
   17.0406   18.3884   23.4741 H   0  0  0  0  0  0  0  0  0  0  0  0
   17.6914   18.2754   21.8227 H   0  0  0  0  0  0  0  0  0  0  0  0
   16.3905   19.4199   22.1862 H   0  0  0  0  0  0  0  0  0  0  0  0
  1  2  1  0  0  0  0
  1  3  1  0  0  0  0
  1  4  1  0  0  0  0
  1  5  1  0  0  0  0
  5  6  1  0  0  0  0
  5  7  1  0  0  0  0
  7  8  1  0  0  0  0
  7  9  1  0  0  0  0
  7 10  1  0  0  0  0
  5 11  1  0  0  0  0
 11 12  1  0  0  0  0
 11 13  1  0  0  0  0
 11 14  1  0  0  0  0
 14 15  1  0  0  0  0
 14 16  1  0  0  0  0
 14 17  1  0  0  0  0
 17 18  1  0  0  0  0
 17 19  1  0  0  0  0
 17 20  1  0  0  0  0
M  END
> <VConfSearch Rank>
798

> <Conf_Id>
64

> <Delta U+W>
0.544

> <U+W>
-35.732

> <U>
22.800

> <W>
-58.532

> <W(PB)>
-60.437

> <W(SA)>
1.905

> <Valence>
2.662

> <Coulomb>
19.485

> <VdW>
0.653

> <VdW6>
-5.460

> <VdW12>
6.113

> <Bond>
0.174

> <Angle>
1.378

> <Pdih>
1.109

> <Idih>
0.000

> <Tether>
0.000

$$$$
VeraChem MOL file


 20 19  0  0  0  0  0  0  0  0999 V2000     
   21.4736   18.9342   21.4302 N   0  3  0  0  0  0  0  0  0  0  0  0
   20.8262   19.5432   20.9248 H   0  0  0  0  0  0  0  0  0  0  0  0
   21.8594   18.2699   20.7538 H   0  0  0  0  0  0  0  0  0  0  0  0
   22.2485   19.5160   21.7600 H   0  0  0  0  0  0  0  0  0  0  0  0
   20.7893   18.2261   22.5682 C   0  0  2  0  0  0  0  0  0  0  0  0
   21.5554   17.5978   23.0334 H   0  0  0  0  0  0  0  0  0  0  0  0
   19.6839   17.2929   22.0478 C   0  0  0  0  0  0  0  0  0  0  0  0
   18.9452   17.8397   21.4503 H   0  0  0  0  0  0  0  0  0  0  0  0
   19.1654   16.7993   22.8790 H   0  0  0  0  0  0  0  0  0  0  0  0
   20.1128   16.5093   21.4113 H   0  0  0  0  0  0  0  0  0  0  0  0
   20.2882   19.2078   23.6573 C   0  0  0  0  0  0  0  0  0  0  0  0
   19.9587   18.6389   24.5367 H   0  0  0  0  0  0  0  0  0  0  0  0
   21.1549   19.7890   23.9987 H   0  0  0  0  0  0  0  0  0  0  0  0
   19.1748   20.2024   23.2257 C   0  0  0  0  0  0  0  0  0  0  0  0
   19.2671   20.4563   22.1616 H   0  0  0  0  0  0  0  0  0  0  0  0
   19.3222   21.1448   23.7718 H   0  0  0  0  0  0  0  0  0  0  0  0
   17.7443   19.6992   23.5309 C   0  0  0  0  0  0  0  0  0  0  0  0
   17.5036   18.7806   22.9848 H   0  0  0  0  0  0  0  0  0  0  0  0
   17.0027   20.4568   23.2460 H   0  0  0  0  0  0  0  0  0  0  0  0
   17.6186   19.4988   24.6029 H   0  0  0  0  0  0  0  0  0  0  0  0
  1  2  1  0  0  0  0
  1  3  1  0  0  0  0
  1  4  1  0  0  0  0
  1  5  1  0  0  0  0
  5  6  1  0  0  0  0
  5  7  1  0  0  0  0
  7  8  1  0  0  0  0
  7  9  1  0  0  0  0
  7 10  1  0  0  0  0
  5 11  1  0  0  0  0
 11 12  1  0  0  0  0
 11 13  1  0  0  0  0
 11 14  1  0  0  0  0
 14 15  1  0  0  0  0
 14 16  1  0  0  0  0
 14 17  1  0  0  0  0
 17 18  1  0  0  0  0
 17 19  1  0  0  0  0
 17 20  1  0  0  0  0
M  END
> <VConfSearch Rank>
799

> <Conf_Id>
35

> <Delta U+W>
3.004

> <U+W>
-33.272

> <U>
25.367

> <W>
-58.639

> <W(PB)>
-60.512

> <W(SA)>
1.873

> <Valence>
4.943

> <Coulomb>
19.661

> <VdW>
0.764

> <VdW6>
-5.871

> <VdW12>
6.636

> <Bond>
0.230

> <Angle>
1.857

> <Pdih>
2.855

> <Idih>
0.000

> <Tether>
0.000

$$$$
VeraChem MOL file


 20 19  0  0  0  0  0  0  0  0999 V2000     
   18.3094   18.5371   23.5668 N   0  3  0  0  0  0  0  0  0  0  0  0
   17.8886   17.7118   24.0020 H   0  0  0  0  0  0  0  0  0  0  0  0
   17.5599   19.2176   23.4161 H   0  0  0  0  0  0  0  0  0  0  0  0
   18.9613   18.9442   24.2401 H   0  0  0  0  0  0  0  0  0  0  0  0
   19.0039   18.1884   22.2790 C   0  0  2  0  0  0  0  0  0  0  0  0
   18.2207   17.7894   21.6269 H   0  0  0  0  0  0  0  0  0  0  0  0
   20.0415   17.0707   22.4854 C   0  0  0  0  0  0  0  0  0  0  0  0
   20.8146   17.3638   23.2056 H   0  0  0  0  0  0  0  0  0  0  0  0
   20.5323   16.8158   21.5379 H   0  0  0  0  0  0  0  0  0  0  0  0
   19.5575   16.1622   22.8641 H   0  0  0  0  0  0  0  0  0  0  0  0
   19.6015   19.4236   21.5576 C   0  0  0  0  0  0  0  0  0  0  0  0
   19.7977   19.1373   20.5159 H   0  0  0  0  0  0  0  0  0  0  0  0
   18.8361   20.2087   21.5039 H   0  0  0  0  0  0  0  0  0  0  0  0
   20.9119   20.0244   22.1395 C   0  0  0  0  0  0  0  0  0  0  0  0
   21.2212   20.8557   21.4906 H   0  0  0  0  0  0  0  0  0  0  0  0
   21.7258   19.2889   22.0837 H   0  0  0  0  0  0  0  0  0  0  0  0
   20.7910   20.5574   23.5853 C   0  0  0  0  0  0  0  0  0  0  0  0
   19.9305   21.2308   23.6910 H   0  0  0  0  0  0  0  0  0  0  0  0
   21.6914   21.1232   23.8579 H   0  0  0  0  0  0  0  0  0  0  0  0
   20.6936   19.7407   24.3098 H   0  0  0  0  0  0  0  0  0  0  0  0
  1  2  1  0  0  0  0
  1  3  1  0  0  0  0
  1  4  1  0  0  0  0
  1  5  1  0  0  0  0
  5  6  1  0  0  0  0
  5  7  1  0  0  0  0
  7  8  1  0  0  0  0
  7  9  1  0  0  0  0
  7 10  1  0  0  0  0
  5 11  1  0  0  0  0
 11 12  1  0  0  0  0
 11 13  1  0  0  0  0
 11 14  1  0  0  0  0
 14 15  1  0  0  0  0
 14 16  1  0  0  0  0
 14 17  1  0  0  0  0
 17 18  1  0  0  0  0
 17 19  1  0  0  0  0
 17 20  1  0  0  0  0
M  END
> <VConfSearch Rank>
800

> <Conf_Id>
55

> <Delta U+W>
2.767

> <U+W>
-33.509

> <U>
24.552

> <W>
-58.061

> <W(PB)>
-59.930

> <W(SA)>
1.869

> <Valence>
3.726

> <Coulomb>
20.219

> <VdW>
0.606

> <VdW6>
-6.395

> <VdW12>
7.001

> <Bond>
0.241

> <Angle>
2.098

> <Pdih>
1.387

> <Idih>
0.000

> <Tether>
0.000

$$$$
VeraChem MOL file


 20 19  0  0  0  0  0  0  0  0999 V2000     
   20.4780   18.9969   24.5482 N   0  3  0  0  0  0  0  0  0  0  0  0
   21.4341   19.2665   24.3034 H   0  0  0  0  0  0  0  0  0  0  0  0
   20.5181   18.5168   25.4513 H   0  0  0  0  0  0  0  0  0  0  0  0
   19.9414   19.8570   24.6852 H   0  0  0  0  0  0  0  0  0  0  0  0
   19.8624   18.1246   23.4875 C   0  0  2  0  0  0  0  0  0  0  0  0
   18.8482   17.8879   23.8241 H   0  0  0  0  0  0  0  0  0  0  0  0
   20.6436   16.8074   23.3510 C   0  0  0  0  0  0  0  0  0  0  0  0
   20.6852   16.2791   24.3114 H   0  0  0  0  0  0  0  0  0  0  0  0
   21.6725   16.9885   23.0157 H   0  0  0  0  0  0  0  0  0  0  0  0
   20.1606   16.1407   22.6259 H   0  0  0  0  0  0  0  0  0  0  0  0
   19.7634   18.8344   22.1191 C   0  0  0  0  0  0  0  0  0  0  0  0
   20.7686   19.1045   21.7690 H   0  0  0  0  0  0  0  0  0  0  0  0
   19.3549   18.1291   21.3830 H   0  0  0  0  0  0  0  0  0  0  0  0
   18.8654   20.0945   22.1539 C   0  0  0  0  0  0  0  0  0  0  0  0
   19.2843   20.8406   22.8427 H   0  0  0  0  0  0  0  0  0  0  0  0
   17.8703   19.8296   22.5384 H   0  0  0  0  0  0  0  0  0  0  0  0
   18.7199   20.7295   20.7543 C   0  0  0  0  0  0  0  0  0  0  0  0
   19.6964   21.0334   20.3550 H   0  0  0  0  0  0  0  0  0  0  0  0
   18.0818   21.6217   20.7978 H   0  0  0  0  0  0  0  0  0  0  0  0
   18.2650   20.0252   20.0456 H   0  0  0  0  0  0  0  0  0  0  0  0
  1  2  1  0  0  0  0
  1  3  1  0  0  0  0
  1  4  1  0  0  0  0
  1  5  1  0  0  0  0
  5  6  1  0  0  0  0
  5  7  1  0  0  0  0
  7  8  1  0  0  0  0
  7  9  1  0  0  0  0
  7 10  1  0  0  0  0
  5 11  1  0  0  0  0
 11 12  1  0  0  0  0
 11 13  1  0  0  0  0
 11 14  1  0  0  0  0
 14 15  1  0  0  0  0
 14 16  1  0  0  0  0
 14 17  1  0  0  0  0
 17 18  1  0  0  0  0
 17 19  1  0  0  0  0
 17 20  1  0  0  0  0
M  END
> <VConfSearch Rank>
801

> <Conf_Id>
74

> <Delta U+W>
0.000

> <U+W>
-36.276

> <U>
22.080

> <W>
-58.356

> <W(PB)>
-60.289

> <W(SA)>
1.932

> <Valence>
1.885

> <Coulomb>
19.559

> <VdW>
0.637

> <VdW6>
-4.482

> <VdW12>
5.119

> <Bond>
0.136

> <Angle>
0.867

> <Pdih>
0.882

> <Idih>
0.000

> <Tether>
0.000

$$$$
VeraChem MOL file


 20 19  0  0  0  0  0  0  0  0999 V2000     
   18.7072   19.7276   24.7259 N   0  3  0  0  0  0  0  0  0  0  0  0
   19.5201   19.9151   25.3191 H   0  0  0  0  0  0  0  0  0  0  0  0
   18.2984   18.8428   25.0370 H   0  0  0  0  0  0  0  0  0  0  0  0
   18.0202   20.4627   24.9137 H   0  0  0  0  0  0  0  0  0  0  0  0
   19.0807   19.6820   23.2695 C   0  0  2  0  0  0  0  0  0  0  0  0
   19.5026   20.6627   23.0288 H   0  0  0  0  0  0  0  0  0  0  0  0
   17.8262   19.4665   22.4031 C   0  0  0  0  0  0  0  0  0  0  0  0
   17.0554   20.2074   22.6484 H   0  0  0  0  0  0  0  0  0  0  0  0
   17.4004   18.4680   22.5620 H   0  0  0  0  0  0  0  0  0  0  0  0
   18.0535   19.5778   21.3368 H   0  0  0  0  0  0  0  0  0  0  0  0
   20.1641   18.6111   23.0033 C   0  0  0  0  0  0  0  0  0  0  0  0
   20.9799   18.7556   23.7239 H   0  0  0  0  0  0  0  0  0  0  0  0
   19.7519   17.6119   23.1972 H   0  0  0  0  0  0  0  0  0  0  0  0
   20.7565   18.6627   21.5737 C   0  0  0  0  0  0  0  0  0  0  0  0
   21.1122   19.6797   21.3563 H   0  0  0  0  0  0  0  0  0  0  0  0
   19.9814   18.4306   20.8313 H   0  0  0  0  0  0  0  0  0  0  0  0
   21.9231   17.6657   21.4042 C   0  0  0  0  0  0  0  0  0  0  0  0
   22.7407   17.8906   22.1015 H   0  0  0  0  0  0  0  0  0  0  0  0
   22.3284   17.7128   20.3851 H   0  0  0  0  0  0  0  0  0  0  0  0
   21.5916   16.6352   21.5872 H   0  0  0  0  0  0  0  0  0  0  0  0
  1  2  1  0  0  0  0
  1  3  1  0  0  0  0
  1  4  1  0  0  0  0
  1  5  1  0  0  0  0
  5  6  1  0  0  0  0
  5  7  1  0  0  0  0
  7  8  1  0  0  0  0
  7  9  1  0  0  0  0
  7 10  1  0  0  0  0
  5 11  1  0  0  0  0
 11 12  1  0  0  0  0
 11 13  1  0  0  0  0
 11 14  1  0  0  0  0
 14 15  1  0  0  0  0
 14 16  1  0  0  0  0
 14 17  1  0  0  0  0
 17 18  1  0  0  0  0
 17 19  1  0  0  0  0
 17 20  1  0  0  0  0
M  END
> <VConfSearch Rank>
802

> <Conf_Id>
80

> <Delta U+W>
0.460

> <U+W>
-35.817

> <U>
22.495

> <W>
-58.311

> <W(PB)>
-60.259

> <W(SA)>
1.948

> <Valence>
2.419

> <Coulomb>
19.304

> <VdW>
0.772

> <VdW6>
-4.635

> <VdW12>
5.407

> <Bond>
0.149

> <Angle>
1.142

> <Pdih>
1.129

> <Idih>
0.000

> <Tether>
0.000

$$$$
VeraChem MOL file


 20 19  0  0  0  0  0  0  0  0999 V2000     
   20.2524   18.7750   20.3811 N   0  3  0  0  0  0  0  0  0  0  0  0
   19.4008   18.6473   19.8275 H   0  0  0  0  0  0  0  0  0  0  0  0
   20.7227   17.8680   20.4335 H   0  0  0  0  0  0  0  0  0  0  0  0
   20.8637   19.4046   19.8543 H   0  0  0  0  0  0  0  0  0  0  0  0
   19.9492   19.3196   21.7501 C   0  0  2  0  0  0  0  0  0  0  0  0
   19.4572   20.2847   21.5936 H   0  0  0  0  0  0  0  0  0  0  0  0
   21.2545   19.5686   22.5250 C   0  0  0  0  0  0  0  0  0  0  0  0
   21.9592   20.1519   21.9198 H   0  0  0  0  0  0  0  0  0  0  0  0
   21.7410   18.6244   22.7994 H   0  0  0  0  0  0  0  0  0  0  0  0
   21.0649   20.1425   23.4392 H   0  0  0  0  0  0  0  0  0  0  0  0
   18.9652   18.3967   22.5099 C   0  0  0  0  0  0  0  0  0  0  0  0
   18.0879   18.2497   21.8661 H   0  0  0  0  0  0  0  0  0  0  0  0
   19.4066   17.4003   22.6445 H   0  0  0  0  0  0  0  0  0  0  0  0
   18.4648   18.9504   23.8703 C   0  0  0  0  0  0  0  0  0  0  0  0
   17.4107   18.6661   23.9978 H   0  0  0  0  0  0  0  0  0  0  0  0
   18.4813   20.0493   23.8650 H   0  0  0  0  0  0  0  0  0  0  0  0
   19.2542   18.4053   25.0839 C   0  0  0  0  0  0  0  0  0  0  0  0
   19.1802   17.3115   25.1403 H   0  0  0  0  0  0  0  0  0  0  0  0
   18.8507   18.8140   26.0194 H   0  0  0  0  0  0  0  0  0  0  0  0
   20.3167   18.6689   25.0381 H   0  0  0  0  0  0  0  0  0  0  0  0
  1  2  1  0  0  0  0
  1  3  1  0  0  0  0
  1  4  1  0  0  0  0
  1  5  1  0  0  0  0
  5  6  1  0  0  0  0
  5  7  1  0  0  0  0
  7  8  1  0  0  0  0
  7  9  1  0  0  0  0
  7 10  1  0  0  0  0
  5 11  1  0  0  0  0
 11 12  1  0  0  0  0
 11 13  1  0  0  0  0
 11 14  1  0  0  0  0
 14 15  1  0  0  0  0
 14 16  1  0  0  0  0
 14 17  1  0  0  0  0
 17 18  1  0  0  0  0
 17 19  1  0  0  0  0
 17 20  1  0  0  0  0
M  END
> <VConfSearch Rank>
803

> <Conf_Id>
52

> <Delta U+W>
2.995

> <U+W>
-33.282

> <U>
25.224

> <W>
-58.506

> <W(PB)>
-60.411

> <W(SA)>
1.905

> <Valence>
4.945

> <Coulomb>
19.467

> <VdW>
0.813

> <VdW6>
-5.458

> <VdW12>
6.270

> <Bond>
0.200

> <Angle>
1.675

> <Pdih>
3.070

> <Idih>
0.000

> <Tether>
0.000

$$$$
VeraChem MOL file


 20 19  0  0  0  0  0  0  0  0999 V2000     
   19.7559   19.4952   24.2931 N   0  3  0  0  0  0  0  0  0  0  0  0
   18.7673   19.5594   24.5480 H   0  0  0  0  0  0  0  0  0  0  0  0
   20.2805   20.0752   24.9534 H   0  0  0  0  0  0  0  0  0  0  0  0
   20.0461   18.5254   24.4353 H   0  0  0  0  0  0  0  0  0  0  0  0
   19.9852   19.9310   22.8716 C   0  0  2  0  0  0  0  0  0  0  0  0
   21.0632   19.8817   22.6893 H   0  0  0  0  0  0  0  0  0  0  0  0
   19.5339   21.3907   22.6944 C   0  0  0  0  0  0  0  0  0  0  0  0
   18.4529   21.4940   22.8512 H   0  0  0  0  0  0  0  0  0  0  0  0
   19.7693   21.7533   21.6860 H   0  0  0  0  0  0  0  0  0  0  0  0
   20.0472   22.0458   23.4090 H   0  0  0  0  0  0  0  0  0  0  0  0
   19.2760   19.0185   21.8427 C   0  0  0  0  0  0  0  0  0  0  0  0
   18.2367   18.8440   22.1507 H   0  0  0  0  0  0  0  0  0  0  0  0
   19.2189   19.5508   20.8837 H   0  0  0  0  0  0  0  0  0  0  0  0
   19.9876   17.6667   21.5731 C   0  0  0  0  0  0  0  0  0  0  0  0
   21.0119   17.8514   21.2200 H   0  0  0  0  0  0  0  0  0  0  0  0
   19.4680   17.1658   20.7442 H   0  0  0  0  0  0  0  0  0  0  0  0
   20.0241   16.7003   22.7789 C   0  0  0  0  0  0  0  0  0  0  0  0
   20.3562   15.7047   22.4565 H   0  0  0  0  0  0  0  0  0  0  0  0
   19.0302   16.5881   23.2315 H   0  0  0  0  0  0  0  0  0  0  0  0
   20.7295   17.0383   23.5468 H   0  0  0  0  0  0  0  0  0  0  0  0
  1  2  1  0  0  0  0
  1  3  1  0  0  0  0
  1  4  1  0  0  0  0
  1  5  1  0  0  0  0
  5  6  1  0  0  0  0
  5  7  1  0  0  0  0
  7  8  1  0  0  0  0
  7  9  1  0  0  0  0
  7 10  1  0  0  0  0
  5 11  1  0  0  0  0
 11 12  1  0  0  0  0
 11 13  1  0  0  0  0
 11 14  1  0  0  0  0
 14 15  1  0  0  0  0
 14 16  1  0  0  0  0
 14 17  1  0  0  0  0
 17 18  1  0  0  0  0
 17 19  1  0  0  0  0
 17 20  1  0  0  0  0
M  END
> <VConfSearch Rank>
804

> <Conf_Id>
54

> <Delta U+W>
2.752

> <U+W>
-33.525

> <U>
24.337

> <W>
-57.862

> <W(PB)>
-59.764

> <W(SA)>
1.901

> <Valence>
3.593

> <Coulomb>
20.067

> <VdW>
0.677

> <VdW6>
-5.466

> <VdW12>
6.144

> <Bond>
0.191

> <Angle>
1.557

> <Pdih>
1.845

> <Idih>
0.000

> <Tether>
0.000

$$$$
VeraChem MOL file


 20 19  0  0  0  0  0  0  0  0999 V2000     
   19.1235   19.9029   20.9739 N   0  3  0  0  0  0  0  0  0  0  0  0
   18.3308   20.0291   20.3389 H   0  0  0  0  0  0  0  0  0  0  0  0
   19.9770   20.0041   20.4181 H   0  0  0  0  0  0  0  0  0  0  0  0
   19.1016   20.6729   21.6464 H   0  0  0  0  0  0  0  0  0  0  0  0
   19.0684   18.5675   21.6649 C   0  0  2  0  0  0  0  0  0  0  0  0
   19.0792   17.8149   20.8702 H   0  0  0  0  0  0  0  0  0  0  0  0
   17.7508   18.4013   22.4429 C   0  0  0  0  0  0  0  0  0  0  0  0
   17.7153   17.4274   22.9465 H   0  0  0  0  0  0  0  0  0  0  0  0
   16.8936   18.4535   21.7606 H   0  0  0  0  0  0  0  0  0  0  0  0
   17.6242   19.1846   23.1994 H   0  0  0  0  0  0  0  0  0  0  0  0
   20.3069   18.3096   22.5564 C   0  0  0  0  0  0  0  0  0  0  0  0
   20.2475   17.2887   22.9562 H   0  0  0  0  0  0  0  0  0  0  0  0
   21.2023   18.3324   21.9214 H   0  0  0  0  0  0  0  0  0  0  0  0
   20.4892   19.3084   23.7284 C   0  0  0  0  0  0  0  0  0  0  0  0
   19.6251   19.2628   24.4046 H   0  0  0  0  0  0  0  0  0  0  0  0
   20.5411   20.3366   23.3460 H   0  0  0  0  0  0  0  0  0  0  0  0
   21.7704   19.0069   24.5353 C   0  0  0  0  0  0  0  0  0  0  0  0
   21.8847   19.7200   25.3620 H   0  0  0  0  0  0  0  0  0  0  0  0
   22.6636   19.0810   23.9014 H   0  0  0  0  0  0  0  0  0  0  0  0
   21.7386   17.9968   24.9643 H   0  0  0  0  0  0  0  0  0  0  0  0
  1  2  1  0  0  0  0
  1  3  1  0  0  0  0
  1  4  1  0  0  0  0
  1  5  1  0  0  0  0
  5  6  1  0  0  0  0
  5  7  1  0  0  0  0
  7  8  1  0  0  0  0
  7  9  1  0  0  0  0
  7 10  1  0  0  0  0
  5 11  1  0  0  0  0
 11 12  1  0  0  0  0
 11 13  1  0  0  0  0
 11 14  1  0  0  0  0
 14 15  1  0  0  0  0
 14 16  1  0  0  0  0
 14 17  1  0  0  0  0
 17 18  1  0  0  0  0
 17 19  1  0  0  0  0
 17 20  1  0  0  0  0
M  END
> <VConfSearch Rank>
805

> <Conf_Id>
63

> <Delta U+W>
0.420

> <U+W>
-35.856

> <U>
22.625

> <W>
-58.481

> <W(PB)>
-60.400

> <W(SA)>
1.919

> <Valence>
2.404

> <Coulomb>
19.464

> <VdW>
0.757

> <VdW6>
-5.074

> <VdW12>
5.830

> <Bond>
0.172

> <Angle>
1.207

> <Pdih>
1.025

> <Idih>
0.000

> <Tether>
0.000

$$$$
VeraChem MOL file


 20 19  0  0  0  0  0  0  0  0999 V2000     
   21.0684   19.3276   21.7102 N   0  3  0  0  0  0  0  0  0  0  0  0
   20.3903   19.8421   21.1425 H   0  0  0  0  0  0  0  0  0  0  0  0
   21.3376   18.4914   21.1861 H   0  0  0  0  0  0  0  0  0  0  0  0
   21.9019   19.9151   21.7980 H   0  0  0  0  0  0  0  0  0  0  0  0
   20.4978   18.9741   23.0569 C   0  0  2  0  0  0  0  0  0  0  0  0
   20.2414   19.9178   23.5476 H   0  0  0  0  0  0  0  0  0  0  0  0
   21.5480   18.2562   23.9203 C   0  0  0  0  0  0  0  0  0  0  0  0
   22.4462   18.8755   24.0342 H   0  0  0  0  0  0  0  0  0  0  0  0
   21.8464   17.3008   23.4710 H   0  0  0  0  0  0  0  0  0  0  0  0
   21.1547   18.0535   24.9241 H   0  0  0  0  0  0  0  0  0  0  0  0
   19.2145   18.1195   22.9493 C   0  0  0  0  0  0  0  0  0  0  0  0
   19.4549   17.1595   22.4733 H   0  0  0  0  0  0  0  0  0  0  0  0
   18.8591   17.8797   23.9603 H   0  0  0  0  0  0  0  0  0  0  0  0
   18.0627   18.7991   22.1661 C   0  0  0  0  0  0  0  0  0  0  0  0
   17.2022   18.1158   22.1410 H   0  0  0  0  0  0  0  0  0  0  0  0
   18.3550   18.9542   21.1187 H   0  0  0  0  0  0  0  0  0  0  0  0
   17.6173   20.1424   22.7877 C   0  0  0  0  0  0  0  0  0  0  0  0
   17.3197   20.0123   23.8364 H   0  0  0  0  0  0  0  0  0  0  0  0
   16.7556   20.5508   22.2439 H   0  0  0  0  0  0  0  0  0  0  0  0
   18.4178   20.8918   22.7490 H   0  0  0  0  0  0  0  0  0  0  0  0
  1  2  1  0  0  0  0
  1  3  1  0  0  0  0
  1  4  1  0  0  0  0
  1  5  1  0  0  0  0
  5  6  1  0  0  0  0
  5  7  1  0  0  0  0
  7  8  1  0  0  0  0
  7  9  1  0  0  0  0
  7 10  1  0  0  0  0
  5 11  1  0  0  0  0
 11 12  1  0  0  0  0
 11 13  1  0  0  0  0
 11 14  1  0  0  0  0
 14 15  1  0  0  0  0
 14 16  1  0  0  0  0
 14 17  1  0  0  0  0
 17 18  1  0  0  0  0
 17 19  1  0  0  0  0
 17 20  1  0  0  0  0
M  END
> <VConfSearch Rank>
806

> <Conf_Id>
50

> <Delta U+W>
0.466

> <U+W>
-35.811

> <U>
22.369

> <W>
-58.180

> <W(PB)>
-60.103

> <W(SA)>
1.923

> <Valence>
2.168

> <Coulomb>
19.636

> <VdW>
0.566

> <VdW6>
-5.263

> <VdW12>
5.829

> <Bond>
0.162

> <Angle>
1.066

> <Pdih>
0.939

> <Idih>
0.000

> <Tether>
0.000

$$$$
VeraChem MOL file


 20 19  0  0  0  0  0  0  0  0999 V2000     
   19.2371   16.9286   21.6376 N   0  3  0  0  0  0  0  0  0  0  0  0
   19.8846   16.9267   20.8447 H   0  0  0  0  0  0  0  0  0  0  0  0
   18.2902   17.0188   21.2607 H   0  0  0  0  0  0  0  0  0  0  0  0
   19.3012   16.0089   22.0823 H   0  0  0  0  0  0  0  0  0  0  0  0
   19.5529   18.0333   22.6094 C   0  0  2  0  0  0  0  0  0  0  0  0
   20.5768   17.8545   22.9518 H   0  0  0  0  0  0  0  0  0  0  0  0
   18.6061   17.9552   23.8216 C   0  0  0  0  0  0  0  0  0  0  0  0
   17.5604   18.0825   23.5152 H   0  0  0  0  0  0  0  0  0  0  0  0
   18.8357   18.7284   24.5627 H   0  0  0  0  0  0  0  0  0  0  0  0
   18.6968   16.9825   24.3204 H   0  0  0  0  0  0  0  0  0  0  0  0
   19.5067   19.4269   21.9355 C   0  0  0  0  0  0  0  0  0  0  0  0
   19.5557   19.3010   20.8458 H   0  0  0  0  0  0  0  0  0  0  0  0
   18.5441   19.9170   22.1332 H   0  0  0  0  0  0  0  0  0  0  0  0
   20.6740   20.3607   22.3446 C   0  0  0  0  0  0  0  0  0  0  0  0
   20.6013   21.2893   21.7613 H   0  0  0  0  0  0  0  0  0  0  0  0
   21.6305   19.8980   22.0632 H   0  0  0  0  0  0  0  0  0  0  0  0
   20.7005   20.7186   23.8470 C   0  0  0  0  0  0  0  0  0  0  0  0
   19.7418   21.1448   24.1699 H   0  0  0  0  0  0  0  0  0  0  0  0
   21.4823   21.4619   24.0502 H   0  0  0  0  0  0  0  0  0  0  0  0
   20.9170   19.8385   24.4652 H   0  0  0  0  0  0  0  0  0  0  0  0
  1  2  1  0  0  0  0
  1  3  1  0  0  0  0
  1  4  1  0  0  0  0
  1  5  1  0  0  0  0
  5  6  1  0  0  0  0
  5  7  1  0  0  0  0
  7  8  1  0  0  0  0
  7  9  1  0  0  0  0
  7 10  1  0  0  0  0
  5 11  1  0  0  0  0
 11 12  1  0  0  0  0
 11 13  1  0  0  0  0
 11 14  1  0  0  0  0
 14 15  1  0  0  0  0
 14 16  1  0  0  0  0
 14 17  1  0  0  0  0
 17 18  1  0  0  0  0
 17 19  1  0  0  0  0
 17 20  1  0  0  0  0
M  END
> <VConfSearch Rank>
807

> <Conf_Id>
3

> <Delta U+W>
3.093

> <U+W>
-33.184

> <U>
25.256

> <W>
-58.439

> <W(PB)>
-60.337

> <W(SA)>
1.898

> <Valence>
4.963

> <Coulomb>
19.511

> <VdW>
0.782

> <VdW6>
-5.429

> <VdW12>
6.211

> <Bond>
0.174

> <Angle>
1.377

> <Pdih>
3.412

> <Idih>
0.000

> <Tether>
0.000

$$$$
VeraChem MOL file


 20 19  0  0  0  0  0  0  0  0999 V2000     
   21.2050   20.1515   21.5829 N   0  3  0  0  0  0  0  0  0  0  0  0
   22.2039   20.1596   21.8062 H   0  0  0  0  0  0  0  0  0  0  0  0
   20.8666   21.1131   21.6756 H   0  0  0  0  0  0  0  0  0  0  0  0
   21.1159   19.8890   20.5981 H   0  0  0  0  0  0  0  0  0  0  0  0
   20.4484   19.2078   22.4770 C   0  0  2  0  0  0  0  0  0  0  0  0
   20.6045   19.5632   23.4999 H   0  0  0  0  0  0  0  0  0  0  0  0
   21.0245   17.7847   22.3635 C   0  0  0  0  0  0  0  0  0  0  0  0
   20.5793   17.1149   23.1082 H   0  0  0  0  0  0  0  0  0  0  0  0
   22.1073   17.7908   22.5389 H   0  0  0  0  0  0  0  0  0  0  0  0
   20.8434   17.3612   21.3679 H   0  0  0  0  0  0  0  0  0  0  0  0
   18.9311   19.2462   22.1755 C   0  0  0  0  0  0  0  0  0  0  0  0
   18.5959   20.2916   22.1924 H   0  0  0  0  0  0  0  0  0  0  0  0
   18.7546   18.8865   21.1531 H   0  0  0  0  0  0  0  0  0  0  0  0
   18.0472   18.4350   23.1572 C   0  0  0  0  0  0  0  0  0  0  0  0
   18.2647   17.3620   23.0691 H   0  0  0  0  0  0  0  0  0  0  0  0
   16.9950   18.5528   22.8627 H   0  0  0  0  0  0  0  0  0  0  0  0
   18.2084   18.8817   24.6282 C   0  0  0  0  0  0  0  0  0  0  0  0
   17.9985   19.9533   24.7408 H   0  0  0  0  0  0  0  0  0  0  0  0
   19.2231   18.6895   24.9991 H   0  0  0  0  0  0  0  0  0  0  0  0
   17.5108   18.3340   25.2750 H   0  0  0  0  0  0  0  0  0  0  0  0
  1  2  1  0  0  0  0
  1  3  1  0  0  0  0
  1  4  1  0  0  0  0
  1  5  1  0  0  0  0
  5  6  1  0  0  0  0
  5  7  1  0  0  0  0
  7  8  1  0  0  0  0
  7  9  1  0  0  0  0
  7 10  1  0  0  0  0
  5 11  1  0  0  0  0
 11 12  1  0  0  0  0
 11 13  1  0  0  0  0
 11 14  1  0  0  0  0
 14 15  1  0  0  0  0
 14 16  1  0  0  0  0
 14 17  1  0  0  0  0
 17 18  1  0  0  0  0
 17 19  1  0  0  0  0
 17 20  1  0  0  0  0
M  END
> <VConfSearch Rank>
808

> <Conf_Id>
64

> <Delta U+W>
0.544

> <U+W>
-35.732

> <U>
22.800

> <W>
-58.532

> <W(PB)>
-60.437

> <W(SA)>
1.905

> <Valence>
2.662

> <Coulomb>
19.485

> <VdW>
0.653

> <VdW6>
-5.460

> <VdW12>
6.113

> <Bond>
0.174

> <Angle>
1.378

> <Pdih>
1.109

> <Idih>
0.000

> <Tether>
0.000

$$$$
VeraChem MOL file


 20 19  0  0  0  0  0  0  0  0999 V2000     
   18.9763   19.5185   20.8413 N   0  3  0  0  0  0  0  0  0  0  0  0
   19.9143   19.9234   20.8024 H   0  0  0  0  0  0  0  0  0  0  0  0
   18.3168   20.2472   20.5555 H   0  0  0  0  0  0  0  0  0  0  0  0
   18.9324   18.7765   20.1377 H   0  0  0  0  0  0  0  0  0  0  0  0
   18.6579   18.9969   22.2166 C   0  0  2  0  0  0  0  0  0  0  0  0
   17.6400   18.5990   22.1575 H   0  0  0  0  0  0  0  0  0  0  0  0
   18.6455   20.1384   23.2465 C   0  0  0  0  0  0  0  0  0  0  0  0
   19.6014   20.6749   23.2627 H   0  0  0  0  0  0  0  0  0  0  0  0
   18.4430   19.7541   24.2537 H   0  0  0  0  0  0  0  0  0  0  0  0
   17.8603   20.8646   23.0035 H   0  0  0  0  0  0  0  0  0  0  0  0
   19.5790   17.8211   22.6289 C   0  0  0  0  0  0  0  0  0  0  0  0
   19.1979   17.3666   23.5529 H   0  0  0  0  0  0  0  0  0  0  0  0
   19.4787   17.0417   21.8622 H   0  0  0  0  0  0  0  0  0  0  0  0
   21.0884   18.1545   22.7894 C   0  0  0  0  0  0  0  0  0  0  0  0
   21.3862   18.9616   22.1072 H   0  0  0  0  0  0  0  0  0  0  0  0
   21.6715   17.2744   22.4839 H   0  0  0  0  0  0  0  0  0  0  0  0
   21.4925   18.5076   24.2402 C   0  0  0  0  0  0  0  0  0  0  0  0
   20.9836   19.4068   24.6042 H   0  0  0  0  0  0  0  0  0  0  0  0
   22.5729   18.6913   24.3031 H   0  0  0  0  0  0  0  0  0  0  0  0
   21.2559   17.6835   24.9257 H   0  0  0  0  0  0  0  0  0  0  0  0
  1  2  1  0  0  0  0
  1  3  1  0  0  0  0
  1  4  1  0  0  0  0
  1  5  1  0  0  0  0
  5  6  1  0  0  0  0
  5  7  1  0  0  0  0
  7  8  1  0  0  0  0
  7  9  1  0  0  0  0
  7 10  1  0  0  0  0
  5 11  1  0  0  0  0
 11 12  1  0  0  0  0
 11 13  1  0  0  0  0
 11 14  1  0  0  0  0
 14 15  1  0  0  0  0
 14 16  1  0  0  0  0
 14 17  1  0  0  0  0
 17 18  1  0  0  0  0
 17 19  1  0  0  0  0
 17 20  1  0  0  0  0
M  END
> <VConfSearch Rank>
809

> <Conf_Id>
35

> <Delta U+W>
3.004

> <U+W>
-33.272

> <U>
25.367

> <W>
-58.639

> <W(PB)>
-60.512

> <W(SA)>
1.873

> <Valence>
4.943

> <Coulomb>
19.661

> <VdW>
0.764

> <VdW6>
-5.871

> <VdW12>
6.636

> <Bond>
0.230

> <Angle>
1.857

> <Pdih>
2.855

> <Idih>
0.000

> <Tether>
0.000

$$$$
VeraChem MOL file


 20 19  0  0  0  0  0  0  0  0999 V2000     
   18.6670   17.9009   21.8370 N   0  3  0  0  0  0  0  0  0  0  0  0
   18.7002   17.0718   21.2377 H   0  0  0  0  0  0  0  0  0  0  0  0
   17.7468   18.3311   21.7112 H   0  0  0  0  0  0  0  0  0  0  0  0
   18.7270   17.5850   22.8068 H   0  0  0  0  0  0  0  0  0  0  0  0
   19.7747   18.8640   21.5085 C   0  0  2  0  0  0  0  0  0  0  0  0
   19.6042   19.1569   20.4678 H   0  0  0  0  0  0  0  0  0  0  0  0
   21.1515   18.1791   21.5719 C   0  0  0  0  0  0  0  0  0  0  0  0
   21.3559   17.7724   22.5694 H   0  0  0  0  0  0  0  0  0  0  0  0
   21.9501   18.8871   21.3182 H   0  0  0  0  0  0  0  0  0  0  0  0
   21.2017   17.3504   20.8551 H   0  0  0  0  0  0  0  0  0  0  0  0
   19.7212   20.1623   22.3540 C   0  0  0  0  0  0  0  0  0  0  0  0
   20.3423   20.9136   21.8489 H   0  0  0  0  0  0  0  0  0  0  0  0
   18.6995   20.5631   22.3255 H   0  0  0  0  0  0  0  0  0  0  0  0
   20.1947   20.0708   23.8319 C   0  0  0  0  0  0  0  0  0  0  0  0
   20.1363   21.0772   24.2696 H   0  0  0  0  0  0  0  0  0  0  0  0
   21.2564   19.7923   23.8752 H   0  0  0  0  0  0  0  0  0  0  0  0
   19.3686   19.1091   24.7159 C   0  0  0  0  0  0  0  0  0  0  0  0
   18.2931   19.3096   24.6254 H   0  0  0  0  0  0  0  0  0  0  0  0
   19.6423   19.2342   25.7716 H   0  0  0  0  0  0  0  0  0  0  0  0
   19.5571   18.0608   24.4575 H   0  0  0  0  0  0  0  0  0  0  0  0
  1  2  1  0  0  0  0
  1  3  1  0  0  0  0
  1  4  1  0  0  0  0
  1  5  1  0  0  0  0
  5  6  1  0  0  0  0
  5  7  1  0  0  0  0
  7  8  1  0  0  0  0
  7  9  1  0  0  0  0
  7 10  1  0  0  0  0
  5 11  1  0  0  0  0
 11 12  1  0  0  0  0
 11 13  1  0  0  0  0
 11 14  1  0  0  0  0
 14 15  1  0  0  0  0
 14 16  1  0  0  0  0
 14 17  1  0  0  0  0
 17 18  1  0  0  0  0
 17 19  1  0  0  0  0
 17 20  1  0  0  0  0
M  END
> <VConfSearch Rank>
810

> <Conf_Id>
55

> <Delta U+W>
2.767

> <U+W>
-33.509

> <U>
24.552

> <W>
-58.061

> <W(PB)>
-59.930

> <W(SA)>
1.869

> <Valence>
3.726

> <Coulomb>
20.219

> <VdW>
0.606

> <VdW6>
-6.395

> <VdW12>
7.001

> <Bond>
0.241

> <Angle>
2.098

> <Pdih>
1.387

> <Idih>
0.000

> <Tether>
0.000

$$$$
VeraChem MOL file


 20 19  0  0  0  0  0  0  0  0999 V2000     
   19.6061   16.9961   22.5485 N   0  3  0  0  0  0  0  0  0  0  0  0
   20.4022   16.7534   23.1434 H   0  0  0  0  0  0  0  0  0  0  0  0
   19.4562   16.2141   21.9052 H   0  0  0  0  0  0  0  0  0  0  0  0
   18.7804   17.0573   23.1494 H   0  0  0  0  0  0  0  0  0  0  0  0
   19.8450   18.2827   21.8052 C   0  0  2  0  0  0  0  0  0  0  0  0
   18.9510   18.4684   21.2017 H   0  0  0  0  0  0  0  0  0  0  0  0
   21.0460   18.1428   20.8555 C   0  0  0  0  0  0  0  0  0  0  0  0
   20.8925   17.3130   20.1547 H   0  0  0  0  0  0  0  0  0  0  0  0
   21.9726   17.9533   21.4118 H   0  0  0  0  0  0  0  0  0  0  0  0
   21.1839   19.0561   20.2636 H   0  0  0  0  0  0  0  0  0  0  0  0
   20.0467   19.4865   22.7520 C   0  0  0  0  0  0  0  0  0  0  0  0
   20.9260   19.3144   23.3869 H   0  0  0  0  0  0  0  0  0  0  0  0
   20.2657   20.3782   22.1495 H   0  0  0  0  0  0  0  0  0  0  0  0
   18.8104   19.7743   23.6376 C   0  0  0  0  0  0  0  0  0  0  0  0
   18.6040   18.9167   24.2920 H   0  0  0  0  0  0  0  0  0  0  0  0
   17.9237   19.9109   23.0025 H   0  0  0  0  0  0  0  0  0  0  0  0
   19.0138   21.0327   24.5086 C   0  0  0  0  0  0  0  0  0  0  0  0
   19.8763   20.9148   25.1775 H   0  0  0  0  0  0  0  0  0  0  0  0
   18.1290   21.2209   25.1305 H   0  0  0  0  0  0  0  0  0  0  0  0
   19.1826   21.9214   23.8866 H   0  0  0  0  0  0  0  0  0  0  0  0
  1  2  1  0  0  0  0
  1  3  1  0  0  0  0
  1  4  1  0  0  0  0
  1  5  1  0  0  0  0
  5  6  1  0  0  0  0
  5  7  1  0  0  0  0
  7  8  1  0  0  0  0
  7  9  1  0  0  0  0
  7 10  1  0  0  0  0
  5 11  1  0  0  0  0
 11 12  1  0  0  0  0
 11 13  1  0  0  0  0
 11 14  1  0  0  0  0
 14 15  1  0  0  0  0
 14 16  1  0  0  0  0
 14 17  1  0  0  0  0
 17 18  1  0  0  0  0
 17 19  1  0  0  0  0
 17 20  1  0  0  0  0
M  END
> <VConfSearch Rank>
811

> <Conf_Id>
74

> <Delta U+W>
0.000

> <U+W>
-36.276

> <U>
22.080

> <W>
-58.356

> <W(PB)>
-60.289

> <W(SA)>
1.932

> <Valence>
1.885

> <Coulomb>
19.559

> <VdW>
0.637

> <VdW6>
-4.482

> <VdW12>
5.119

> <Bond>
0.136

> <Angle>
0.867

> <Pdih>
0.882

> <Idih>
0.000

> <Tether>
0.000

$$$$
VeraChem MOL file


 20 19  0  0  0  0  0  0  0  0999 V2000     
   20.1347   19.2997   20.3905 N   0  3  0  0  0  0  0  0  0  0  0  0
   21.0102   18.7898   20.2445 H   0  0  0  0  0  0  0  0  0  0  0  0
   20.3645   20.2955   20.4386 H   0  0  0  0  0  0  0  0  0  0  0  0
   19.5608   19.1600   19.5545 H   0  0  0  0  0  0  0  0  0  0  0  0
   19.4221   18.8363   21.6314 C   0  0  2  0  0  0  0  0  0  0  0  0
   19.2164   17.7709   21.4889 H   0  0  0  0  0  0  0  0  0  0  0  0
   18.0794   19.5745   21.7831 C   0  0  0  0  0  0  0  0  0  0  0  0
   17.4864   19.4905   20.8641 H   0  0  0  0  0  0  0  0  0  0  0  0
   18.2335   20.6405   21.9917 H   0  0  0  0  0  0  0  0  0  0  0  0
   17.4789   19.1485   22.5950 H   0  0  0  0  0  0  0  0  0  0  0  0
   20.3179   18.9928   22.8822 C   0  0  0  0  0  0  0  0  0  0  0  0
   21.2950   18.5395   22.6686 H   0  0  0  0  0  0  0  0  0  0  0  0
   20.5048   20.0580   23.0724 H   0  0  0  0  0  0  0  0  0  0  0  0
   19.7365   18.3298   24.1548 C   0  0  0  0  0  0  0  0  0  0  0  0
   19.4905   17.2791   23.9460 H   0  0  0  0  0  0  0  0  0  0  0  0
   18.8008   18.8239   24.4486 H   0  0  0  0  0  0  0  0  0  0  0  0
   20.7280   18.3979   25.3364 C   0  0  0  0  0  0  0  0  0  0  0  0
   21.6640   17.8758   25.0984 H   0  0  0  0  0  0  0  0  0  0  0  0
   20.2987   17.9271   26.2303 H   0  0  0  0  0  0  0  0  0  0  0  0
   20.9715   19.4384   25.5880 H   0  0  0  0  0  0  0  0  0  0  0  0
  1  2  1  0  0  0  0
  1  3  1  0  0  0  0
  1  4  1  0  0  0  0
  1  5  1  0  0  0  0
  5  6  1  0  0  0  0
  5  7  1  0  0  0  0
  7  8  1  0  0  0  0
  7  9  1  0  0  0  0
  7 10  1  0  0  0  0
  5 11  1  0  0  0  0
 11 12  1  0  0  0  0
 11 13  1  0  0  0  0
 11 14  1  0  0  0  0
 14 15  1  0  0  0  0
 14 16  1  0  0  0  0
 14 17  1  0  0  0  0
 17 18  1  0  0  0  0
 17 19  1  0  0  0  0
 17 20  1  0  0  0  0
M  END
> <VConfSearch Rank>
812

> <Conf_Id>
80

> <Delta U+W>
0.460

> <U+W>
-35.817

> <U>
22.495

> <W>
-58.311

> <W(PB)>
-60.259

> <W(SA)>
1.948

> <Valence>
2.419

> <Coulomb>
19.304

> <VdW>
0.772

> <VdW6>
-4.635

> <VdW12>
5.407

> <Bond>
0.149

> <Angle>
1.142

> <Pdih>
1.129

> <Idih>
0.000

> <Tether>
0.000

$$$$
VeraChem MOL file


 20 19  0  0  0  0  0  0  0  0999 V2000     
   21.1103   17.1332   23.6556 N   0  3  0  0  0  0  0  0  0  0  0  0
   20.7054   16.7720   24.5236 H   0  0  0  0  0  0  0  0  0  0  0  0
   21.8859   17.7491   23.9123 H   0  0  0  0  0  0  0  0  0  0  0  0
   21.5088   16.3355   23.1532 H   0  0  0  0  0  0  0  0  0  0  0  0
   20.0861   17.8534   22.8218 C   0  0  2  0  0  0  0  0  0  0  0  0
   19.3066   17.1198   22.5934 H   0  0  0  0  0  0  0  0  0  0  0  0
   20.7104   18.3163   21.4944 C   0  0  0  0  0  0  0  0  0  0  0  0
   21.2352   17.4878   21.0032 H   0  0  0  0  0  0  0  0  0  0  0  0
   21.4303   19.1285   21.6547 H   0  0  0  0  0  0  0  0  0  0  0  0
   19.9392   18.6654   20.7985 H   0  0  0  0  0  0  0  0  0  0  0  0
   19.4367   19.0120   23.6176 C   0  0  0  0  0  0  0  0  0  0  0  0
   19.0552   18.5923   24.5579 H   0  0  0  0  0  0  0  0  0  0  0  0
   20.1989   19.7475   23.9069 H   0  0  0  0  0  0  0  0  0  0  0  0
   18.2546   19.7173   22.9016 C   0  0  0  0  0  0  0  0  0  0  0  0
   17.4975   19.9821   23.6532 H   0  0  0  0  0  0  0  0  0  0  0  0
   17.7595   19.0237   22.2075 H   0  0  0  0  0  0  0  0  0  0  0  0
   18.6669   21.0137   22.1652 C   0  0  0  0  0  0  0  0  0  0  0  0
   19.0940   21.7433   22.8656 H   0  0  0  0  0  0  0  0  0  0  0  0
   17.7937   21.4805   21.6913 H   0  0  0  0  0  0  0  0  0  0  0  0
   19.4088   20.8257   21.3811 H   0  0  0  0  0  0  0  0  0  0  0  0
  1  2  1  0  0  0  0
  1  3  1  0  0  0  0
  1  4  1  0  0  0  0
  1  5  1  0  0  0  0
  5  6  1  0  0  0  0
  5  7  1  0  0  0  0
  7  8  1  0  0  0  0
  7  9  1  0  0  0  0
  7 10  1  0  0  0  0
  5 11  1  0  0  0  0
 11 12  1  0  0  0  0
 11 13  1  0  0  0  0
 11 14  1  0  0  0  0
 14 15  1  0  0  0  0
 14 16  1  0  0  0  0
 14 17  1  0  0  0  0
 17 18  1  0  0  0  0
 17 19  1  0  0  0  0
 17 20  1  0  0  0  0
M  END
> <VConfSearch Rank>
813

> <Conf_Id>
52

> <Delta U+W>
2.995

> <U+W>
-33.282

> <U>
25.224

> <W>
-58.506

> <W(PB)>
-60.411

> <W(SA)>
1.905

> <Valence>
4.945

> <Coulomb>
19.467

> <VdW>
0.813

> <VdW6>
-5.458

> <VdW12>
6.270

> <Bond>
0.200

> <Angle>
1.675

> <Pdih>
3.070

> <Idih>
0.000

> <Tether>
0.000

$$$$
VeraChem MOL file


 20 19  0  0  0  0  0  0  0  0999 V2000     
   21.2974   18.6259   22.4337 N   0  3  0  0  0  0  0  0  0  0  0  0
   21.2885   17.6123   22.2959 H   0  0  0  0  0  0  0  0  0  0  0  0
   22.2564   18.8942   22.6703 H   0  0  0  0  0  0  0  0  0  0  0  0
   21.0679   19.0586   21.5364 H   0  0  0  0  0  0  0  0  0  0  0  0
   20.3267   19.0424   23.5050 C   0  0  2  0  0  0  0  0  0  0  0  0
   20.4278   20.1251   23.6282 H   0  0  0  0  0  0  0  0  0  0  0  0
   20.7001   18.3700   24.8370 C   0  0  0  0  0  0  0  0  0  0  0  0
   20.6002   17.2792   24.7730 H   0  0  0  0  0  0  0  0  0  0  0  0
   20.0540   18.7254   25.6493 H   0  0  0  0  0  0  0  0  0  0  0  0
   21.7360   18.6028   25.1131 H   0  0  0  0  0  0  0  0  0  0  0  0
   18.8567   18.7302   23.1367 C   0  0  0  0  0  0  0  0  0  0  0  0
   18.7752   17.7020   22.7603 H   0  0  0  0  0  0  0  0  0  0  0  0
   18.2519   18.7627   24.0528 H   0  0  0  0  0  0  0  0  0  0  0  0
   18.2143   19.7202   22.1298 C   0  0  0  0  0  0  0  0  0  0  0  0
   18.2576   20.7409   22.5352 H   0  0  0  0  0  0  0  0  0  0  0  0
   17.1464   19.4748   22.0427 H   0  0  0  0  0  0  0  0  0  0  0  0
   18.8348   19.7008   20.7142 C   0  0  0  0  0  0  0  0  0  0  0  0
   18.2054   20.2690   20.0170 H   0  0  0  0  0  0  0  0  0  0  0  0
   18.9167   18.6764   20.3279 H   0  0  0  0  0  0  0  0  0  0  0  0
   19.8265   20.1673   20.7010 H   0  0  0  0  0  0  0  0  0  0  0  0
  1  2  1  0  0  0  0
  1  3  1  0  0  0  0
  1  4  1  0  0  0  0
  1  5  1  0  0  0  0
  5  6  1  0  0  0  0
  5  7  1  0  0  0  0
  7  8  1  0  0  0  0
  7  9  1  0  0  0  0
  7 10  1  0  0  0  0
  5 11  1  0  0  0  0
 11 12  1  0  0  0  0
 11 13  1  0  0  0  0
 11 14  1  0  0  0  0
 14 15  1  0  0  0  0
 14 16  1  0  0  0  0
 14 17  1  0  0  0  0
 17 18  1  0  0  0  0
 17 19  1  0  0  0  0
 17 20  1  0  0  0  0
M  END
> <VConfSearch Rank>
814

> <Conf_Id>
54

> <Delta U+W>
2.752

> <U+W>
-33.525

> <U>
24.337

> <W>
-57.862

> <W(PB)>
-59.764

> <W(SA)>
1.901

> <Valence>
3.593

> <Coulomb>
20.067

> <VdW>
0.677

> <VdW6>
-5.466

> <VdW12>
6.144

> <Bond>
0.191

> <Angle>
1.557

> <Pdih>
1.845

> <Idih>
0.000

> <Tether>
0.000

$$$$
VeraChem MOL file


 20 19  0  0  0  0  0  0  0  0999 V2000     
   18.8039   18.2910   24.4054 N   0  3  0  0  0  0  0  0  0  0  0  0
   18.2658   18.5865   25.2244 H   0  0  0  0  0  0  0  0  0  0  0  0
   19.3279   17.4533   24.6724 H   0  0  0  0  0  0  0  0  0  0  0  0
   18.1343   18.0173   23.6828 H   0  0  0  0  0  0  0  0  0  0  0  0
   19.7176   19.3847   23.9228 C   0  0  2  0  0  0  0  0  0  0  0  0
   20.3792   19.6189   24.7627 H   0  0  0  0  0  0  0  0  0  0  0  0
   18.9243   20.6603   23.5879 C   0  0  0  0  0  0  0  0  0  0  0  0
   19.5937   21.4546   23.2348 H   0  0  0  0  0  0  0  0  0  0  0  0
   18.4063   21.0348   24.4792 H   0  0  0  0  0  0  0  0  0  0  0  0
   18.1692   20.4778   22.8142 H   0  0  0  0  0  0  0  0  0  0  0  0
   20.6147   18.9315   22.7460 C   0  0  0  0  0  0  0  0  0  0  0  0
   21.3152   19.7418   22.5039 H   0  0  0  0  0  0  0  0  0  0  0  0
   21.2333   18.0903   23.0851 H   0  0  0  0  0  0  0  0  0  0  0  0
   19.8503   18.5156   21.4626 C   0  0  0  0  0  0  0  0  0  0  0  0
   19.2649   19.3614   21.0779 H   0  0  0  0  0  0  0  0  0  0  0  0
   19.1377   17.7113   21.6894 H   0  0  0  0  0  0  0  0  0  0  0  0
   20.8165   18.0347   20.3587 C   0  0  0  0  0  0  0  0  0  0  0  0
   20.2617   17.7460   19.4566 H   0  0  0  0  0  0  0  0  0  0  0  0
   21.3944   17.1627   20.6914 H   0  0  0  0  0  0  0  0  0  0  0  0
   21.5234   18.8270   20.0797 H   0  0  0  0  0  0  0  0  0  0  0  0
  1  2  1  0  0  0  0
  1  3  1  0  0  0  0
  1  4  1  0  0  0  0
  1  5  1  0  0  0  0
  5  6  1  0  0  0  0
  5  7  1  0  0  0  0
  7  8  1  0  0  0  0
  7  9  1  0  0  0  0
  7 10  1  0  0  0  0
  5 11  1  0  0  0  0
 11 12  1  0  0  0  0
 11 13  1  0  0  0  0
 11 14  1  0  0  0  0
 14 15  1  0  0  0  0
 14 16  1  0  0  0  0
 14 17  1  0  0  0  0
 17 18  1  0  0  0  0
 17 19  1  0  0  0  0
 17 20  1  0  0  0  0
M  END
> <VConfSearch Rank>
815

> <Conf_Id>
63

> <Delta U+W>
0.420

> <U+W>
-35.856

> <U>
22.625

> <W>
-58.481

> <W(PB)>
-60.400

> <W(SA)>
1.919

> <Valence>
2.404

> <Coulomb>
19.464

> <VdW>
0.757

> <VdW6>
-5.074

> <VdW12>
5.830

> <Bond>
0.172

> <Angle>
1.207

> <Pdih>
1.025

> <Idih>
0.000

> <Tether>
0.000

$$$$
VeraChem MOL file


 20 19  0  0  0  0  0  0  0  0999 V2000     
   20.2115   17.5057   23.5929 N   0  3  0  0  0  0  0  0  0  0  0  0
   19.4960   17.0412   23.0279 H   0  0  0  0  0  0  0  0  0  0  0  0
   19.8851   17.5078   24.5624 H   0  0  0  0  0  0  0  0  0  0  0  0
   21.0545   16.9266   23.5551 H   0  0  0  0  0  0  0  0  0  0  0  0
   20.4779   18.9015   23.0980 C   0  0  2  0  0  0  0  0  0  0  0  0
   20.8228   18.8083   22.0638 H   0  0  0  0  0  0  0  0  0  0  0  0
   21.5975   19.5638   23.9174 C   0  0  0  0  0  0  0  0  0  0  0  0
   22.5137   18.9618   23.8808 H   0  0  0  0  0  0  0  0  0  0  0  0
   21.3060   19.6787   24.9689 H   0  0  0  0  0  0  0  0  0  0  0  0
   21.8366   20.5575   23.5187 H   0  0  0  0  0  0  0  0  0  0  0  0
   19.2093   19.7845   23.1081 C   0  0  0  0  0  0  0  0  0  0  0  0
   18.8567   19.9037   24.1411 H   0  0  0  0  0  0  0  0  0  0  0  0
   19.4719   20.7909   22.7558 H   0  0  0  0  0  0  0  0  0  0  0  0
   18.0495   19.2398   22.2362 C   0  0  0  0  0  0  0  0  0  0  0  0
   17.1975   19.9300   22.3120 H   0  0  0  0  0  0  0  0  0  0  0  0
   17.6950   18.2787   22.6326 H   0  0  0  0  0  0  0  0  0  0  0  0
   18.4338   19.0803   20.7475 C   0  0  0  0  0  0  0  0  0  0  0  0
   18.7917   20.0298   20.3286 H   0  0  0  0  0  0  0  0  0  0  0  0
   17.5644   18.7614   20.1581 H   0  0  0  0  0  0  0  0  0  0  0  0
   19.2200   18.3273   20.6106 H   0  0  0  0  0  0  0  0  0  0  0  0
  1  2  1  0  0  0  0
  1  3  1  0  0  0  0
  1  4  1  0  0  0  0
  1  5  1  0  0  0  0
  5  6  1  0  0  0  0
  5  7  1  0  0  0  0
  7  8  1  0  0  0  0
  7  9  1  0  0  0  0
  7 10  1  0  0  0  0
  5 11  1  0  0  0  0
 11 12  1  0  0  0  0
 11 13  1  0  0  0  0
 11 14  1  0  0  0  0
 14 15  1  0  0  0  0
 14 16  1  0  0  0  0
 14 17  1  0  0  0  0
 17 18  1  0  0  0  0
 17 19  1  0  0  0  0
 17 20  1  0  0  0  0
M  END
> <VConfSearch Rank>
816

> <Conf_Id>
50

> <Delta U+W>
0.466

> <U+W>
-35.811

> <U>
22.369

> <W>
-58.180

> <W(PB)>
-60.103

> <W(SA)>
1.923

> <Valence>
2.168

> <Coulomb>
19.636

> <VdW>
0.566

> <VdW6>
-5.263

> <VdW12>
5.829

> <Bond>
0.162

> <Angle>
1.066

> <Pdih>
0.939

> <Idih>
0.000

> <Tether>
0.000

$$$$
VeraChem MOL file


 20 19  0  0  0  0  0  0  0  0999 V2000     
   17.9472   20.3090   22.2351 N   0  3  0  0  0  0  0  0  0  0  0  0
   17.4305   20.4196   23.1119 H   0  0  0  0  0  0  0  0  0  0  0  0
   17.3427   19.8010   21.5844 H   0  0  0  0  0  0  0  0  0  0  0  0
   18.0906   21.2460   21.8487 H   0  0  0  0  0  0  0  0  0  0  0  0
   19.2546   19.5948   22.4476 C   0  0  2  0  0  0  0  0  0  0  0  0
   19.8248   20.2068   23.1534 H   0  0  0  0  0  0  0  0  0  0  0  0
   20.0333   19.5158   21.1212 C   0  0  0  0  0  0  0  0  0  0  0  0
   19.4733   18.9487   20.3673 H   0  0  0  0  0  0  0  0  0  0  0  0
   21.0060   19.0298   21.2534 H   0  0  0  0  0  0  0  0  0  0  0  0
   20.2178   20.5204   20.7212 H   0  0  0  0  0  0  0  0  0  0  0  0
   19.0528   18.1946   23.0776 C   0  0  0  0  0  0  0  0  0  0  0  0
   18.0466   18.1383   23.5136 H   0  0  0  0  0  0  0  0  0  0  0  0
   19.0827   17.4173   22.3024 H   0  0  0  0  0  0  0  0  0  0  0  0
   20.0630   17.8622   24.2048 C   0  0  0  0  0  0  0  0  0  0  0  0
   19.7944   16.8898   24.6410 H   0  0  0  0  0  0  0  0  0  0  0  0
   19.9639   18.5978   25.0155 H   0  0  0  0  0  0  0  0  0  0  0  0
   21.5348   17.8082   23.7391 C   0  0  0  0  0  0  0  0  0  0  0  0
   21.6596   17.1121   22.8995 H   0  0  0  0  0  0  0  0  0  0  0  0
   22.1832   17.4662   24.5562 H   0  0  0  0  0  0  0  0  0  0  0  0
   21.8937   18.7974   23.4286 H   0  0  0  0  0  0  0  0  0  0  0  0
  1  2  1  0  0  0  0
  1  3  1  0  0  0  0
  1  4  1  0  0  0  0
  1  5  1  0  0  0  0
  5  6  1  0  0  0  0
  5  7  1  0  0  0  0
  7  8  1  0  0  0  0
  7  9  1  0  0  0  0
  7 10  1  0  0  0  0
  5 11  1  0  0  0  0
 11 12  1  0  0  0  0
 11 13  1  0  0  0  0
 11 14  1  0  0  0  0
 14 15  1  0  0  0  0
 14 16  1  0  0  0  0
 14 17  1  0  0  0  0
 17 18  1  0  0  0  0
 17 19  1  0  0  0  0
 17 20  1  0  0  0  0
M  END
> <VConfSearch Rank>
817

> <Conf_Id>
3

> <Delta U+W>
3.093

> <U+W>
-33.184

> <U>
25.256

> <W>
-58.439

> <W(PB)>
-60.337

> <W(SA)>
1.898

> <Valence>
4.963

> <Coulomb>
19.511

> <VdW>
0.782

> <VdW6>
-5.429

> <VdW12>
6.211

> <Bond>
0.174

> <Angle>
1.377

> <Pdih>
3.412

> <Idih>
0.000

> <Tether>
0.000

$$$$
VeraChem MOL file


 20 19  0  0  0  0  0  0  0  0999 V2000     
   20.1152   17.4735   21.0714 N   0  3  0  0  0  0  0  0  0  0  0  0
   20.8593   16.7723   21.1189 H   0  0  0  0  0  0  0  0  0  0  0  0
   20.3260   18.0848   20.2778 H   0  0  0  0  0  0  0  0  0  0  0  0
   19.2457   16.9796   20.8550 H   0  0  0  0  0  0  0  0  0  0  0  0
   20.0056   18.2486   22.3557 C   0  0  2  0  0  0  0  0  0  0  0  0
   20.9746   18.7346   22.5041 H   0  0  0  0  0  0  0  0  0  0  0  0
   19.7545   17.2942   23.5373 C   0  0  0  0  0  0  0  0  0  0  0  0
   19.8109   17.8239   24.4953 H   0  0  0  0  0  0  0  0  0  0  0  0
   20.5111   16.5003   23.5607 H   0  0  0  0  0  0  0  0  0  0  0  0
   18.7674   16.8214   23.4632 H   0  0  0  0  0  0  0  0  0  0  0  0
   18.9208   19.3475   22.2558 C   0  0  0  0  0  0  0  0  0  0  0  0
   19.1071   19.9439   21.3530 H   0  0  0  0  0  0  0  0  0  0  0  0
   17.9391   18.8770   22.1126 H   0  0  0  0  0  0  0  0  0  0  0  0
   18.8490   20.3095   23.4693 C   0  0  0  0  0  0  0  0  0  0  0  0
   18.5325   19.7655   24.3694 H   0  0  0  0  0  0  0  0  0  0  0  0
   18.0658   21.0569   23.2798 H   0  0  0  0  0  0  0  0  0  0  0  0
   20.1830   21.0407   23.7427 C   0  0  0  0  0  0  0  0  0  0  0  0
   20.5214   21.5903   22.8546 H   0  0  0  0  0  0  0  0  0  0  0  0
   20.9748   20.3394   24.0350 H   0  0  0  0  0  0  0  0  0  0  0  0
   20.0646   21.7645   24.5594 H   0  0  0  0  0  0  0  0  0  0  0  0
  1  2  1  0  0  0  0
  1  3  1  0  0  0  0
  1  4  1  0  0  0  0
  1  5  1  0  0  0  0
  5  6  1  0  0  0  0
  5  7  1  0  0  0  0
  7  8  1  0  0  0  0
  7  9  1  0  0  0  0
  7 10  1  0  0  0  0
  5 11  1  0  0  0  0
 11 12  1  0  0  0  0
 11 13  1  0  0  0  0
 11 14  1  0  0  0  0
 14 15  1  0  0  0  0
 14 16  1  0  0  0  0
 14 17  1  0  0  0  0
 17 18  1  0  0  0  0
 17 19  1  0  0  0  0
 17 20  1  0  0  0  0
M  END
> <VConfSearch Rank>
818

> <Conf_Id>
64

> <Delta U+W>
0.544

> <U+W>
-35.732

> <U>
22.800

> <W>
-58.532

> <W(PB)>
-60.437

> <W(SA)>
1.905

> <Valence>
2.662

> <Coulomb>
19.485

> <VdW>
0.653

> <VdW6>
-5.460

> <VdW12>
6.113

> <Bond>
0.174

> <Angle>
1.378

> <Pdih>
1.109

> <Idih>
0.000

> <Tether>
0.000

$$$$
VeraChem MOL file


 20 19  0  0  0  0  0  0  0  0999 V2000     
   19.1388   18.9978   24.7083 N   0  3  0  0  0  0  0  0  0  0  0  0
   18.2629   19.1398   24.2005 H   0  0  0  0  0  0  0  0  0  0  0  0
   19.1854   19.7097   25.4423 H   0  0  0  0  0  0  0  0  0  0  0  0
   19.0811   18.0872   25.1721 H   0  0  0  0  0  0  0  0  0  0  0  0
   20.3277   19.0767   23.7890 C   0  0  2  0  0  0  0  0  0  0  0  0
   21.2068   18.9249   24.4231 H   0  0  0  0  0  0  0  0  0  0  0  0
   20.4471   20.4773   23.1663 C   0  0  0  0  0  0  0  0  0  0  0  0
   19.5362   20.7541   22.6230 H   0  0  0  0  0  0  0  0  0  0  0  0
   21.2961   20.5260   22.4733 H   0  0  0  0  0  0  0  0  0  0  0  0
   20.6112   21.2304   23.9466 H   0  0  0  0  0  0  0  0  0  0  0  0
   20.3321   17.9432   22.7325 C   0  0  0  0  0  0  0  0  0  0  0  0
   21.2957   17.9395   22.2063 H   0  0  0  0  0  0  0  0  0  0  0  0
   20.2966   16.9893   23.2749 H   0  0  0  0  0  0  0  0  0  0  0  0
   19.1691   17.9605   21.7017 C   0  0  0  0  0  0  0  0  0  0  0  0
   18.2598   18.3881   22.1440 H   0  0  0  0  0  0  0  0  0  0  0  0
   18.9174   16.9215   21.4468 H   0  0  0  0  0  0  0  0  0  0  0  0
   19.5190   18.6972   20.3874 C   0  0  0  0  0  0  0  0  0  0  0  0
   19.7401   19.7572   20.5534 H   0  0  0  0  0  0  0  0  0  0  0  0
   18.6800   18.6414   19.6818 H   0  0  0  0  0  0  0  0  0  0  0  0
   20.3916   18.2413   19.9017 H   0  0  0  0  0  0  0  0  0  0  0  0
  1  2  1  0  0  0  0
  1  3  1  0  0  0  0
  1  4  1  0  0  0  0
  1  5  1  0  0  0  0
  5  6  1  0  0  0  0
  5  7  1  0  0  0  0
  7  8  1  0  0  0  0
  7  9  1  0  0  0  0
  7 10  1  0  0  0  0
  5 11  1  0  0  0  0
 11 12  1  0  0  0  0
 11 13  1  0  0  0  0
 11 14  1  0  0  0  0
 14 15  1  0  0  0  0
 14 16  1  0  0  0  0
 14 17  1  0  0  0  0
 17 18  1  0  0  0  0
 17 19  1  0  0  0  0
 17 20  1  0  0  0  0
M  END
> <VConfSearch Rank>
819

> <Conf_Id>
35

> <Delta U+W>
3.004

> <U+W>
-33.272

> <U>
25.367

> <W>
-58.639

> <W(PB)>
-60.512

> <W(SA)>
1.873

> <Valence>
4.943

> <Coulomb>
19.661

> <VdW>
0.764

> <VdW6>
-5.871

> <VdW12>
6.636

> <Bond>
0.230

> <Angle>
1.857

> <Pdih>
2.855

> <Idih>
0.000

> <Tether>
0.000

$$$$
VeraChem MOL file


 20 19  0  0  0  0  0  0  0  0999 V2000     
   18.9682   20.5437   22.7098 N   0  3  0  0  0  0  0  0  0  0  0  0
   18.0623   20.9312   22.4325 H   0  0  0  0  0  0  0  0  0  0  0  0
   19.6162   21.3289   22.8145 H   0  0  0  0  0  0  0  0  0  0  0  0
   18.8538   20.1165   23.6309 H   0  0  0  0  0  0  0  0  0  0  0  0
   19.4719   19.5441   21.7050 C   0  0  2  0  0  0  0  0  0  0  0  0
   19.5831   20.1038   20.7710 H   0  0  0  0  0  0  0  0  0  0  0  0
   18.4382   18.4323   21.4523 C   0  0  0  0  0  0  0  0  0  0  0  0
   18.2020   17.8825   22.3712 H   0  0  0  0  0  0  0  0  0  0  0  0
   18.8106   17.7167   20.7089 H   0  0  0  0  0  0  0  0  0  0  0  0
   17.5037   18.8570   21.0660 H   0  0  0  0  0  0  0  0  0  0  0  0
   20.8719   18.9801   22.0588 C   0  0  0  0  0  0  0  0  0  0  0  0
   21.2859   18.5242   21.1498 H   0  0  0  0  0  0  0  0  0  0  0  0
   21.5424   19.8163   22.2958 H   0  0  0  0  0  0  0  0  0  0  0  0
   20.9482   17.9236   23.1967 C   0  0  0  0  0  0  0  0  0  0  0  0
   21.9940   17.5981   23.2876 H   0  0  0  0  0  0  0  0  0  0  0  0
   20.3829   17.0235   22.9194 H   0  0  0  0  0  0  0  0  0  0  0  0
   20.4760   18.4287   24.5790 C   0  0  0  0  0  0  0  0  0  0  0  0
   20.9629   19.3761   24.8446 H   0  0  0  0  0  0  0  0  0  0  0  0
   20.7273   17.6962   25.3571 H   0  0  0  0  0  0  0  0  0  0  0  0
   19.3892   18.5679   24.6083 H   0  0  0  0  0  0  0  0  0  0  0  0
  1  2  1  0  0  0  0
  1  3  1  0  0  0  0
  1  4  1  0  0  0  0
  1  5  1  0  0  0  0
  5  6  1  0  0  0  0
  5  7  1  0  0  0  0
  7  8  1  0  0  0  0
  7  9  1  0  0  0  0
  7 10  1  0  0  0  0
  5 11  1  0  0  0  0
 11 12  1  0  0  0  0
 11 13  1  0  0  0  0
 11 14  1  0  0  0  0
 14 15  1  0  0  0  0
 14 16  1  0  0  0  0
 14 17  1  0  0  0  0
 17 18  1  0  0  0  0
 17 19  1  0  0  0  0
 17 20  1  0  0  0  0
M  END
> <VConfSearch Rank>
820

> <Conf_Id>
55

> <Delta U+W>
2.767

> <U+W>
-33.509

> <U>
24.552

> <W>
-58.061

> <W(PB)>
-59.930

> <W(SA)>
1.869

> <Valence>
3.726

> <Coulomb>
20.219

> <VdW>
0.606

> <VdW6>
-6.395

> <VdW12>
7.001

> <Bond>
0.241

> <Angle>
2.098

> <Pdih>
1.387

> <Idih>
0.000

> <Tether>
0.000

$$$$
VeraChem MOL file


 20 19  0  0  0  0  0  0  0  0999 V2000     
   21.3271   18.0619   23.4851 N   0  3  0  0  0  0  0  0  0  0  0  0
   22.0250   18.4577   22.8504 H   0  0  0  0  0  0  0  0  0  0  0  0
   21.7063   17.1821   23.8454 H   0  0  0  0  0  0  0  0  0  0  0  0
   21.2356   18.7008   24.2788 H   0  0  0  0  0  0  0  0  0  0  0  0
   20.0082   17.8502   22.7916 C   0  0  2  0  0  0  0  0  0  0  0  0
   19.3243   17.4320   23.5366 H   0  0  0  0  0  0  0  0  0  0  0  0
   20.1562   16.8319   21.6492 C   0  0  0  0  0  0  0  0  0  0  0  0
   20.5534   15.8811   22.0253 H   0  0  0  0  0  0  0  0  0  0  0  0
   20.8359   17.2026   20.8718 H   0  0  0  0  0  0  0  0  0  0  0  0
   19.1849   16.6247   21.1830 H   0  0  0  0  0  0  0  0  0  0  0  0
   19.3983   19.1667   22.2616 C   0  0  0  0  0  0  0  0  0  0  0  0
   20.0779   19.6201   21.5277 H   0  0  0  0  0  0  0  0  0  0  0  0
   18.4682   18.9355   21.7254 H   0  0  0  0  0  0  0  0  0  0  0  0
   19.0865   20.1851   23.3847 C   0  0  0  0  0  0  0  0  0  0  0  0
   20.0113   20.4762   23.9009 H   0  0  0  0  0  0  0  0  0  0  0  0
   18.4352   19.7185   24.1372 H   0  0  0  0  0  0  0  0  0  0  0  0
   18.4008   21.4524   22.8306 C   0  0  0  0  0  0  0  0  0  0  0  0
   19.0411   21.9591   22.0967 H   0  0  0  0  0  0  0  0  0  0  0  0
   18.1885   22.1635   23.6395 H   0  0  0  0  0  0  0  0  0  0  0  0
   17.4494   21.2058   22.3415 H   0  0  0  0  0  0  0  0  0  0  0  0
  1  2  1  0  0  0  0
  1  3  1  0  0  0  0
  1  4  1  0  0  0  0
  1  5  1  0  0  0  0
  5  6  1  0  0  0  0
  5  7  1  0  0  0  0
  7  8  1  0  0  0  0
  7  9  1  0  0  0  0
  7 10  1  0  0  0  0
  5 11  1  0  0  0  0
 11 12  1  0  0  0  0
 11 13  1  0  0  0  0
 11 14  1  0  0  0  0
 14 15  1  0  0  0  0
 14 16  1  0  0  0  0
 14 17  1  0  0  0  0
 17 18  1  0  0  0  0
 17 19  1  0  0  0  0
 17 20  1  0  0  0  0
M  END
> <VConfSearch Rank>
821

> <Conf_Id>
74

> <Delta U+W>
0.000

> <U+W>
-36.276

> <U>
22.080

> <W>
-58.356

> <W(PB)>
-60.289

> <W(SA)>
1.932

> <Valence>
1.885

> <Coulomb>
19.559

> <VdW>
0.637

> <VdW6>
-4.482

> <VdW12>
5.119

> <Bond>
0.136

> <Angle>
0.867

> <Pdih>
0.882

> <Idih>
0.000

> <Tether>
0.000

$$$$
VeraChem MOL file


 20 19  0  0  0  0  0  0  0  0999 V2000     
   17.5138   18.1040   22.4444 N   0  3  0  0  0  0  0  0  0  0  0  0
   17.6789   17.1021   22.3155 H   0  0  0  0  0  0  0  0  0  0  0  0
   17.3246   18.5045   21.5222 H   0  0  0  0  0  0  0  0  0  0  0  0
   16.6589   18.2004   22.9990 H   0  0  0  0  0  0  0  0  0  0  0  0
   18.6816   18.7783   23.1109 C   0  0  2  0  0  0  0  0  0  0  0  0
   18.8056   18.2904   24.0827 H   0  0  0  0  0  0  0  0  0  0  0  0
   18.3725   20.2676   23.3506 C   0  0  0  0  0  0  0  0  0  0  0  0
   17.4204   20.3837   23.8828 H   0  0  0  0  0  0  0  0  0  0  0  0
   18.3013   20.8160   22.4031 H   0  0  0  0  0  0  0  0  0  0  0  0
   19.1460   20.7420   23.9653 H   0  0  0  0  0  0  0  0  0  0  0  0
   19.9821   18.5761   22.2989 C   0  0  0  0  0  0  0  0  0  0  0  0
   20.0863   17.5072   22.0704 H   0  0  0  0  0  0  0  0  0  0  0  0
   19.8997   19.0933   21.3338 H   0  0  0  0  0  0  0  0  0  0  0  0
   21.2594   19.0477   23.0361 C   0  0  0  0  0  0  0  0  0  0  0  0
   21.3093   18.5781   24.0286 H   0  0  0  0  0  0  0  0  0  0  0  0
   21.2269   20.1333   23.1985 H   0  0  0  0  0  0  0  0  0  0  0  0
   22.5367   18.7009   22.2413 C   0  0  0  0  0  0  0  0  0  0  0  0
   22.6295   17.6169   22.0944 H   0  0  0  0  0  0  0  0  0  0  0  0
   23.4315   19.0453   22.7759 H   0  0  0  0  0  0  0  0  0  0  0  0
   22.5295   19.1803   21.2536 H   0  0  0  0  0  0  0  0  0  0  0  0
  1  2  1  0  0  0  0
  1  3  1  0  0  0  0
  1  4  1  0  0  0  0
  1  5  1  0  0  0  0
  5  6  1  0  0  0  0
  5  7  1  0  0  0  0
  7  8  1  0  0  0  0
  7  9  1  0  0  0  0
  7 10  1  0  0  0  0
  5 11  1  0  0  0  0
 11 12  1  0  0  0  0
 11 13  1  0  0  0  0
 11 14  1  0  0  0  0
 14 15  1  0  0  0  0
 14 16  1  0  0  0  0
 14 17  1  0  0  0  0
 17 18  1  0  0  0  0
 17 19  1  0  0  0  0
 17 20  1  0  0  0  0
M  END
> <VConfSearch Rank>
822

> <Conf_Id>
80

> <Delta U+W>
0.460

> <U+W>
-35.817

> <U>
22.495

> <W>
-58.311

> <W(PB)>
-60.259

> <W(SA)>
1.948

> <Valence>
2.419

> <Coulomb>
19.304

> <VdW>
0.772

> <VdW6>
-4.635

> <VdW12>
5.407

> <Bond>
0.149

> <Angle>
1.142

> <Pdih>
1.129

> <Idih>
0.000

> <Tether>
0.000

$$$$
VeraChem MOL file


 20 19  0  0  0  0  0  0  0  0999 V2000     
   19.0753   18.6993   25.0242 N   0  3  0  0  0  0  0  0  0  0  0  0
   18.1088   18.3708   25.0990 H   0  0  0  0  0  0  0  0  0  0  0  0
   19.0704   19.7078   25.1962 H   0  0  0  0  0  0  0  0  0  0  0  0
   19.6024   18.2635   25.7857 H   0  0  0  0  0  0  0  0  0  0  0  0
   19.6720   18.3709   23.6830 C   0  0  2  0  0  0  0  0  0  0  0  0
   19.6401   17.2807   23.5924 H   0  0  0  0  0  0  0  0  0  0  0  0
   21.1450   18.8117   23.6333 C   0  0  0  0  0  0  0  0  0  0  0  0
   21.6910   18.4378   24.5081 H   0  0  0  0  0  0  0  0  0  0  0  0
   21.2332   19.9050   23.6181 H   0  0  0  0  0  0  0  0  0  0  0  0
   21.6457   18.4084   22.7458 H   0  0  0  0  0  0  0  0  0  0  0  0
   18.8249   18.9730   22.5354 C   0  0  0  0  0  0  0  0  0  0  0  0
   17.7903   18.6334   22.6767 H   0  0  0  0  0  0  0  0  0  0  0  0
   18.7938   20.0673   22.6206 H   0  0  0  0  0  0  0  0  0  0  0  0
   19.2668   18.5581   21.1070 C   0  0  0  0  0  0  0  0  0  0  0  0
   18.3690   18.4304   20.4859 H   0  0  0  0  0  0  0  0  0  0  0  0
   19.7591   17.5758   21.1295 H   0  0  0  0  0  0  0  0  0  0  0  0
   20.1772   19.6016   20.4175 C   0  0  0  0  0  0  0  0  0  0  0  0
   19.6641   20.5675   20.3226 H   0  0  0  0  0  0  0  0  0  0  0  0
   20.4466   19.2681   19.4070 H   0  0  0  0  0  0  0  0  0  0  0  0
   21.1081   19.7679   20.9709 H   0  0  0  0  0  0  0  0  0  0  0  0
  1  2  1  0  0  0  0
  1  3  1  0  0  0  0
  1  4  1  0  0  0  0
  1  5  1  0  0  0  0
  5  6  1  0  0  0  0
  5  7  1  0  0  0  0
  7  8  1  0  0  0  0
  7  9  1  0  0  0  0
  7 10  1  0  0  0  0
  5 11  1  0  0  0  0
 11 12  1  0  0  0  0
 11 13  1  0  0  0  0
 11 14  1  0  0  0  0
 14 15  1  0  0  0  0
 14 16  1  0  0  0  0
 14 17  1  0  0  0  0
 17 18  1  0  0  0  0
 17 19  1  0  0  0  0
 17 20  1  0  0  0  0
M  END
> <VConfSearch Rank>
823

> <Conf_Id>
52

> <Delta U+W>
2.995

> <U+W>
-33.282

> <U>
25.224

> <W>
-58.506

> <W(PB)>
-60.411

> <W(SA)>
1.905

> <Valence>
4.945

> <Coulomb>
19.467

> <VdW>
0.813

> <VdW6>
-5.458

> <VdW12>
6.270

> <Bond>
0.200

> <Angle>
1.675

> <Pdih>
3.070

> <Idih>
0.000

> <Tether>
0.000

$$$$
VeraChem MOL file


 20 19  0  0  0  0  0  0  0  0999 V2000     
   20.0924   17.6112   23.4851 N   0  3  0  0  0  0  0  0  0  0  0  0
   20.0919   16.9141   22.7365 H   0  0  0  0  0  0  0  0  0  0  0  0
   19.9481   17.1129   24.3674 H   0  0  0  0  0  0  0  0  0  0  0  0
   21.0254   18.0278   23.5145 H   0  0  0  0  0  0  0  0  0  0  0  0
   19.0341   18.6569   23.2615 C   0  0  2  0  0  0  0  0  0  0  0  0
   19.0635   19.3340   24.1208 H   0  0  0  0  0  0  0  0  0  0  0  0
   17.6468   17.9940   23.2189 C   0  0  0  0  0  0  0  0  0  0  0  0
   17.5579   17.3137   22.3626 H   0  0  0  0  0  0  0  0  0  0  0  0
   16.8548   18.7490   23.1393 H   0  0  0  0  0  0  0  0  0  0  0  0
   17.4630   17.4177   24.1340 H   0  0  0  0  0  0  0  0  0  0  0  0
   19.2742   19.4885   21.9790 C   0  0  0  0  0  0  0  0  0  0  0  0
   19.5037   18.8215   21.1376 H   0  0  0  0  0  0  0  0  0  0  0  0
   18.3384   19.9971   21.7114 H   0  0  0  0  0  0  0  0  0  0  0  0
   20.3675   20.5816   22.1079 C   0  0  0  0  0  0  0  0  0  0  0  0
   20.1060   21.2726   22.9216 H   0  0  0  0  0  0  0  0  0  0  0  0
   20.3609   21.1823   21.1875 H   0  0  0  0  0  0  0  0  0  0  0  0
   21.8001   20.0444   22.3277 C   0  0  0  0  0  0  0  0  0  0  0  0
   22.5311   20.8545   22.2065 H   0  0  0  0  0  0  0  0  0  0  0  0
   22.0492   19.2610   21.6000 H   0  0  0  0  0  0  0  0  0  0  0  0
   21.9314   19.6455   23.3401 H   0  0  0  0  0  0  0  0  0  0  0  0
  1  2  1  0  0  0  0
  1  3  1  0  0  0  0
  1  4  1  0  0  0  0
  1  5  1  0  0  0  0
  5  6  1  0  0  0  0
  5  7  1  0  0  0  0
  7  8  1  0  0  0  0
  7  9  1  0  0  0  0
  7 10  1  0  0  0  0
  5 11  1  0  0  0  0
 11 12  1  0  0  0  0
 11 13  1  0  0  0  0
 11 14  1  0  0  0  0
 14 15  1  0  0  0  0
 14 16  1  0  0  0  0
 14 17  1  0  0  0  0
 17 18  1  0  0  0  0
 17 19  1  0  0  0  0
 17 20  1  0  0  0  0
M  END
> <VConfSearch Rank>
824

> <Conf_Id>
54

> <Delta U+W>
2.752

> <U+W>
-33.525

> <U>
24.337

> <W>
-57.862

> <W(PB)>
-59.764

> <W(SA)>
1.901

> <Valence>
3.593

> <Coulomb>
20.067

> <VdW>
0.677

> <VdW6>
-5.466

> <VdW12>
6.144

> <Bond>
0.191

> <Angle>
1.557

> <Pdih>
1.845

> <Idih>
0.000

> <Tether>
0.000

$$$$
VeraChem MOL file


 20 19  0  0  0  0  0  0  0  0999 V2000     
   19.1980   17.5572   21.2820 N   0  3  0  0  0  0  0  0  0  0  0  0
   18.4423   16.9356   20.9820 H   0  0  0  0  0  0  0  0  0  0  0  0
   20.0802   17.1189   21.0040 H   0  0  0  0  0  0  0  0  0  0  0  0
   19.1065   18.4269   20.7522 H   0  0  0  0  0  0  0  0  0  0  0  0
   19.1484   17.8087   22.7647 C   0  0  2  0  0  0  0  0  0  0  0  0
   19.2357   16.8271   23.2412 H   0  0  0  0  0  0  0  0  0  0  0  0
   17.7918   18.4060   23.1791 C   0  0  0  0  0  0  0  0  0  0  0  0
   17.7603   18.5895   24.2602 H   0  0  0  0  0  0  0  0  0  0  0  0
   16.9773   17.7128   22.9363 H   0  0  0  0  0  0  0  0  0  0  0  0
   17.5902   19.3524   22.6636 H   0  0  0  0  0  0  0  0  0  0  0  0
   20.3376   18.6658   23.2608 C   0  0  0  0  0  0  0  0  0  0  0  0
   20.2903   18.7347   24.3557 H   0  0  0  0  0  0  0  0  0  0  0  0
   21.2693   18.1316   23.0329 H   0  0  0  0  0  0  0  0  0  0  0  0
   20.4104   20.0938   22.6610 C   0  0  0  0  0  0  0  0  0  0  0  0
   19.5081   20.6625   22.9226 H   0  0  0  0  0  0  0  0  0  0  0  0
   20.4488   20.0432   21.5645 H   0  0  0  0  0  0  0  0  0  0  0  0
   21.6490   20.8604   23.1725 C   0  0  0  0  0  0  0  0  0  0  0  0
   21.6859   21.8693   22.7414 H   0  0  0  0  0  0  0  0  0  0  0  0
   22.5767   20.3426   22.8959 H   0  0  0  0  0  0  0  0  0  0  0  0
   21.6272   20.9622   24.2653 H   0  0  0  0  0  0  0  0  0  0  0  0
  1  2  1  0  0  0  0
  1  3  1  0  0  0  0
  1  4  1  0  0  0  0
  1  5  1  0  0  0  0
  5  6  1  0  0  0  0
  5  7  1  0  0  0  0
  7  8  1  0  0  0  0
  7  9  1  0  0  0  0
  7 10  1  0  0  0  0
  5 11  1  0  0  0  0
 11 12  1  0  0  0  0
 11 13  1  0  0  0  0
 11 14  1  0  0  0  0
 14 15  1  0  0  0  0
 14 16  1  0  0  0  0
 14 17  1  0  0  0  0
 17 18  1  0  0  0  0
 17 19  1  0  0  0  0
 17 20  1  0  0  0  0
M  END
> <VConfSearch Rank>
825

> <Conf_Id>
63

> <Delta U+W>
0.420

> <U+W>
-35.856

> <U>
22.625

> <W>
-58.481

> <W(PB)>
-60.400

> <W(SA)>
1.919

> <Valence>
2.404

> <Coulomb>
19.464

> <VdW>
0.757

> <VdW6>
-5.074

> <VdW12>
5.830

> <Bond>
0.172

> <Angle>
1.207

> <Pdih>
1.025

> <Idih>
0.000

> <Tether>
0.000

$$$$
VeraChem MOL file


 20 19  0  0  0  0  0  0  0  0999 V2000     
   19.8286   17.6328   23.9043 N   0  3  0  0  0  0  0  0  0  0  0  0
   19.3053   18.2387   24.5413 H   0  0  0  0  0  0  0  0  0  0  0  0
   20.7860   17.5670   24.2585 H   0  0  0  0  0  0  0  0  0  0  0  0
   19.4157   16.6981   23.9631 H   0  0  0  0  0  0  0  0  0  0  0  0
   19.7971   18.1626   22.4963 C   0  0  2  0  0  0  0  0  0  0  0  0
   18.7454   18.1978   22.1967 H   0  0  0  0  0  0  0  0  0  0  0  0
   20.5347   17.2103   21.5410 C   0  0  0  0  0  0  0  0  0  0  0  0
   20.0994   16.2043   21.5827 H   0  0  0  0  0  0  0  0  0  0  0  0
   21.5983   17.1333   21.7991 H   0  0  0  0  0  0  0  0  0  0  0  0
   20.4593   17.5623   20.5047 H   0  0  0  0  0  0  0  0  0  0  0  0
   20.3797   19.5902   22.3888 C   0  0  0  0  0  0  0  0  0  0  0  0
   21.4410   19.5728   22.6701 H   0  0  0  0  0  0  0  0  0  0  0  0
   20.3461   19.9116   21.3392 H   0  0  0  0  0  0  0  0  0  0  0  0
   19.6430   20.6436   23.2546 C   0  0  0  0  0  0  0  0  0  0  0  0
   20.1306   21.6186   23.1143 H   0  0  0  0  0  0  0  0  0  0  0  0
   19.7521   20.4028   24.3207 H   0  0  0  0  0  0  0  0  0  0  0  0
   18.1443   20.7779   22.9008 C   0  0  0  0  0  0  0  0  0  0  0  0
   18.0099   21.0190   21.8382 H   0  0  0  0  0  0  0  0  0  0  0  0
   17.6813   21.5821   23.4873 H   0  0  0  0  0  0  0  0  0  0  0  0
   17.5932   19.8535   23.1149 H   0  0  0  0  0  0  0  0  0  0  0  0
  1  2  1  0  0  0  0
  1  3  1  0  0  0  0
  1  4  1  0  0  0  0
  1  5  1  0  0  0  0
  5  6  1  0  0  0  0
  5  7  1  0  0  0  0
  7  8  1  0  0  0  0
  7  9  1  0  0  0  0
  7 10  1  0  0  0  0
  5 11  1  0  0  0  0
 11 12  1  0  0  0  0
 11 13  1  0  0  0  0
 11 14  1  0  0  0  0
 14 15  1  0  0  0  0
 14 16  1  0  0  0  0
 14 17  1  0  0  0  0
 17 18  1  0  0  0  0
 17 19  1  0  0  0  0
 17 20  1  0  0  0  0
M  END
> <VConfSearch Rank>
826

> <Conf_Id>
50

> <Delta U+W>
0.466

> <U+W>
-35.811

> <U>
22.369

> <W>
-58.180

> <W(PB)>
-60.103

> <W(SA)>
1.923

> <Valence>
2.168

> <Coulomb>
19.636

> <VdW>
0.566

> <VdW6>
-5.263

> <VdW12>
5.829

> <Bond>
0.162

> <Angle>
1.066

> <Pdih>
0.939

> <Idih>
0.000

> <Tether>
0.000

$$$$
VeraChem MOL file


 20 19  0  0  0  0  0  0  0  0999 V2000     
   18.8671   19.8596   24.6888 N   0  3  0  0  0  0  0  0  0  0  0  0
   19.4054   20.7236   24.7973 H   0  0  0  0  0  0  0  0  0  0  0  0
   19.1223   19.2395   25.4616 H   0  0  0  0  0  0  0  0  0  0  0  0
   17.8796   20.1020   24.8066 H   0  0  0  0  0  0  0  0  0  0  0  0
   19.1198   19.2123   23.3540 C   0  0  2  0  0  0  0  0  0  0  0  0
   18.8225   19.9461   22.5984 H   0  0  0  0  0  0  0  0  0  0  0  0
   18.2368   17.9598   23.2003 C   0  0  0  0  0  0  0  0  0  0  0  0
   18.4703   17.2147   23.9710 H   0  0  0  0  0  0  0  0  0  0  0  0
   18.3755   17.4866   22.2223 H   0  0  0  0  0  0  0  0  0  0  0  0
   17.1757   18.2216   23.2929 H   0  0  0  0  0  0  0  0  0  0  0  0
   20.6190   18.8854   23.1445 C   0  0  0  0  0  0  0  0  0  0  0  0
   21.2161   19.4598   23.8650 H   0  0  0  0  0  0  0  0  0  0  0  0
   20.8169   17.8295   23.3722 H   0  0  0  0  0  0  0  0  0  0  0  0
   21.1451   19.2329   21.7288 C   0  0  0  0  0  0  0  0  0  0  0  0
   22.2269   19.0413   21.6998 H   0  0  0  0  0  0  0  0  0  0  0  0
   21.0210   20.3094   21.5448 H   0  0  0  0  0  0  0  0  0  0  0  0
   20.4691   18.4373   20.5902 C   0  0  0  0  0  0  0  0  0  0  0  0
   20.5385   17.3561   20.7667 H   0  0  0  0  0  0  0  0  0  0  0  0
   20.9573   18.6516   19.6306 H   0  0  0  0  0  0  0  0  0  0  0  0
   19.4107   18.7068   20.4864 H   0  0  0  0  0  0  0  0  0  0  0  0
  1  2  1  0  0  0  0
  1  3  1  0  0  0  0
  1  4  1  0  0  0  0
  1  5  1  0  0  0  0
  5  6  1  0  0  0  0
  5  7  1  0  0  0  0
  7  8  1  0  0  0  0
  7  9  1  0  0  0  0
  7 10  1  0  0  0  0
  5 11  1  0  0  0  0
 11 12  1  0  0  0  0
 11 13  1  0  0  0  0
 11 14  1  0  0  0  0
 14 15  1  0  0  0  0
 14 16  1  0  0  0  0
 14 17  1  0  0  0  0
 17 18  1  0  0  0  0
 17 19  1  0  0  0  0
 17 20  1  0  0  0  0
M  END
> <VConfSearch Rank>
827

> <Conf_Id>
3

> <Delta U+W>
3.093

> <U+W>
-33.184

> <U>
25.256

> <W>
-58.439

> <W(PB)>
-60.337

> <W(SA)>
1.898

> <Valence>
4.963

> <Coulomb>
19.511

> <VdW>
0.782

> <VdW6>
-5.429

> <VdW12>
6.211

> <Bond>
0.174

> <Angle>
1.377

> <Pdih>
3.412

> <Idih>
0.000

> <Tether>
0.000

$$$$
VeraChem MOL file


 20 19  0  0  0  0  0  0  0  0999 V2000     
   19.1067   18.6217   24.9492 N   0  3  0  0  0  0  0  0  0  0  0  0
   19.7901   18.6308   25.7112 H   0  0  0  0  0  0  0  0  0  0  0  0
   18.6678   17.6969   24.9478 H   0  0  0  0  0  0  0  0  0  0  0  0
   18.3816   19.3045   25.1832 H   0  0  0  0  0  0  0  0  0  0  0  0
   19.7522   18.9322   23.6266 C   0  0  2  0  0  0  0  0  0  0  0  0
   20.5088   18.1584   23.4656 H   0  0  0  0  0  0  0  0  0  0  0  0
   20.4588   20.2988   23.6833 C   0  0  0  0  0  0  0  0  0  0  0  0
   21.0502   20.4785   22.7780 H   0  0  0  0  0  0  0  0  0  0  0  0
   21.1483   20.3426   24.5352 H   0  0  0  0  0  0  0  0  0  0  0  0
   19.7348   21.1161   23.7891 H   0  0  0  0  0  0  0  0  0  0  0  0
   18.7258   18.8562   22.4711 C   0  0  0  0  0  0  0  0  0  0  0  0
   18.1996   17.8944   22.5312 H   0  0  0  0  0  0  0  0  0  0  0  0
   17.9607   19.6310   22.6131 H   0  0  0  0  0  0  0  0  0  0  0  0
   19.3282   18.9943   21.0494 C   0  0  0  0  0  0  0  0  0  0  0  0
   19.7479   19.9994   20.9087 H   0  0  0  0  0  0  0  0  0  0  0  0
   18.5174   18.9022   20.3133 H   0  0  0  0  0  0  0  0  0  0  0  0
   20.4064   17.9301   20.7423 C   0  0  0  0  0  0  0  0  0  0  0  0
   20.0101   16.9155   20.8791 H   0  0  0  0  0  0  0  0  0  0  0  0
   21.2840   18.0465   21.3906 H   0  0  0  0  0  0  0  0  0  0  0  0
   20.7490   18.0185   19.7032 H   0  0  0  0  0  0  0  0  0  0  0  0
  1  2  1  0  0  0  0
  1  3  1  0  0  0  0
  1  4  1  0  0  0  0
  1  5  1  0  0  0  0
  5  6  1  0  0  0  0
  5  7  1  0  0  0  0
  7  8  1  0  0  0  0
  7  9  1  0  0  0  0
  7 10  1  0  0  0  0
  5 11  1  0  0  0  0
 11 12  1  0  0  0  0
 11 13  1  0  0  0  0
 11 14  1  0  0  0  0
 14 15  1  0  0  0  0
 14 16  1  0  0  0  0
 14 17  1  0  0  0  0
 17 18  1  0  0  0  0
 17 19  1  0  0  0  0
 17 20  1  0  0  0  0
M  END
> <VConfSearch Rank>
828

> <Conf_Id>
64

> <Delta U+W>
0.544

> <U+W>
-35.732

> <U>
22.800

> <W>
-58.532

> <W(PB)>
-60.437

> <W(SA)>
1.905

> <Valence>
2.662

> <Coulomb>
19.485

> <VdW>
0.653

> <VdW6>
-5.460

> <VdW12>
6.113

> <Bond>
0.174

> <Angle>
1.378

> <Pdih>
1.109

> <Idih>
0.000

> <Tether>
0.000

$$$$
VeraChem MOL file


 20 19  0  0  0  0  0  0  0  0999 V2000     
   21.3246   18.4358   24.0610 N   0  3  0  0  0  0  0  0  0  0  0  0
   20.6930   18.9877   24.6456 H   0  0  0  0  0  0  0  0  0  0  0  0
   22.2724   18.7896   24.2167 H   0  0  0  0  0  0  0  0  0  0  0  0
   21.2998   17.4726   24.4062 H   0  0  0  0  0  0  0  0  0  0  0  0
   20.9399   18.5136   22.6082 C   0  0  2  0  0  0  0  0  0  0  0  0
   21.6751   17.9061   22.0711 H   0  0  0  0  0  0  0  0  0  0  0  0
   21.0640   19.9538   22.0846 C   0  0  0  0  0  0  0  0  0  0  0  0
   20.4509   20.6483   22.6707 H   0  0  0  0  0  0  0  0  0  0  0  0
   20.7551   20.0158   21.0338 H   0  0  0  0  0  0  0  0  0  0  0  0
   22.1045   20.2950   22.1459 H   0  0  0  0  0  0  0  0  0  0  0  0
   19.5494   17.8879   22.3323 C   0  0  0  0  0  0  0  0  0  0  0  0
   19.3932   17.8111   21.2483 H   0  0  0  0  0  0  0  0  0  0  0  0
   19.5789   16.8514   22.6931 H   0  0  0  0  0  0  0  0  0  0  0  0
   18.3339   18.5980   22.9907 C   0  0  0  0  0  0  0  0  0  0  0  0
   18.6216   19.0677   23.9404 H   0  0  0  0  0  0  0  0  0  0  0  0
   17.5859   17.8353   23.2490 H   0  0  0  0  0  0  0  0  0  0  0  0
   17.6506   19.6356   22.0691 C   0  0  0  0  0  0  0  0  0  0  0  0
   18.3232   20.4578   21.8016 H   0  0  0  0  0  0  0  0  0  0  0  0
   16.7759   20.0733   22.5673 H   0  0  0  0  0  0  0  0  0  0  0  0
   17.3026   19.1666   21.1395 H   0  0  0  0  0  0  0  0  0  0  0  0
  1  2  1  0  0  0  0
  1  3  1  0  0  0  0
  1  4  1  0  0  0  0
  1  5  1  0  0  0  0
  5  6  1  0  0  0  0
  5  7  1  0  0  0  0
  7  8  1  0  0  0  0
  7  9  1  0  0  0  0
  7 10  1  0  0  0  0
  5 11  1  0  0  0  0
 11 12  1  0  0  0  0
 11 13  1  0  0  0  0
 11 14  1  0  0  0  0
 14 15  1  0  0  0  0
 14 16  1  0  0  0  0
 14 17  1  0  0  0  0
 17 18  1  0  0  0  0
 17 19  1  0  0  0  0
 17 20  1  0  0  0  0
M  END
> <VConfSearch Rank>
829

> <Conf_Id>
35

> <Delta U+W>
3.004

> <U+W>
-33.272

> <U>
25.367

> <W>
-58.639

> <W(PB)>
-60.512

> <W(SA)>
1.873

> <Valence>
4.943

> <Coulomb>
19.661

> <VdW>
0.764

> <VdW6>
-5.871

> <VdW12>
6.636

> <Bond>
0.230

> <Angle>
1.857

> <Pdih>
2.855

> <Idih>
0.000

> <Tether>
0.000

$$$$
VeraChem MOL file


 20 19  0  0  0  0  0  0  0  0999 V2000     
   18.1384   18.3967   22.9682 N   0  3  0  0  0  0  0  0  0  0  0  0
   17.1832   18.7561   22.8898 H   0  0  0  0  0  0  0  0  0  0  0  0
   18.1034   17.5668   23.5663 H   0  0  0  0  0  0  0  0  0  0  0  0
   18.4321   18.0914   22.0384 H   0  0  0  0  0  0  0  0  0  0  0  0
   19.0753   19.4352   23.5214 C   0  0  2  0  0  0  0  0  0  0  0  0
   18.6895   19.6712   24.5181 H   0  0  0  0  0  0  0  0  0  0  0  0
   19.0285   20.7317   22.6935 C   0  0  0  0  0  0  0  0  0  0  0  0
   19.3139   20.5559   21.6495 H   0  0  0  0  0  0  0  0  0  0  0  0
   19.7056   21.4858   23.1133 H   0  0  0  0  0  0  0  0  0  0  0  0
   18.0164   21.1542   22.6979 H   0  0  0  0  0  0  0  0  0  0  0  0
   20.5206   18.9085   23.7135 C   0  0  0  0  0  0  0  0  0  0  0  0
   21.0383   19.5988   24.3924 H   0  0  0  0  0  0  0  0  0  0  0  0
   20.4817   17.9502   24.2476 H   0  0  0  0  0  0  0  0  0  0  0  0
   21.3968   18.7497   22.4393 C   0  0  0  0  0  0  0  0  0  0  0  0
   22.3950   18.4142   22.7537 H   0  0  0  0  0  0  0  0  0  0  0  0
   21.5521   19.7257   21.9596 H   0  0  0  0  0  0  0  0  0  0  0  0
   20.8512   17.7418   21.4023 C   0  0  0  0  0  0  0  0  0  0  0  0
   20.6055   16.7806   21.8722 H   0  0  0  0  0  0  0  0  0  0  0  0
   21.6041   17.5498   20.6268 H   0  0  0  0  0  0  0  0  0  0  0  0
   19.9592   18.1272   20.8953 H   0  0  0  0  0  0  0  0  0  0  0  0
  1  2  1  0  0  0  0
  1  3  1  0  0  0  0
  1  4  1  0  0  0  0
  1  5  1  0  0  0  0
  5  6  1  0  0  0  0
  5  7  1  0  0  0  0
  7  8  1  0  0  0  0
  7  9  1  0  0  0  0
  7 10  1  0  0  0  0
  5 11  1  0  0  0  0
 11 12  1  0  0  0  0
 11 13  1  0  0  0  0
 11 14  1  0  0  0  0
 14 15  1  0  0  0  0
 14 16  1  0  0  0  0
 14 17  1  0  0  0  0
 17 18  1  0  0  0  0
 17 19  1  0  0  0  0
 17 20  1  0  0  0  0
M  END
> <VConfSearch Rank>
830

> <Conf_Id>
55

> <Delta U+W>
2.767

> <U+W>
-33.509

> <U>
24.552

> <W>
-58.061

> <W(PB)>
-59.930

> <W(SA)>
1.869

> <Valence>
3.726

> <Coulomb>
20.219

> <VdW>
0.606

> <VdW6>
-6.395

> <VdW12>
7.001

> <Bond>
0.241

> <Angle>
2.098

> <Pdih>
1.387

> <Idih>
0.000

> <Tether>
0.000

$$$$
VeraChem MOL file


 20 19  0  0  0  0  0  0  0  0999 V2000     
   20.5578   20.4904   21.7847 N   0  3  0  0  0  0  0  0  0  0  0  0
   19.9938   21.2248   22.2196 H   0  0  0  0  0  0  0  0  0  0  0  0
   20.8886   20.8517   20.8859 H   0  0  0  0  0  0  0  0  0  0  0  0
   21.3807   20.3444   22.3747 H   0  0  0  0  0  0  0  0  0  0  0  0
   19.7699   19.2199   21.6113 C   0  0  2  0  0  0  0  0  0  0  0  0
   20.4434   18.4926   21.1474 H   0  0  0  0  0  0  0  0  0  0  0  0
   18.5807   19.4470   20.6635 C   0  0  0  0  0  0  0  0  0  0  0  0
   18.9242   19.8256   19.6929 H   0  0  0  0  0  0  0  0  0  0  0  0
   17.8719   20.1725   21.0819 H   0  0  0  0  0  0  0  0  0  0  0  0
   18.0418   18.5088   20.4819 H   0  0  0  0  0  0  0  0  0  0  0  0
   19.2812   18.6364   22.9555 C   0  0  0  0  0  0  0  0  0  0  0  0
   18.6206   19.3584   23.4537 H   0  0  0  0  0  0  0  0  0  0  0  0
   18.6738   17.7439   22.7542 H   0  0  0  0  0  0  0  0  0  0  0  0
   20.4406   18.2471   23.9040 C   0  0  0  0  0  0  0  0  0  0  0  0
   21.0314   19.1351   24.1662 H   0  0  0  0  0  0  0  0  0  0  0  0
   21.1208   17.5521   23.3915 H   0  0  0  0  0  0  0  0  0  0  0  0
   19.9202   17.5899   25.2003 C   0  0  0  0  0  0  0  0  0  0  0  0
   19.2603   18.2723   25.7517 H   0  0  0  0  0  0  0  0  0  0  0  0
   20.7547   17.3217   25.8612 H   0  0  0  0  0  0  0  0  0  0  0  0
   19.3574   16.6732   24.9809 H   0  0  0  0  0  0  0  0  0  0  0  0
  1  2  1  0  0  0  0
  1  3  1  0  0  0  0
  1  4  1  0  0  0  0
  1  5  1  0  0  0  0
  5  6  1  0  0  0  0
  5  7  1  0  0  0  0
  7  8  1  0  0  0  0
  7  9  1  0  0  0  0
  7 10  1  0  0  0  0
  5 11  1  0  0  0  0
 11 12  1  0  0  0  0
 11 13  1  0  0  0  0
 11 14  1  0  0  0  0
 14 15  1  0  0  0  0
 14 16  1  0  0  0  0
 14 17  1  0  0  0  0
 17 18  1  0  0  0  0
 17 19  1  0  0  0  0
 17 20  1  0  0  0  0
M  END
> <VConfSearch Rank>
831

> <Conf_Id>
74

> <Delta U+W>
0.000

> <U+W>
-36.276

> <U>
22.080

> <W>
-58.356

> <W(PB)>
-60.289

> <W(SA)>
1.932

> <Valence>
1.885

> <Coulomb>
19.559

> <VdW>
0.637

> <VdW6>
-4.482

> <VdW12>
5.119

> <Bond>
0.136

> <Angle>
0.867

> <Pdih>
0.882

> <Idih>
0.000

> <Tether>
0.000

$$$$
VeraChem MOL file


 20 19  0  0  0  0  0  0  0  0999 V2000     
   19.9192   16.5525   22.5869 N   0  3  0  0  0  0  0  0  0  0  0  0
   18.9592   16.2592   22.7873 H   0  0  0  0  0  0  0  0  0  0  0  0
   20.4691   16.4021   23.4364 H   0  0  0  0  0  0  0  0  0  0  0  0
   20.2855   15.9189   21.8713 H   0  0  0  0  0  0  0  0  0  0  0  0
   19.9796   17.9862   22.1360 C   0  0  2  0  0  0  0  0  0  0  0  0
   19.3708   18.0498   21.2288 H   0  0  0  0  0  0  0  0  0  0  0  0
   21.4265   18.3730   21.7786 C   0  0  0  0  0  0  0  0  0  0  0  0
   21.8527   17.6571   21.0650 H   0  0  0  0  0  0  0  0  0  0  0  0
   22.0660   18.3858   22.6699 H   0  0  0  0  0  0  0  0  0  0  0  0
   21.4710   19.3623   21.3091 H   0  0  0  0  0  0  0  0  0  0  0  0
   19.3682   18.9320   23.1958 C   0  0  0  0  0  0  0  0  0  0  0  0
   18.3839   18.5402   23.4845 H   0  0  0  0  0  0  0  0  0  0  0  0
   19.9860   18.9189   24.1035 H   0  0  0  0  0  0  0  0  0  0  0  0
   19.1921   20.3901   22.7056 C   0  0  0  0  0  0  0  0  0  0  0  0
   18.6272   20.3985   21.7627 H   0  0  0  0  0  0  0  0  0  0  0  0
   20.1704   20.8423   22.4951 H   0  0  0  0  0  0  0  0  0  0  0  0
   18.4568   21.2573   23.7500 C   0  0  0  0  0  0  0  0  0  0  0  0
   17.4537   20.8622   23.9572 H   0  0  0  0  0  0  0  0  0  0  0  0
   18.3439   22.2876   23.3882 H   0  0  0  0  0  0  0  0  0  0  0  0
   19.0125   21.2920   24.6962 H   0  0  0  0  0  0  0  0  0  0  0  0
  1  2  1  0  0  0  0
  1  3  1  0  0  0  0
  1  4  1  0  0  0  0
  1  5  1  0  0  0  0
  5  6  1  0  0  0  0
  5  7  1  0  0  0  0
  7  8  1  0  0  0  0
  7  9  1  0  0  0  0
  7 10  1  0  0  0  0
  5 11  1  0  0  0  0
 11 12  1  0  0  0  0
 11 13  1  0  0  0  0
 11 14  1  0  0  0  0
 14 15  1  0  0  0  0
 14 16  1  0  0  0  0
 14 17  1  0  0  0  0
 17 18  1  0  0  0  0
 17 19  1  0  0  0  0
 17 20  1  0  0  0  0
M  END
> <VConfSearch Rank>
832

> <Conf_Id>
80

> <Delta U+W>
0.460

> <U+W>
-35.817

> <U>
22.495

> <W>
-58.311

> <W(PB)>
-60.259

> <W(SA)>
1.948

> <Valence>
2.419

> <Coulomb>
19.304

> <VdW>
0.772

> <VdW6>
-4.635

> <VdW12>
5.407

> <Bond>
0.149

> <Angle>
1.142

> <Pdih>
1.129

> <Idih>
0.000

> <Tether>
0.000

$$$$
VeraChem MOL file


 20 19  0  0  0  0  0  0  0  0999 V2000     
   20.5246   16.7350   23.4711 N   0  3  0  0  0  0  0  0  0  0  0  0
   20.0973   16.4774   24.3648 H   0  0  0  0  0  0  0  0  0  0  0  0
   21.4794   17.0465   23.6663 H   0  0  0  0  0  0  0  0  0  0  0  0
   20.5919   15.8810   22.9109 H   0  0  0  0  0  0  0  0  0  0  0  0
   19.7314   17.7980   22.7614 C   0  0  2  0  0  0  0  0  0  0  0  0
   18.7363   17.3752   22.5915 H   0  0  0  0  0  0  0  0  0  0  0  0
   20.3600   18.1060   21.3917 C   0  0  0  0  0  0  0  0  0  0  0  0
   20.5366   17.1809   20.8295 H   0  0  0  0  0  0  0  0  0  0  0  0
   21.3195   18.6264   21.5018 H   0  0  0  0  0  0  0  0  0  0  0  0
   19.6928   18.7282   20.7845 H   0  0  0  0  0  0  0  0  0  0  0  0
   19.5729   19.0577   23.6476 C   0  0  0  0  0  0  0  0  0  0  0  0
   19.1542   18.7331   24.6094 H   0  0  0  0  0  0  0  0  0  0  0  0
   20.5576   19.4845   23.8798 H   0  0  0  0  0  0  0  0  0  0  0  0
   18.6363   20.1518   23.0702 C   0  0  0  0  0  0  0  0  0  0  0  0
   18.0761   20.6066   23.8994 H   0  0  0  0  0  0  0  0  0  0  0  0
   17.8824   19.7001   22.4102 H   0  0  0  0  0  0  0  0  0  0  0  0
   19.3922   21.2812   22.3314 C   0  0  0  0  0  0  0  0  0  0  0  0
   20.0946   21.7887   23.0054 H   0  0  0  0  0  0  0  0  0  0  0  0
   18.6869   22.0351   21.9582 H   0  0  0  0  0  0  0  0  0  0  0  0
   19.9608   20.9057   21.4734 H   0  0  0  0  0  0  0  0  0  0  0  0
  1  2  1  0  0  0  0
  1  3  1  0  0  0  0
  1  4  1  0  0  0  0
  1  5  1  0  0  0  0
  5  6  1  0  0  0  0
  5  7  1  0  0  0  0
  7  8  1  0  0  0  0
  7  9  1  0  0  0  0
  7 10  1  0  0  0  0
  5 11  1  0  0  0  0
 11 12  1  0  0  0  0
 11 13  1  0  0  0  0
 11 14  1  0  0  0  0
 14 15  1  0  0  0  0
 14 16  1  0  0  0  0
 14 17  1  0  0  0  0
 17 18  1  0  0  0  0
 17 19  1  0  0  0  0
 17 20  1  0  0  0  0
M  END
> <VConfSearch Rank>
833

> <Conf_Id>
52

> <Delta U+W>
2.995

> <U+W>
-33.282

> <U>
25.224

> <W>
-58.506

> <W(PB)>
-60.411

> <W(SA)>
1.905

> <Valence>
4.945

> <Coulomb>
19.467

> <VdW>
0.813

> <VdW6>
-5.458

> <VdW12>
6.270

> <Bond>
0.200

> <Angle>
1.675

> <Pdih>
3.070

> <Idih>
0.000

> <Tether>
0.000

$$$$
VeraChem MOL file


 20 19  0  0  0  0  0  0  0  0999 V2000     
   20.7589   17.9874   23.4958 N   0  3  0  0  0  0  0  0  0  0  0  0
   20.4052   17.0568   23.2607 H   0  0  0  0  0  0  0  0  0  0  0  0
   21.3267   17.8942   24.3423 H   0  0  0  0  0  0  0  0  0  0  0  0
   21.3797   18.2792   22.7379 H   0  0  0  0  0  0  0  0  0  0  0  0
   19.6350   18.9685   23.6896 C   0  0  2  0  0  0  0  0  0  0  0  0
   20.0860   19.9212   23.9841 H   0  0  0  0  0  0  0  0  0  0  0  0
   18.7210   18.4954   24.8327 C   0  0  0  0  0  0  0  0  0  0  0  0
   18.2291   17.5475   24.5814 H   0  0  0  0  0  0  0  0  0  0  0  0
   17.9426   19.2390   25.0444 H   0  0  0  0  0  0  0  0  0  0  0  0
   19.2965   18.3481   25.7549 H   0  0  0  0  0  0  0  0  0  0  0  0
   18.8109   19.1989   22.4003 C   0  0  0  0  0  0  0  0  0  0  0  0
   18.5591   18.2346   21.9396 H   0  0  0  0  0  0  0  0  0  0  0  0
   17.8524   19.6590   22.6752 H   0  0  0  0  0  0  0  0  0  0  0  0
   19.4823   20.1303   21.3572 C   0  0  0  0  0  0  0  0  0  0  0  0
   19.6881   21.1091   21.8130 H   0  0  0  0  0  0  0  0  0  0  0  0
   18.7593   20.3184   20.5510 H   0  0  0  0  0  0  0  0  0  0  0  0
   20.7787   19.5720   20.7272 C   0  0  0  0  0  0  0  0  0  0  0  0
   21.0768   20.1858   19.8671 H   0  0  0  0  0  0  0  0  0  0  0  0
   20.6382   18.5440   20.3685 H   0  0  0  0  0  0  0  0  0  0  0  0
   21.6139   19.5909   21.4369 H   0  0  0  0  0  0  0  0  0  0  0  0
  1  2  1  0  0  0  0
  1  3  1  0  0  0  0
  1  4  1  0  0  0  0
  1  5  1  0  0  0  0
  5  6  1  0  0  0  0
  5  7  1  0  0  0  0
  7  8  1  0  0  0  0
  7  9  1  0  0  0  0
  7 10  1  0  0  0  0
  5 11  1  0  0  0  0
 11 12  1  0  0  0  0
 11 13  1  0  0  0  0
 11 14  1  0  0  0  0
 14 15  1  0  0  0  0
 14 16  1  0  0  0  0
 14 17  1  0  0  0  0
 17 18  1  0  0  0  0
 17 19  1  0  0  0  0
 17 20  1  0  0  0  0
M  END
> <VConfSearch Rank>
834

> <Conf_Id>
54

> <Delta U+W>
2.752

> <U+W>
-33.525

> <U>
24.337

> <W>
-57.862

> <W(PB)>
-59.764

> <W(SA)>
1.901

> <Valence>
3.593

> <Coulomb>
20.067

> <VdW>
0.677

> <VdW6>
-5.466

> <VdW12>
6.144

> <Bond>
0.191

> <Angle>
1.557

> <Pdih>
1.845

> <Idih>
0.000

> <Tether>
0.000

$$$$
VeraChem MOL file


 20 19  0  0  0  0  0  0  0  0999 V2000     
   18.5469   20.0210   21.4054 N   0  3  0  0  0  0  0  0  0  0  0  0
   17.6730   19.9940   20.8732 H   0  0  0  0  0  0  0  0  0  0  0  0
   19.1995   20.6157   20.8875 H   0  0  0  0  0  0  0  0  0  0  0  0
   18.3485   20.4845   22.2949 H   0  0  0  0  0  0  0  0  0  0  0  0
   19.1056   18.6401   21.6172 C   0  0  2  0  0  0  0  0  0  0  0  0
   19.2676   18.2227   20.6184 H   0  0  0  0  0  0  0  0  0  0  0  0
   18.0889   17.7368   22.3378 C   0  0  0  0  0  0  0  0  0  0  0  0
   18.5006   16.7317   22.4918 H   0  0  0  0  0  0  0  0  0  0  0  0
   17.1759   17.6332   21.7387 H   0  0  0  0  0  0  0  0  0  0  0  0
   17.8035   18.1450   23.3144 H   0  0  0  0  0  0  0  0  0  0  0  0
   20.4773   18.6589   22.3334 C   0  0  0  0  0  0  0  0  0  0  0  0
   20.8679   17.6335   22.3748 H   0  0  0  0  0  0  0  0  0  0  0  0
   21.1846   19.2255   21.7137 H   0  0  0  0  0  0  0  0  0  0  0  0
   20.4609   19.2583   23.7634 C   0  0  0  0  0  0  0  0  0  0  0  0
   19.7973   18.6726   24.4135 H   0  0  0  0  0  0  0  0  0  0  0  0
   20.0636   20.2819   23.7411 H   0  0  0  0  0  0  0  0  0  0  0  0
   21.8743   19.2811   24.3842 C   0  0  0  0  0  0  0  0  0  0  0  0
   21.8465   19.7056   25.3961 H   0  0  0  0  0  0  0  0  0  0  0  0
   22.5607   19.8911   23.7825 H   0  0  0  0  0  0  0  0  0  0  0  0
   22.2908   18.2679   24.4558 H   0  0  0  0  0  0  0  0  0  0  0  0
  1  2  1  0  0  0  0
  1  3  1  0  0  0  0
  1  4  1  0  0  0  0
  1  5  1  0  0  0  0
  5  6  1  0  0  0  0
  5  7  1  0  0  0  0
  7  8  1  0  0  0  0
  7  9  1  0  0  0  0
  7 10  1  0  0  0  0
  5 11  1  0  0  0  0
 11 12  1  0  0  0  0
 11 13  1  0  0  0  0
 11 14  1  0  0  0  0
 14 15  1  0  0  0  0
 14 16  1  0  0  0  0
 14 17  1  0  0  0  0
 17 18  1  0  0  0  0
 17 19  1  0  0  0  0
 17 20  1  0  0  0  0
M  END
> <VConfSearch Rank>
835

> <Conf_Id>
63

> <Delta U+W>
0.420

> <U+W>
-35.856

> <U>
22.625

> <W>
-58.481

> <W(PB)>
-60.400

> <W(SA)>
1.919

> <Valence>
2.404

> <Coulomb>
19.464

> <VdW>
0.757

> <VdW6>
-5.074

> <VdW12>
5.830

> <Bond>
0.172

> <Angle>
1.207

> <Pdih>
1.025

> <Idih>
0.000

> <Tether>
0.000

$$$$
VeraChem MOL file


 20 19  0  0  0  0  0  0  0  0999 V2000     
   18.8711   20.0906   21.6460 N   0  3  0  0  0  0  0  0  0  0  0  0
   19.6393   19.8669   21.0083 H   0  0  0  0  0  0  0  0  0  0  0  0
   18.9971   21.0584   21.9525 H   0  0  0  0  0  0  0  0  0  0  0  0
   18.0032   20.0517   21.1048 H   0  0  0  0  0  0  0  0  0  0  0  0
   18.8364   19.1426   22.8140 C   0  0  2  0  0  0  0  0  0  0  0  0
   18.6969   18.1392   22.4008 H   0  0  0  0  0  0  0  0  0  0  0  0
   17.6413   19.4529   23.7300 C   0  0  0  0  0  0  0  0  0  0  0  0
   16.6997   19.4062   23.1692 H   0  0  0  0  0  0  0  0  0  0  0  0
   17.7273   20.4541   24.1705 H   0  0  0  0  0  0  0  0  0  0  0  0
   17.5775   18.7243   24.5477 H   0  0  0  0  0  0  0  0  0  0  0  0
   20.1526   19.1544   23.6242 C   0  0  0  0  0  0  0  0  0  0  0  0
   20.3023   20.1505   24.0614 H   0  0  0  0  0  0  0  0  0  0  0  0
   20.0579   18.4598   24.4695 H   0  0  0  0  0  0  0  0  0  0  0  0
   21.4081   18.7680   22.8018 C   0  0  0  0  0  0  0  0  0  0  0  0
   22.2872   18.8096   23.4601 H   0  0  0  0  0  0  0  0  0  0  0  0
   21.5878   19.5094   22.0115 H   0  0  0  0  0  0  0  0  0  0  0  0
   21.3143   17.3556   22.1806 C   0  0  0  0  0  0  0  0  0  0  0  0
   21.1347   16.5962   22.9527 H   0  0  0  0  0  0  0  0  0  0  0  0
   22.2509   17.0976   21.6693 H   0  0  0  0  0  0  0  0  0  0  0  0
   20.5059   17.2910   21.4416 H   0  0  0  0  0  0  0  0  0  0  0  0
  1  2  1  0  0  0  0
  1  3  1  0  0  0  0
  1  4  1  0  0  0  0
  1  5  1  0  0  0  0
  5  6  1  0  0  0  0
  5  7  1  0  0  0  0
  7  8  1  0  0  0  0
  7  9  1  0  0  0  0
  7 10  1  0  0  0  0
  5 11  1  0  0  0  0
 11 12  1  0  0  0  0
 11 13  1  0  0  0  0
 11 14  1  0  0  0  0
 14 15  1  0  0  0  0
 14 16  1  0  0  0  0
 14 17  1  0  0  0  0
 17 18  1  0  0  0  0
 17 19  1  0  0  0  0
 17 20  1  0  0  0  0
M  END
> <VConfSearch Rank>
836

> <Conf_Id>
50

> <Delta U+W>
0.466

> <U+W>
-35.811

> <U>
22.369

> <W>
-58.180

> <W(PB)>
-60.103

> <W(SA)>
1.923

> <Valence>
2.168

> <Coulomb>
19.636

> <VdW>
0.566

> <VdW6>
-5.263

> <VdW12>
5.829

> <Bond>
0.162

> <Angle>
1.066

> <Pdih>
0.939

> <Idih>
0.000

> <Tether>
0.000

$$$$
VeraChem MOL file


 20 19  0  0  0  0  0  0  0  0999 V2000     
   21.7455   17.8650   23.0254 N   0  3  0  0  0  0  0  0  0  0  0  0
   22.3242   18.2429   22.2702 H   0  0  0  0  0  0  0  0  0  0  0  0
   21.6024   16.8700   22.8342 H   0  0  0  0  0  0  0  0  0  0  0  0
   22.2921   17.9334   23.8881 H   0  0  0  0  0  0  0  0  0  0  0  0
   20.4372   18.5992   23.1427 C   0  0  2  0  0  0  0  0  0  0  0  0
   20.6914   19.6448   23.3419 H   0  0  0  0  0  0  0  0  0  0  0  0
   19.6307   18.0513   24.3350 C   0  0  0  0  0  0  0  0  0  0  0  0
   19.3946   16.9887   24.1975 H   0  0  0  0  0  0  0  0  0  0  0  0
   18.6866   18.5913   24.4650 H   0  0  0  0  0  0  0  0  0  0  0  0
   20.2007   18.1538   25.2665 H   0  0  0  0  0  0  0  0  0  0  0  0
   19.6230   18.5436   21.8266 C   0  0  0  0  0  0  0  0  0  0  0  0
   20.2889   18.2511   21.0040 H   0  0  0  0  0  0  0  0  0  0  0  0
   18.8583   17.7573   21.8814 H   0  0  0  0  0  0  0  0  0  0  0  0
   18.9716   19.8940   21.4342 C   0  0  0  0  0  0  0  0  0  0  0  0
   18.4852   19.7776   20.4555 H   0  0  0  0  0  0  0  0  0  0  0  0
   19.7543   20.6534   21.2973 H   0  0  0  0  0  0  0  0  0  0  0  0
   17.9281   20.4110   22.4491 C   0  0  0  0  0  0  0  0  0  0  0  0
   17.1537   19.6569   22.6405 H   0  0  0  0  0  0  0  0  0  0  0  0
   17.4309   21.3104   22.0632 H   0  0  0  0  0  0  0  0  0  0  0  0
   18.3965   20.6803   23.4040 H   0  0  0  0  0  0  0  0  0  0  0  0
  1  2  1  0  0  0  0
  1  3  1  0  0  0  0
  1  4  1  0  0  0  0
  1  5  1  0  0  0  0
  5  6  1  0  0  0  0
  5  7  1  0  0  0  0
  7  8  1  0  0  0  0
  7  9  1  0  0  0  0
  7 10  1  0  0  0  0
  5 11  1  0  0  0  0
 11 12  1  0  0  0  0
 11 13  1  0  0  0  0
 11 14  1  0  0  0  0
 14 15  1  0  0  0  0
 14 16  1  0  0  0  0
 14 17  1  0  0  0  0
 17 18  1  0  0  0  0
 17 19  1  0  0  0  0
 17 20  1  0  0  0  0
M  END
> <VConfSearch Rank>
837

> <Conf_Id>
3

> <Delta U+W>
3.093

> <U+W>
-33.184

> <U>
25.256

> <W>
-58.439

> <W(PB)>
-60.337

> <W(SA)>
1.898

> <Valence>
4.963

> <Coulomb>
19.511

> <VdW>
0.782

> <VdW6>
-5.429

> <VdW12>
6.211

> <Bond>
0.174

> <Angle>
1.377

> <Pdih>
3.412

> <Idih>
0.000

> <Tether>
0.000

$$$$
VeraChem MOL file


 20 19  0  0  0  0  0  0  0  0999 V2000     
   20.0128   16.9874   21.6311 N   0  3  0  0  0  0  0  0  0  0  0  0
   20.1947   16.0950   22.0983 H   0  0  0  0  0  0  0  0  0  0  0  0
   20.8254   17.1921   21.0432 H   0  0  0  0  0  0  0  0  0  0  0  0
   19.2125   16.8473   21.0094 H   0  0  0  0  0  0  0  0  0  0  0  0
   19.7551   18.0869   22.6246 C   0  0  2  0  0  0  0  0  0  0  0  0
   20.6555   18.1596   23.2419 H   0  0  0  0  0  0  0  0  0  0  0  0
   18.5698   17.7185   23.5354 C   0  0  0  0  0  0  0  0  0  0  0  0
   18.4562   18.4410   24.3519 H   0  0  0  0  0  0  0  0  0  0  0  0
   18.7251   16.7338   23.9930 H   0  0  0  0  0  0  0  0  0  0  0  0
   17.6298   17.6870   22.9707 H   0  0  0  0  0  0  0  0  0  0  0  0
   19.5419   19.4449   21.9142 C   0  0  0  0  0  0  0  0  0  0  0  0
   20.3767   19.6139   21.2214 H   0  0  0  0  0  0  0  0  0  0  0  0
   18.6374   19.3924   21.2938 H   0  0  0  0  0  0  0  0  0  0  0  0
   19.4371   20.6694   22.8591 C   0  0  0  0  0  0  0  0  0  0  0  0
   18.5327   20.5975   23.4781 H   0  0  0  0  0  0  0  0  0  0  0  0
   19.3117   21.5749   22.2490 H   0  0  0  0  0  0  0  0  0  0  0  0
   20.6776   20.8438   23.7646 C   0  0  0  0  0  0  0  0  0  0  0  0
   21.5958   20.9152   23.1672 H   0  0  0  0  0  0  0  0  0  0  0  0
   20.7873   20.0056   24.4642 H   0  0  0  0  0  0  0  0  0  0  0  0
   20.5931   21.7622   24.3599 H   0  0  0  0  0  0  0  0  0  0  0  0
  1  2  1  0  0  0  0
  1  3  1  0  0  0  0
  1  4  1  0  0  0  0
  1  5  1  0  0  0  0
  5  6  1  0  0  0  0
  5  7  1  0  0  0  0
  7  8  1  0  0  0  0
  7  9  1  0  0  0  0
  7 10  1  0  0  0  0
  5 11  1  0  0  0  0
 11 12  1  0  0  0  0
 11 13  1  0  0  0  0
 11 14  1  0  0  0  0
 14 15  1  0  0  0  0
 14 16  1  0  0  0  0
 14 17  1  0  0  0  0
 17 18  1  0  0  0  0
 17 19  1  0  0  0  0
 17 20  1  0  0  0  0
M  END
> <VConfSearch Rank>
838

> <Conf_Id>
64

> <Delta U+W>
0.544

> <U+W>
-35.732

> <U>
22.800

> <W>
-58.532

> <W(PB)>
-60.437

> <W(SA)>
1.905

> <Valence>
2.662

> <Coulomb>
19.485

> <VdW>
0.653

> <VdW6>
-5.460

> <VdW12>
6.113

> <Bond>
0.174

> <Angle>
1.378

> <Pdih>
1.109

> <Idih>
0.000

> <Tether>
0.000

$$$$
VeraChem MOL file


 20 19  0  0  0  0  0  0  0  0999 V2000     
   21.1739   17.6704   21.7139 N   0  3  0  0  0  0  0  0  0  0  0  0
   21.1730   17.2798   22.6588 H   0  0  0  0  0  0  0  0  0  0  0  0
   22.1510   17.7802   21.4296 H   0  0  0  0  0  0  0  0  0  0  0  0
   20.7537   16.9736   21.0930 H   0  0  0  0  0  0  0  0  0  0  0  0
   20.4341   18.9797   21.6582 C   0  0  2  0  0  0  0  0  0  0  0  0
   20.5015   19.3174   20.6193 H   0  0  0  0  0  0  0  0  0  0  0  0
   21.1274   20.0386   22.5310 C   0  0  0  0  0  0  0  0  0  0  0  0
   21.2178   19.7049   23.5713 H   0  0  0  0  0  0  0  0  0  0  0  0
   20.5717   20.9842   22.5140 H   0  0  0  0  0  0  0  0  0  0  0  0
   22.1386   20.2405   22.1571 H   0  0  0  0  0  0  0  0  0  0  0  0
   18.9278   18.8200   21.9842 C   0  0  0  0  0  0  0  0  0  0  0  0
   18.4052   19.7594   21.7608 H   0  0  0  0  0  0  0  0  0  0  0  0
   18.5156   18.0866   21.2787 H   0  0  0  0  0  0  0  0  0  0  0  0
   18.5825   18.3551   23.4264 C   0  0  0  0  0  0  0  0  0  0  0  0
   19.3729   17.7084   23.8294 H   0  0  0  0  0  0  0  0  0  0  0  0
   17.6792   17.7307   23.3817 H   0  0  0  0  0  0  0  0  0  0  0  0
   18.3011   19.5226   24.4014 C   0  0  0  0  0  0  0  0  0  0  0  0
   19.1748   20.1698   24.5349 H   0  0  0  0  0  0  0  0  0  0  0  0
   18.0216   19.1369   25.3904 H   0  0  0  0  0  0  0  0  0  0  0  0
   17.4711   20.1441   24.0411 H   0  0  0  0  0  0  0  0  0  0  0  0
  1  2  1  0  0  0  0
  1  3  1  0  0  0  0
  1  4  1  0  0  0  0
  1  5  1  0  0  0  0
  5  6  1  0  0  0  0
  5  7  1  0  0  0  0
  7  8  1  0  0  0  0
  7  9  1  0  0  0  0
  7 10  1  0  0  0  0
  5 11  1  0  0  0  0
 11 12  1  0  0  0  0
 11 13  1  0  0  0  0
 11 14  1  0  0  0  0
 14 15  1  0  0  0  0
 14 16  1  0  0  0  0
 14 17  1  0  0  0  0
 17 18  1  0  0  0  0
 17 19  1  0  0  0  0
 17 20  1  0  0  0  0
M  END
> <VConfSearch Rank>
839

> <Conf_Id>
35

> <Delta U+W>
3.004

> <U+W>
-33.272

> <U>
25.367

> <W>
-58.639

> <W(PB)>
-60.512

> <W(SA)>
1.873

> <Valence>
4.943

> <Coulomb>
19.661

> <VdW>
0.764

> <VdW6>
-5.871

> <VdW12>
6.636

> <Bond>
0.230

> <Angle>
1.857

> <Pdih>
2.855

> <Idih>
0.000

> <Tether>
0.000

$$$$
VeraChem MOL file


 20 19  0  0  0  0  0  0  0  0999 V2000     
   20.3102   20.6267   23.1168 N   0  3  0  0  0  0  0  0  0  0  0  0
   21.0022   21.3161   22.8111 H   0  0  0  0  0  0  0  0  0  0  0  0
   19.9890   20.9093   24.0467 H   0  0  0  0  0  0  0  0  0  0  0  0
   19.5100   20.6894   22.4846 H   0  0  0  0  0  0  0  0  0  0  0  0
   20.8850   19.2368   23.1316 C   0  0  2  0  0  0  0  0  0  0  0  0
   21.7093   19.2723   23.8507 H   0  0  0  0  0  0  0  0  0  0  0  0
   21.4853   18.8629   21.7647 C   0  0  0  0  0  0  0  0  0  0  0  0
   20.7321   18.8976   20.9685 H   0  0  0  0  0  0  0  0  0  0  0  0
   21.9126   17.8529   21.7908 H   0  0  0  0  0  0  0  0  0  0  0  0
   22.2901   19.5577   21.4955 H   0  0  0  0  0  0  0  0  0  0  0  0
   19.8846   18.1715   23.6490 C   0  0  0  0  0  0  0  0  0  0  0  0
   20.4619   17.2781   23.9211 H   0  0  0  0  0  0  0  0  0  0  0  0
   19.4402   18.5274   24.5876 H   0  0  0  0  0  0  0  0  0  0  0  0
   18.7516   17.7279   22.6814 C   0  0  0  0  0  0  0  0  0  0  0  0
   18.1661   16.9438   23.1816 H   0  0  0  0  0  0  0  0  0  0  0  0
   19.1781   17.2519   21.7881 H   0  0  0  0  0  0  0  0  0  0  0  0
   17.7859   18.8578   22.2575 C   0  0  0  0  0  0  0  0  0  0  0  0
   17.4094   19.4082   23.1295 H   0  0  0  0  0  0  0  0  0  0  0  0
   16.9193   18.4385   21.7297 H   0  0  0  0  0  0  0  0  0  0  0  0
   18.2676   19.5648   21.5725 H   0  0  0  0  0  0  0  0  0  0  0  0
  1  2  1  0  0  0  0
  1  3  1  0  0  0  0
  1  4  1  0  0  0  0
  1  5  1  0  0  0  0
  5  6  1  0  0  0  0
  5  7  1  0  0  0  0
  7  8  1  0  0  0  0
  7  9  1  0  0  0  0
  7 10  1  0  0  0  0
  5 11  1  0  0  0  0
 11 12  1  0  0  0  0
 11 13  1  0  0  0  0
 11 14  1  0  0  0  0
 14 15  1  0  0  0  0
 14 16  1  0  0  0  0
 14 17  1  0  0  0  0
 17 18  1  0  0  0  0
 17 19  1  0  0  0  0
 17 20  1  0  0  0  0
M  END
> <VConfSearch Rank>
840

> <Conf_Id>
55

> <Delta U+W>
2.767

> <U+W>
-33.509

> <U>
24.552

> <W>
-58.061

> <W(PB)>
-59.930

> <W(SA)>
1.869

> <Valence>
3.726

> <Coulomb>
20.219

> <VdW>
0.606

> <VdW6>
-6.395

> <VdW12>
7.001

> <Bond>
0.241

> <Angle>
2.098

> <Pdih>
1.387

> <Idih>
0.000

> <Tether>
0.000

$$$$
VeraChem MOL file


 20 19  0  0  0  0  0  0  0  0999 V2000     
   18.6595   17.8944   23.9758 N   0  3  0  0  0  0  0  0  0  0  0  0
   19.3584   17.8109   24.7183 H   0  0  0  0  0  0  0  0  0  0  0  0
   18.0134   17.1069   24.0750 H   0  0  0  0  0  0  0  0  0  0  0  0
   18.1255   18.7492   24.1509 H   0  0  0  0  0  0  0  0  0  0  0  0
   19.3008   17.9128   22.6144 C   0  0  2  0  0  0  0  0  0  0  0  0
   18.4898   18.0078   21.8856 H   0  0  0  0  0  0  0  0  0  0  0  0
   20.0362   16.5895   22.3460 C   0  0  0  0  0  0  0  0  0  0  0  0
   19.3509   15.7381   22.4402 H   0  0  0  0  0  0  0  0  0  0  0  0
   20.8622   16.4432   23.0532 H   0  0  0  0  0  0  0  0  0  0  0  0
   20.4495   16.5720   21.3299 H   0  0  0  0  0  0  0  0  0  0  0  0
   20.2610   19.1082   22.4267 C   0  0  0  0  0  0  0  0  0  0  0  0
   21.0732   19.0494   23.1634 H   0  0  0  0  0  0  0  0  0  0  0  0
   20.7306   19.0331   21.4368 H   0  0  0  0  0  0  0  0  0  0  0  0
   19.5509   20.4788   22.5391 C   0  0  0  0  0  0  0  0  0  0  0  0
   19.1200   20.6023   23.5419 H   0  0  0  0  0  0  0  0  0  0  0  0
   18.7155   20.5227   21.8260 H   0  0  0  0  0  0  0  0  0  0  0  0
   20.5208   21.6476   22.2623 C   0  0  0  0  0  0  0  0  0  0  0  0
   21.3523   21.6490   22.9792 H   0  0  0  0  0  0  0  0  0  0  0  0
   20.0015   22.6109   22.3476 H   0  0  0  0  0  0  0  0  0  0  0  0
   20.9420   21.5812   21.2506 H   0  0  0  0  0  0  0  0  0  0  0  0
  1  2  1  0  0  0  0
  1  3  1  0  0  0  0
  1  4  1  0  0  0  0
  1  5  1  0  0  0  0
  5  6  1  0  0  0  0
  5  7  1  0  0  0  0
  7  8  1  0  0  0  0
  7  9  1  0  0  0  0
  7 10  1  0  0  0  0
  5 11  1  0  0  0  0
 11 12  1  0  0  0  0
 11 13  1  0  0  0  0
 11 14  1  0  0  0  0
 14 15  1  0  0  0  0
 14 16  1  0  0  0  0
 14 17  1  0  0  0  0
 17 18  1  0  0  0  0
 17 19  1  0  0  0  0
 17 20  1  0  0  0  0
M  END
> <VConfSearch Rank>
841

> <Conf_Id>
74

> <Delta U+W>
0.000

> <U+W>
-36.276

> <U>
22.080

> <W>
-58.356

> <W(PB)>
-60.289

> <W(SA)>
1.932

> <Valence>
1.885

> <Coulomb>
19.559

> <VdW>
0.637

> <VdW6>
-4.482

> <VdW12>
5.119

> <Bond>
0.136

> <Angle>
0.867

> <Pdih>
0.882

> <Idih>
0.000

> <Tether>
0.000

$$$$
VeraChem MOL file


 20 19  0  0  0  0  0  0  0  0999 V2000     
   18.7407   17.2752   24.1243 N   0  3  0  0  0  0  0  0  0  0  0  0
   19.2186   17.4399   25.0145 H   0  0  0  0  0  0  0  0  0  0  0  0
   19.1665   16.4492   23.6963 H   0  0  0  0  0  0  0  0  0  0  0  0
   17.7692   17.0381   24.3424 H   0  0  0  0  0  0  0  0  0  0  0  0
   18.8253   18.4729   23.2183 C   0  0  2  0  0  0  0  0  0  0  0  0
   18.3467   19.2987   23.7539 H   0  0  0  0  0  0  0  0  0  0  0  0
   18.0398   18.2160   21.9191 C   0  0  0  0  0  0  0  0  0  0  0  0
   17.0164   17.8917   22.1442 H   0  0  0  0  0  0  0  0  0  0  0  0
   18.5179   17.4362   21.3135 H   0  0  0  0  0  0  0  0  0  0  0  0
   17.9643   19.1252   21.3118 H   0  0  0  0  0  0  0  0  0  0  0  0
   20.2961   18.8631   22.9429 C   0  0  0  0  0  0  0  0  0  0  0  0
   20.8248   18.9249   23.9033 H   0  0  0  0  0  0  0  0  0  0  0  0
   20.7884   18.0673   22.3682 H   0  0  0  0  0  0  0  0  0  0  0  0
   20.4570   20.2150   22.2056 C   0  0  0  0  0  0  0  0  0  0  0  0
   19.9111   21.0001   22.7476 H   0  0  0  0  0  0  0  0  0  0  0  0
   20.0169   20.1562   21.2012 H   0  0  0  0  0  0  0  0  0  0  0  0
   21.9411   20.6203   22.0762 C   0  0  0  0  0  0  0  0  0  0  0  0
   22.4084   20.7325   23.0633 H   0  0  0  0  0  0  0  0  0  0  0  0
   22.0369   21.5781   21.5484 H   0  0  0  0  0  0  0  0  0  0  0  0
   22.5083   19.8676   21.5132 H   0  0  0  0  0  0  0  0  0  0  0  0
  1  2  1  0  0  0  0
  1  3  1  0  0  0  0
  1  4  1  0  0  0  0
  1  5  1  0  0  0  0
  5  6  1  0  0  0  0
  5  7  1  0  0  0  0
  7  8  1  0  0  0  0
  7  9  1  0  0  0  0
  7 10  1  0  0  0  0
  5 11  1  0  0  0  0
 11 12  1  0  0  0  0
 11 13  1  0  0  0  0
 11 14  1  0  0  0  0
 14 15  1  0  0  0  0
 14 16  1  0  0  0  0
 14 17  1  0  0  0  0
 17 18  1  0  0  0  0
 17 19  1  0  0  0  0
 17 20  1  0  0  0  0
M  END
> <VConfSearch Rank>
842

> <Conf_Id>
80

> <Delta U+W>
0.460

> <U+W>
-35.817

> <U>
22.495

> <W>
-58.311

> <W(PB)>
-60.259

> <W(SA)>
1.948

> <Valence>
2.419

> <Coulomb>
19.304

> <VdW>
0.772

> <VdW6>
-4.635

> <VdW12>
5.407

> <Bond>
0.149

> <Angle>
1.142

> <Pdih>
1.129

> <Idih>
0.000

> <Tether>
0.000

$$$$
VeraChem MOL file


 20 19  0  0  0  0  0  0  0  0999 V2000     
   21.4307   17.4025   21.8564 N   0  3  0  0  0  0  0  0  0  0  0  0
   21.0315   16.7529   21.1735 H   0  0  0  0  0  0  0  0  0  0  0  0
   21.5566   16.8879   22.7317 H   0  0  0  0  0  0  0  0  0  0  0  0
   22.3618   17.6610   21.5191 H   0  0  0  0  0  0  0  0  0  0  0  0
   20.5586   18.6130   22.0482 C   0  0  2  0  0  0  0  0  0  0  0  0
   20.4876   19.0973   21.0693 H   0  0  0  0  0  0  0  0  0  0  0  0
   21.2244   19.5998   23.0224 C   0  0  0  0  0  0  0  0  0  0  0  0
   22.2623   19.7959   22.7265 H   0  0  0  0  0  0  0  0  0  0  0  0
   21.2305   19.2057   24.0462 H   0  0  0  0  0  0  0  0  0  0  0  0
   20.7030   20.5637   23.0222 H   0  0  0  0  0  0  0  0  0  0  0  0
   19.1308   18.2054   22.4869 C   0  0  0  0  0  0  0  0  0  0  0  0
   18.7567   17.4774   21.7550 H   0  0  0  0  0  0  0  0  0  0  0  0
   19.1663   17.6724   23.4463 H   0  0  0  0  0  0  0  0  0  0  0  0
   18.1090   19.3709   22.5579 C   0  0  0  0  0  0  0  0  0  0  0  0
   17.1317   19.0012   22.2168 H   0  0  0  0  0  0  0  0  0  0  0  0
   18.3901   20.1689   21.8563 H   0  0  0  0  0  0  0  0  0  0  0  0
   17.9290   19.9450   23.9830 C   0  0  0  0  0  0  0  0  0  0  0  0
   17.5749   19.1705   24.6757 H   0  0  0  0  0  0  0  0  0  0  0  0
   17.1858   20.7529   23.9805 H   0  0  0  0  0  0  0  0  0  0  0  0
   18.8625   20.3546   24.3847 H   0  0  0  0  0  0  0  0  0  0  0  0
  1  2  1  0  0  0  0
  1  3  1  0  0  0  0
  1  4  1  0  0  0  0
  1  5  1  0  0  0  0
  5  6  1  0  0  0  0
  5  7  1  0  0  0  0
  7  8  1  0  0  0  0
  7  9  1  0  0  0  0
  7 10  1  0  0  0  0
  5 11  1  0  0  0  0
 11 12  1  0  0  0  0
 11 13  1  0  0  0  0
 11 14  1  0  0  0  0
 14 15  1  0  0  0  0
 14 16  1  0  0  0  0
 14 17  1  0  0  0  0
 17 18  1  0  0  0  0
 17 19  1  0  0  0  0
 17 20  1  0  0  0  0
M  END
> <VConfSearch Rank>
843

> <Conf_Id>
52

> <Delta U+W>
2.995

> <U+W>
-33.282

> <U>
25.224

> <W>
-58.506

> <W(PB)>
-60.411

> <W(SA)>
1.905

> <Valence>
4.945

> <Coulomb>
19.467

> <VdW>
0.813

> <VdW6>
-5.458

> <VdW12>
6.270

> <Bond>
0.200

> <Angle>
1.675

> <Pdih>
3.070

> <Idih>
0.000

> <Tether>
0.000

$$$$
VeraChem MOL file


 20 19  0  0  0  0  0  0  0  0999 V2000     
   21.0010   19.9642   22.3287 N   0  3  0  0  0  0  0  0  0  0  0  0
   21.3315   19.5857   21.4377 H   0  0  0  0  0  0  0  0  0  0  0  0
   21.7690   20.5050   22.7353 H   0  0  0  0  0  0  0  0  0  0  0  0
   20.2406   20.6152   22.1212 H   0  0  0  0  0  0  0  0  0  0  0  0
   20.5453   18.8695   23.2545 C   0  0  2  0  0  0  0  0  0  0  0  0
   20.2545   19.3444   24.1967 H   0  0  0  0  0  0  0  0  0  0  0  0
   21.7120   17.9089   23.5403 C   0  0  0  0  0  0  0  0  0  0  0  0
   22.0336   17.3920   22.6275 H   0  0  0  0  0  0  0  0  0  0  0  0
   21.4226   17.1507   24.2786 H   0  0  0  0  0  0  0  0  0  0  0  0
   22.5734   18.4534   23.9464 H   0  0  0  0  0  0  0  0  0  0  0  0
   19.3262   18.0896   22.7069 C   0  0  0  0  0  0  0  0  0  0  0  0
   19.4965   17.8178   21.6568 H   0  0  0  0  0  0  0  0  0  0  0  0
   19.2444   17.1400   23.2526 H   0  0  0  0  0  0  0  0  0  0  0  0
   17.9661   18.8208   22.8558 C   0  0  0  0  0  0  0  0  0  0  0  0
   17.7815   19.0471   23.9153 H   0  0  0  0  0  0  0  0  0  0  0  0
   17.1697   18.1270   22.5517 H   0  0  0  0  0  0  0  0  0  0  0  0
   17.8294   20.1142   22.0206 C   0  0  0  0  0  0  0  0  0  0  0  0
   16.7863   20.4565   22.0206 H   0  0  0  0  0  0  0  0  0  0  0  0
   18.1243   19.9487   20.9762 H   0  0  0  0  0  0  0  0  0  0  0  0
   18.4324   20.9297   22.4365 H   0  0  0  0  0  0  0  0  0  0  0  0
  1  2  1  0  0  0  0
  1  3  1  0  0  0  0
  1  4  1  0  0  0  0
  1  5  1  0  0  0  0
  5  6  1  0  0  0  0
  5  7  1  0  0  0  0
  7  8  1  0  0  0  0
  7  9  1  0  0  0  0
  7 10  1  0  0  0  0
  5 11  1  0  0  0  0
 11 12  1  0  0  0  0
 11 13  1  0  0  0  0
 11 14  1  0  0  0  0
 14 15  1  0  0  0  0
 14 16  1  0  0  0  0
 14 17  1  0  0  0  0
 17 18  1  0  0  0  0
 17 19  1  0  0  0  0
 17 20  1  0  0  0  0
M  END
> <VConfSearch Rank>
844

> <Conf_Id>
54

> <Delta U+W>
2.752

> <U+W>
-33.525

> <U>
24.337

> <W>
-57.862

> <W(PB)>
-59.764

> <W(SA)>
1.901

> <Valence>
3.593

> <Coulomb>
20.067

> <VdW>
0.677

> <VdW6>
-5.466

> <VdW12>
6.144

> <Bond>
0.191

> <Angle>
1.557

> <Pdih>
1.845

> <Idih>
0.000

> <Tether>
0.000

$$$$
VeraChem MOL file


 20 19  0  0  0  0  0  0  0  0999 V2000     
   19.8830   17.8611   24.4448 N   0  3  0  0  0  0  0  0  0  0  0  0
   19.3372   17.4237   25.1921 H   0  0  0  0  0  0  0  0  0  0  0  0
   20.7811   18.1406   24.8485 H   0  0  0  0  0  0  0  0  0  0  0  0
   20.0719   17.1415   23.7434 H   0  0  0  0  0  0  0  0  0  0  0  0
   19.1561   19.0348   23.8466 C   0  0  2  0  0  0  0  0  0  0  0  0
   18.9853   19.7363   24.6693 H   0  0  0  0  0  0  0  0  0  0  0  0
   17.7791   18.6139   23.3030 C   0  0  0  0  0  0  0  0  0  0  0  0
   17.2532   19.4718   22.8662 H   0  0  0  0  0  0  0  0  0  0  0  0
   17.1527   18.2171   24.1112 H   0  0  0  0  0  0  0  0  0  0  0  0
   17.8660   17.8363   22.5349 H   0  0  0  0  0  0  0  0  0  0  0  0
   20.0005   19.7751   22.7817 C   0  0  0  0  0  0  0  0  0  0  0  0
   19.4512   20.6675   22.4537 H   0  0  0  0  0  0  0  0  0  0  0  0
   20.9166   20.1448   23.2609 H   0  0  0  0  0  0  0  0  0  0  0  0
   20.3825   18.9251   21.5424 C   0  0  0  0  0  0  0  0  0  0  0  0
   19.4777   18.5884   21.0188 H   0  0  0  0  0  0  0  0  0  0  0  0
   20.9251   18.0225   21.8541 H   0  0  0  0  0  0  0  0  0  0  0  0
   21.2610   19.7245   20.5563 C   0  0  0  0  0  0  0  0  0  0  0  0
   21.5214   19.1111   19.6839 H   0  0  0  0  0  0  0  0  0  0  0  0
   22.1965   20.0468   21.0319 H   0  0  0  0  0  0  0  0  0  0  0  0
   20.7360   20.6182   20.1944 H   0  0  0  0  0  0  0  0  0  0  0  0
  1  2  1  0  0  0  0
  1  3  1  0  0  0  0
  1  4  1  0  0  0  0
  1  5  1  0  0  0  0
  5  6  1  0  0  0  0
  5  7  1  0  0  0  0
  7  8  1  0  0  0  0
  7  9  1  0  0  0  0
  7 10  1  0  0  0  0
  5 11  1  0  0  0  0
 11 12  1  0  0  0  0
 11 13  1  0  0  0  0
 11 14  1  0  0  0  0
 14 15  1  0  0  0  0
 14 16  1  0  0  0  0
 14 17  1  0  0  0  0
 17 18  1  0  0  0  0
 17 19  1  0  0  0  0
 17 20  1  0  0  0  0
M  END
> <VConfSearch Rank>
845

> <Conf_Id>
63

> <Delta U+W>
0.420

> <U+W>
-35.856

> <U>
22.625

> <W>
-58.481

> <W(PB)>
-60.400

> <W(SA)>
1.919

> <Valence>
2.404

> <Coulomb>
19.464

> <VdW>
0.757

> <VdW6>
-5.074

> <VdW12>
5.830

> <Bond>
0.172

> <Angle>
1.207

> <Pdih>
1.025

> <Idih>
0.000

> <Tether>
0.000

$$$$
VeraChem MOL file


 20 19  0  0  0  0  0  0  0  0999 V2000     
   18.9564   20.5355   23.1936 N   0  3  0  0  0  0  0  0  0  0  0  0
   19.9193   20.8320   23.3716 H   0  0  0  0  0  0  0  0  0  0  0  0
   18.4826   20.4683   24.0977 H   0  0  0  0  0  0  0  0  0  0  0  0
   18.4995   21.2824   22.6635 H   0  0  0  0  0  0  0  0  0  0  0  0
   18.9154   19.2273   22.4512 C   0  0  2  0  0  0  0  0  0  0  0  0
   19.4371   19.3871   21.5028 H   0  0  0  0  0  0  0  0  0  0  0  0
   17.4649   18.8261   22.1374 C   0  0  0  0  0  0  0  0  0  0  0  0
   16.9610   19.6111   21.5603 H   0  0  0  0  0  0  0  0  0  0  0  0
   16.8913   18.6566   23.0572 H   0  0  0  0  0  0  0  0  0  0  0  0
   17.4354   17.9051   21.5419 H   0  0  0  0  0  0  0  0  0  0  0  0
   19.6346   18.0919   23.2145 C   0  0  0  0  0  0  0  0  0  0  0  0
   19.1151   17.9050   24.1637 H   0  0  0  0  0  0  0  0  0  0  0  0
   19.5540   17.1637   22.6331 H   0  0  0  0  0  0  0  0  0  0  0  0
   21.1320   18.3692   23.5023 C   0  0  0  0  0  0  0  0  0  0  0  0
   21.5507   17.5122   24.0483 H   0  0  0  0  0  0  0  0  0  0  0  0
   21.2366   19.2335   24.1721 H   0  0  0  0  0  0  0  0  0  0  0  0
   21.9630   18.5999   22.2195 C   0  0  0  0  0  0  0  0  0  0  0  0
   21.8741   17.7475   21.5333 H   0  0  0  0  0  0  0  0  0  0  0  0
   23.0258   18.7209   22.4664 H   0  0  0  0  0  0  0  0  0  0  0  0
   21.6426   19.5038   21.6864 H   0  0  0  0  0  0  0  0  0  0  0  0
  1  2  1  0  0  0  0
  1  3  1  0  0  0  0
  1  4  1  0  0  0  0
  1  5  1  0  0  0  0
  5  6  1  0  0  0  0
  5  7  1  0  0  0  0
  7  8  1  0  0  0  0
  7  9  1  0  0  0  0
  7 10  1  0  0  0  0
  5 11  1  0  0  0  0
 11 12  1  0  0  0  0
 11 13  1  0  0  0  0
 11 14  1  0  0  0  0
 14 15  1  0  0  0  0
 14 16  1  0  0  0  0
 14 17  1  0  0  0  0
 17 18  1  0  0  0  0
 17 19  1  0  0  0  0
 17 20  1  0  0  0  0
M  END
> <VConfSearch Rank>
846

> <Conf_Id>
50

> <Delta U+W>
0.466

> <U+W>
-35.811

> <U>
22.369

> <W>
-58.180

> <W(PB)>
-60.103

> <W(SA)>
1.923

> <Valence>
2.168

> <Coulomb>
19.636

> <VdW>
0.566

> <VdW6>
-5.263

> <VdW12>
5.829

> <Bond>
0.162

> <Angle>
1.066

> <Pdih>
0.939

> <Idih>
0.000

> <Tether>
0.000

$$$$
VeraChem MOL file


 20 19  0  0  0  0  0  0  0  0999 V2000     
   18.9043   16.8717   21.9737 N   0  3  0  0  0  0  0  0  0  0  0  0
   19.3709   16.7448   21.0714 H   0  0  0  0  0  0  0  0  0  0  0  0
   17.9060   16.9981   21.7882 H   0  0  0  0  0  0  0  0  0  0  0  0
   19.0087   15.9962   22.4936 H   0  0  0  0  0  0  0  0  0  0  0  0
   19.4768   18.0363   22.7357 C   0  0  2  0  0  0  0  0  0  0  0  0
   20.5382   17.8127   22.8816 H   0  0  0  0  0  0  0  0  0  0  0  0
   18.8012   18.1464   24.1153 C   0  0  0  0  0  0  0  0  0  0  0  0
   17.7232   18.3239   24.0144 H   0  0  0  0  0  0  0  0  0  0  0  0
   19.2230   18.9667   24.7062 H   0  0  0  0  0  0  0  0  0  0  0  0
   18.9399   17.2214   24.6883 H   0  0  0  0  0  0  0  0  0  0  0  0
   19.3684   19.3589   21.9375 C   0  0  0  0  0  0  0  0  0  0  0  0
   19.1817   19.1267   20.8807 H   0  0  0  0  0  0  0  0  0  0  0  0
   18.4969   19.9380   22.2711 H   0  0  0  0  0  0  0  0  0  0  0  0
   20.6453   20.2350   21.9984 C   0  0  0  0  0  0  0  0  0  0  0  0
   20.5040   21.1069   21.3443 H   0  0  0  0  0  0  0  0  0  0  0  0
   21.4947   19.6757   21.5816 H   0  0  0  0  0  0  0  0  0  0  0  0
   21.0047   20.7310   23.4165 C   0  0  0  0  0  0  0  0  0  0  0  0
   20.1597   21.2582   23.8781 H   0  0  0  0  0  0  0  0  0  0  0  0
   21.8518   21.4280   23.3756 H   0  0  0  0  0  0  0  0  0  0  0  0
   21.2964   19.8995   24.0701 H   0  0  0  0  0  0  0  0  0  0  0  0
  1  2  1  0  0  0  0
  1  3  1  0  0  0  0
  1  4  1  0  0  0  0
  1  5  1  0  0  0  0
  5  6  1  0  0  0  0
  5  7  1  0  0  0  0
  7  8  1  0  0  0  0
  7  9  1  0  0  0  0
  7 10  1  0  0  0  0
  5 11  1  0  0  0  0
 11 12  1  0  0  0  0
 11 13  1  0  0  0  0
 11 14  1  0  0  0  0
 14 15  1  0  0  0  0
 14 16  1  0  0  0  0
 14 17  1  0  0  0  0
 17 18  1  0  0  0  0
 17 19  1  0  0  0  0
 17 20  1  0  0  0  0
M  END
> <VConfSearch Rank>
847

> <Conf_Id>
3

> <Delta U+W>
3.093

> <U+W>
-33.184

> <U>
25.256

> <W>
-58.439

> <W(PB)>
-60.337

> <W(SA)>
1.898

> <Valence>
4.963

> <Coulomb>
19.511

> <VdW>
0.782

> <VdW6>
-5.429

> <VdW12>
6.211

> <Bond>
0.174

> <Angle>
1.377

> <Pdih>
3.412

> <Idih>
0.000

> <Tether>
0.000

$$$$
VeraChem MOL file


 20 19  0  0  0  0  0  0  0  0999 V2000     
   21.1414   20.6609   22.4651 N   0  3  0  0  0  0  0  0  0  0  0  0
   22.1082   20.5245   22.1579 H   0  0  0  0  0  0  0  0  0  0  0  0
   21.1768   21.1040   23.3872 H   0  0  0  0  0  0  0  0  0  0  0  0
   20.7091   21.3280   21.8211 H   0  0  0  0  0  0  0  0  0  0  0  0
   20.3866   19.3604   22.5024 C   0  0  2  0  0  0  0  0  0  0  0  0
   20.9204   18.7163   23.2076 H   0  0  0  0  0  0  0  0  0  0  0  0
   20.4088   18.6884   21.1175 C   0  0  0  0  0  0  0  0  0  0  0  0
   19.9858   17.6780   21.1589 H   0  0  0  0  0  0  0  0  0  0  0  0
   21.4379   18.5943   20.7497 H   0  0  0  0  0  0  0  0  0  0  0  0
   19.8373   19.2708   20.3843 H   0  0  0  0  0  0  0  0  0  0  0  0
   18.9449   19.5645   23.0262 C   0  0  0  0  0  0  0  0  0  0  0  0
   18.9904   20.1172   23.9738 H   0  0  0  0  0  0  0  0  0  0  0  0
   18.3914   20.2048   22.3266 H   0  0  0  0  0  0  0  0  0  0  0  0
   18.1422   18.2593   23.2612 C   0  0  0  0  0  0  0  0  0  0  0  0
   17.9619   17.7452   22.3076 H   0  0  0  0  0  0  0  0  0  0  0  0
   17.1494   18.5225   23.6523 H   0  0  0  0  0  0  0  0  0  0  0  0
   18.8313   17.2945   24.2529 C   0  0  0  0  0  0  0  0  0  0  0  0
   19.0245   17.7879   25.2143 H   0  0  0  0  0  0  0  0  0  0  0  0
   19.7862   16.9249   23.8584 H   0  0  0  0  0  0  0  0  0  0  0  0
   18.1938   16.4220   24.4465 H   0  0  0  0  0  0  0  0  0  0  0  0
  1  2  1  0  0  0  0
  1  3  1  0  0  0  0
  1  4  1  0  0  0  0
  1  5  1  0  0  0  0
  5  6  1  0  0  0  0
  5  7  1  0  0  0  0
  7  8  1  0  0  0  0
  7  9  1  0  0  0  0
  7 10  1  0  0  0  0
  5 11  1  0  0  0  0
 11 12  1  0  0  0  0
 11 13  1  0  0  0  0
 11 14  1  0  0  0  0
 14 15  1  0  0  0  0
 14 16  1  0  0  0  0
 14 17  1  0  0  0  0
 17 18  1  0  0  0  0
 17 19  1  0  0  0  0
 17 20  1  0  0  0  0
M  END
> <VConfSearch Rank>
848

> <Conf_Id>
64

> <Delta U+W>
0.544

> <U+W>
-35.732

> <U>
22.800

> <W>
-58.532

> <W(PB)>
-60.437

> <W(SA)>
1.905

> <Valence>
2.662

> <Coulomb>
19.485

> <VdW>
0.653

> <VdW6>
-5.460

> <VdW12>
6.113

> <Bond>
0.174

> <Angle>
1.378

> <Pdih>
1.109

> <Idih>
0.000

> <Tether>
0.000

$$$$
VeraChem MOL file


 20 19  0  0  0  0  0  0  0  0999 V2000     
   19.1432   17.2802   23.8652 N   0  3  0  0  0  0  0  0  0  0  0  0
   20.0106   17.5465   24.3363 H   0  0  0  0  0  0  0  0  0  0  0  0
   19.1648   16.2651   23.7361 H   0  0  0  0  0  0  0  0  0  0  0  0
   18.3705   17.4885   24.5034 H   0  0  0  0  0  0  0  0  0  0  0  0
   18.9862   17.9988   22.5523 C   0  0  2  0  0  0  0  0  0  0  0  0
   18.0439   17.6406   22.1260 H   0  0  0  0  0  0  0  0  0  0  0  0
   20.1088   17.6095   21.5767 C   0  0  0  0  0  0  0  0  0  0  0  0
   21.0985   17.8172   21.9998 H   0  0  0  0  0  0  0  0  0  0  0  0
   20.0113   18.1557   20.6304 H   0  0  0  0  0  0  0  0  0  0  0  0
   20.0627   16.5377   21.3481 H   0  0  0  0  0  0  0  0  0  0  0  0
   18.8465   19.5315   22.7322 C   0  0  0  0  0  0  0  0  0  0  0  0
   18.5614   19.9861   21.7744 H   0  0  0  0  0  0  0  0  0  0  0  0
   17.9925   19.7067   23.3996 H   0  0  0  0  0  0  0  0  0  0  0  0
   20.0819   20.2696   23.3188 C   0  0  0  0  0  0  0  0  0  0  0  0
   20.6407   19.6167   24.0020 H   0  0  0  0  0  0  0  0  0  0  0  0
   19.7245   21.1085   23.9325 H   0  0  0  0  0  0  0  0  0  0  0  0
   21.0284   20.8449   22.2390 C   0  0  0  0  0  0  0  0  0  0  0  0
   21.4638   20.0607   21.6102 H   0  0  0  0  0  0  0  0  0  0  0  0
   21.8576   21.3907   22.7077 H   0  0  0  0  0  0  0  0  0  0  0  0
   20.4968   21.5477   21.5845 H   0  0  0  0  0  0  0  0  0  0  0  0
  1  2  1  0  0  0  0
  1  3  1  0  0  0  0
  1  4  1  0  0  0  0
  1  5  1  0  0  0  0
  5  6  1  0  0  0  0
  5  7  1  0  0  0  0
  7  8  1  0  0  0  0
  7  9  1  0  0  0  0
  7 10  1  0  0  0  0
  5 11  1  0  0  0  0
 11 12  1  0  0  0  0
 11 13  1  0  0  0  0
 11 14  1  0  0  0  0
 14 15  1  0  0  0  0
 14 16  1  0  0  0  0
 14 17  1  0  0  0  0
 17 18  1  0  0  0  0
 17 19  1  0  0  0  0
 17 20  1  0  0  0  0
M  END
> <VConfSearch Rank>
849

> <Conf_Id>
35

> <Delta U+W>
3.004

> <U+W>
-33.272

> <U>
25.367

> <W>
-58.639

> <W(PB)>
-60.512

> <W(SA)>
1.873

> <Valence>
4.943

> <Coulomb>
19.661

> <VdW>
0.764

> <VdW6>
-5.871

> <VdW12>
6.636

> <Bond>
0.230

> <Angle>
1.857

> <Pdih>
2.855

> <Idih>
0.000

> <Tether>
0.000

$$$$
VeraChem MOL file


 20 19  0  0  0  0  0  0  0  0999 V2000     
   21.4732   18.5350   22.2464 N   0  3  0  0  0  0  0  0  0  0  0  0
   21.9922   17.7082   21.9386 H   0  0  0  0  0  0  0  0  0  0  0  0
   22.1584   19.2172   22.5821 H   0  0  0  0  0  0  0  0  0  0  0  0
   21.0171   18.9379   21.4257 H   0  0  0  0  0  0  0  0  0  0  0  0
   20.4700   18.1915   23.3132 C   0  0  2  0  0  0  0  0  0  0  0  0
   21.0585   17.7967   24.1473 H   0  0  0  0  0  0  0  0  0  0  0  0
   19.5208   17.0714   22.8516 C   0  0  0  0  0  0  0  0  0  0  0  0
   18.9597   17.3600   21.9549 H   0  0  0  0  0  0  0  0  0  0  0  0
   18.8023   16.8204   23.6417 H   0  0  0  0  0  0  0  0  0  0  0  0
   20.0862   16.1618   22.6152 H   0  0  0  0  0  0  0  0  0  0  0  0
   19.7064   19.4293   23.8498 C   0  0  0  0  0  0  0  0  0  0  0  0
   19.2481   19.1478   24.8070 H   0  0  0  0  0  0  0  0  0  0  0  0
   20.4320   20.2157   24.0952 H   0  0  0  0  0  0  0  0  0  0  0  0
   18.5905   20.0256   22.9465 C   0  0  0  0  0  0  0  0  0  0  0  0
   18.1241   20.8595   23.4895 H   0  0  0  0  0  0  0  0  0  0  0  0
   17.7898   19.2892   22.7940 H   0  0  0  0  0  0  0  0  0  0  0  0
   19.0803   20.5518   21.5782 C   0  0  0  0  0  0  0  0  0  0  0  0
   19.9388   21.2259   21.6948 H   0  0  0  0  0  0  0  0  0  0  0  0
   18.2807   21.1151   21.0798 H   0  0  0  0  0  0  0  0  0  0  0  0
   19.3614   19.7318   20.9075 H   0  0  0  0  0  0  0  0  0  0  0  0
  1  2  1  0  0  0  0
  1  3  1  0  0  0  0
  1  4  1  0  0  0  0
  1  5  1  0  0  0  0
  5  6  1  0  0  0  0
  5  7  1  0  0  0  0
  7  8  1  0  0  0  0
  7  9  1  0  0  0  0
  7 10  1  0  0  0  0
  5 11  1  0  0  0  0
 11 12  1  0  0  0  0
 11 13  1  0  0  0  0
 11 14  1  0  0  0  0
 14 15  1  0  0  0  0
 14 16  1  0  0  0  0
 14 17  1  0  0  0  0
 17 18  1  0  0  0  0
 17 19  1  0  0  0  0
 17 20  1  0  0  0  0
M  END
> <VConfSearch Rank>
850

> <Conf_Id>
55

> <Delta U+W>
2.767

> <U+W>
-33.509

> <U>
24.552

> <W>
-58.061

> <W(PB)>
-59.930

> <W(SA)>
1.869

> <Valence>
3.726

> <Coulomb>
20.219

> <VdW>
0.606

> <VdW6>
-6.395

> <VdW12>
7.001

> <Bond>
0.241

> <Angle>
2.098

> <Pdih>
1.387

> <Idih>
0.000

> <Tether>
0.000

$$$$
VeraChem MOL file


 20 19  0  0  0  0  0  0  0  0999 V2000     
   21.5553   18.4758   23.3367 N   0  3  0  0  0  0  0  0  0  0  0  0
   21.3602   17.5007   23.5771 H   0  0  0  0  0  0  0  0  0  0  0  0
   22.3621   18.7716   23.8927 H   0  0  0  0  0  0  0  0  0  0  0  0
   21.8385   18.4996   22.3540 H   0  0  0  0  0  0  0  0  0  0  0  0
   20.3604   19.3555   23.5886 C   0  0  2  0  0  0  0  0  0  0  0  0
   20.6516   20.3713   23.3036 H   0  0  0  0  0  0  0  0  0  0  0  0
   19.9988   19.3602   25.0830 C   0  0  0  0  0  0  0  0  0  0  0  0
   20.8538   19.6849   25.6887 H   0  0  0  0  0  0  0  0  0  0  0  0
   19.6993   18.3608   25.4226 H   0  0  0  0  0  0  0  0  0  0  0  0
   19.1699   20.0509   25.2816 H   0  0  0  0  0  0  0  0  0  0  0  0
   19.1348   18.9490   22.7409 C   0  0  0  0  0  0  0  0  0  0  0  0
   18.8361   17.9223   22.9912 H   0  0  0  0  0  0  0  0  0  0  0  0
   18.2884   19.5952   23.0094 H   0  0  0  0  0  0  0  0  0  0  0  0
   19.3865   19.0640   21.2181 C   0  0  0  0  0  0  0  0  0  0  0  0
   20.1933   18.3835   20.9140 H   0  0  0  0  0  0  0  0  0  0  0  0
   19.7200   20.0824   20.9738 H   0  0  0  0  0  0  0  0  0  0  0  0
   18.1173   18.7329   20.4040 C   0  0  0  0  0  0  0  0  0  0  0  0
   17.7759   17.7088   20.6038 H   0  0  0  0  0  0  0  0  0  0  0  0
   18.3140   18.8180   19.3274 H   0  0  0  0  0  0  0  0  0  0  0  0
   17.2980   19.4206   20.6514 H   0  0  0  0  0  0  0  0  0  0  0  0
  1  2  1  0  0  0  0
  1  3  1  0  0  0  0
  1  4  1  0  0  0  0
  1  5  1  0  0  0  0
  5  6  1  0  0  0  0
  5  7  1  0  0  0  0
  7  8  1  0  0  0  0
  7  9  1  0  0  0  0
  7 10  1  0  0  0  0
  5 11  1  0  0  0  0
 11 12  1  0  0  0  0
 11 13  1  0  0  0  0
 11 14  1  0  0  0  0
 14 15  1  0  0  0  0
 14 16  1  0  0  0  0
 14 17  1  0  0  0  0
 17 18  1  0  0  0  0
 17 19  1  0  0  0  0
 17 20  1  0  0  0  0
M  END
> <VConfSearch Rank>
851

> <Conf_Id>
74

> <Delta U+W>
0.000

> <U+W>
-36.276

> <U>
22.080

> <W>
-58.356

> <W(PB)>
-60.289

> <W(SA)>
1.932

> <Valence>
1.885

> <Coulomb>
19.559

> <VdW>
0.637

> <VdW6>
-4.482

> <VdW12>
5.119

> <Bond>
0.136

> <Angle>
0.867

> <Pdih>
0.882

> <Idih>
0.000

> <Tether>
0.000

$$$$
VeraChem MOL file


 20 19  0  0  0  0  0  0  0  0999 V2000     
   19.4888   20.6122   21.0360 N   0  3  0  0  0  0  0  0  0  0  0  0
   19.4580   21.4679   21.5970 H   0  0  0  0  0  0  0  0  0  0  0  0
   18.5289   20.3939   20.7574 H   0  0  0  0  0  0  0  0  0  0  0  0
   20.0112   20.8291   20.1829 H   0  0  0  0  0  0  0  0  0  0  0  0
   20.1173   19.4741   21.7924 C   0  0  2  0  0  0  0  0  0  0  0  0
   21.1331   19.7949   22.0435 H   0  0  0  0  0  0  0  0  0  0  0  0
   20.2094   18.2246   20.8974 C   0  0  0  0  0  0  0  0  0  0  0  0
   20.7053   18.4645   19.9488 H   0  0  0  0  0  0  0  0  0  0  0  0
   19.2134   17.8255   20.6687 H   0  0  0  0  0  0  0  0  0  0  0  0
   20.7956   17.4323   21.3769 H   0  0  0  0  0  0  0  0  0  0  0  0
   19.3594   19.1925   23.1106 C   0  0  0  0  0  0  0  0  0  0  0  0
   19.2343   20.1413   23.6489 H   0  0  0  0  0  0  0  0  0  0  0  0
   18.3485   18.8277   22.8853 H   0  0  0  0  0  0  0  0  0  0  0  0
   20.0799   18.1893   24.0443 C   0  0  0  0  0  0  0  0  0  0  0  0
   21.1128   18.5219   24.2192 H   0  0  0  0  0  0  0  0  0  0  0  0
   20.1395   17.2012   23.5688 H   0  0  0  0  0  0  0  0  0  0  0  0
   19.3520   18.0475   25.3984 C   0  0  0  0  0  0  0  0  0  0  0  0
   19.3092   19.0085   25.9274 H   0  0  0  0  0  0  0  0  0  0  0  0
   19.8736   17.3306   26.0458 H   0  0  0  0  0  0  0  0  0  0  0  0
   18.3241   17.6884   25.2584 H   0  0  0  0  0  0  0  0  0  0  0  0
  1  2  1  0  0  0  0
  1  3  1  0  0  0  0
  1  4  1  0  0  0  0
  1  5  1  0  0  0  0
  5  6  1  0  0  0  0
  5  7  1  0  0  0  0
  7  8  1  0  0  0  0
  7  9  1  0  0  0  0
  7 10  1  0  0  0  0
  5 11  1  0  0  0  0
 11 12  1  0  0  0  0
 11 13  1  0  0  0  0
 11 14  1  0  0  0  0
 14 15  1  0  0  0  0
 14 16  1  0  0  0  0
 14 17  1  0  0  0  0
 17 18  1  0  0  0  0
 17 19  1  0  0  0  0
 17 20  1  0  0  0  0
M  END
> <VConfSearch Rank>
852

> <Conf_Id>
80

> <Delta U+W>
0.460

> <U+W>
-35.817

> <U>
22.495

> <W>
-58.311

> <W(PB)>
-60.259

> <W(SA)>
1.948

> <Valence>
2.419

> <Coulomb>
19.304

> <VdW>
0.772

> <VdW6>
-4.635

> <VdW12>
5.407

> <Bond>
0.149

> <Angle>
1.142

> <Pdih>
1.129

> <Idih>
0.000

> <Tether>
0.000

$$$$
VeraChem MOL file


 20 19  0  0  0  0  0  0  0  0999 V2000     
   20.1010   19.4837   20.4281 N   0  3  0  0  0  0  0  0  0  0  0  0
   19.4816   18.9526   19.8099 H   0  0  0  0  0  0  0  0  0  0  0  0
   21.0309   19.0614   20.3666 H   0  0  0  0  0  0  0  0  0  0  0  0
   20.1710   20.4303   20.0452 H   0  0  0  0  0  0  0  0  0  0  0  0
   19.5939   19.4985   21.8442 C   0  0  2  0  0  0  0  0  0  0  0  0
   18.6064   19.9692   21.8109 H   0  0  0  0  0  0  0  0  0  0  0  0
   20.5071   20.3656   22.7276 C   0  0  0  0  0  0  0  0  0  0  0  0
   20.6753   21.3463   22.2659 H   0  0  0  0  0  0  0  0  0  0  0  0
   21.4832   19.8888   22.8801 H   0  0  0  0  0  0  0  0  0  0  0  0
   20.0496   20.5461   23.7069 H   0  0  0  0  0  0  0  0  0  0  0  0
   19.4215   18.0590   22.3878 C   0  0  0  0  0  0  0  0  0  0  0  0
   18.7893   17.5118   21.6761 H   0  0  0  0  0  0  0  0  0  0  0  0
   20.3874   17.5367   22.3916 H   0  0  0  0  0  0  0  0  0  0  0  0
   18.7530   17.9615   23.7847 C   0  0  0  0  0  0  0  0  0  0  0  0
   18.1030   17.0753   23.8008 H   0  0  0  0  0  0  0  0  0  0  0  0
   18.0913   18.8228   23.9527 H   0  0  0  0  0  0  0  0  0  0  0  0
   19.7682   17.8274   24.9442 C   0  0  0  0  0  0  0  0  0  0  0  0
   20.3839   16.9266   24.8239 H   0  0  0  0  0  0  0  0  0  0  0  0
   19.2445   17.7456   25.9055 H   0  0  0  0  0  0  0  0  0  0  0  0
   20.4416   18.6896   25.0059 H   0  0  0  0  0  0  0  0  0  0  0  0
  1  2  1  0  0  0  0
  1  3  1  0  0  0  0
  1  4  1  0  0  0  0
  1  5  1  0  0  0  0
  5  6  1  0  0  0  0
  5  7  1  0  0  0  0
  7  8  1  0  0  0  0
  7  9  1  0  0  0  0
  7 10  1  0  0  0  0
  5 11  1  0  0  0  0
 11 12  1  0  0  0  0
 11 13  1  0  0  0  0
 11 14  1  0  0  0  0
 14 15  1  0  0  0  0
 14 16  1  0  0  0  0
 14 17  1  0  0  0  0
 17 18  1  0  0  0  0
 17 19  1  0  0  0  0
 17 20  1  0  0  0  0
M  END
> <VConfSearch Rank>
853

> <Conf_Id>
52

> <Delta U+W>
2.995

> <U+W>
-33.282

> <U>
25.224

> <W>
-58.506

> <W(PB)>
-60.411

> <W(SA)>
1.905

> <Valence>
4.945

> <Coulomb>
19.467

> <VdW>
0.813

> <VdW6>
-5.458

> <VdW12>
6.270

> <Bond>
0.200

> <Angle>
1.675

> <Pdih>
3.070

> <Idih>
0.000

> <Tether>
0.000

$$$$
VeraChem MOL file


 20 19  0  0  0  0  0  0  0  0999 V2000     
   18.5741   18.9764   23.8590 N   0  3  0  0  0  0  0  0  0  0  0  0
   18.8447   18.2246   24.4977 H   0  0  0  0  0  0  0  0  0  0  0  0
   17.5677   19.1256   23.9709 H   0  0  0  0  0  0  0  0  0  0  0  0
   19.0489   19.8269   24.1692 H   0  0  0  0  0  0  0  0  0  0  0  0
   18.9283   18.6413   22.4358 C   0  0  2  0  0  0  0  0  0  0  0  0
   18.5670   19.4643   21.8115 H   0  0  0  0  0  0  0  0  0  0  0  0
   18.2003   17.3563   22.0060 C   0  0  0  0  0  0  0  0  0  0  0  0
   18.5387   16.4931   22.5927 H   0  0  0  0  0  0  0  0  0  0  0  0
   18.3805   17.1407   20.9455 H   0  0  0  0  0  0  0  0  0  0  0  0
   17.1168   17.4591   22.1427 H   0  0  0  0  0  0  0  0  0  0  0  0
   20.4530   18.4970   22.2152 C   0  0  0  0  0  0  0  0  0  0  0  0
   20.8868   17.8643   23.0008 H   0  0  0  0  0  0  0  0  0  0  0  0
   20.6209   17.9606   21.2718 H   0  0  0  0  0  0  0  0  0  0  0  0
   21.2264   19.8385   22.1219 C   0  0  0  0  0  0  0  0  0  0  0  0
   20.8166   20.4459   21.3026 H   0  0  0  0  0  0  0  0  0  0  0  0
   22.2657   19.6156   21.8422 H   0  0  0  0  0  0  0  0  0  0  0  0
   21.2413   20.6715   23.4239 C   0  0  0  0  0  0  0  0  0  0  0  0
   21.9658   21.4921   23.3402 H   0  0  0  0  0  0  0  0  0  0  0  0
   21.5322   20.0587   24.2871 H   0  0  0  0  0  0  0  0  0  0  0  0
   20.2647   21.1276   23.6233 H   0  0  0  0  0  0  0  0  0  0  0  0
  1  2  1  0  0  0  0
  1  3  1  0  0  0  0
  1  4  1  0  0  0  0
  1  5  1  0  0  0  0
  5  6  1  0  0  0  0
  5  7  1  0  0  0  0
  7  8  1  0  0  0  0
  7  9  1  0  0  0  0
  7 10  1  0  0  0  0
  5 11  1  0  0  0  0
 11 12  1  0  0  0  0
 11 13  1  0  0  0  0
 11 14  1  0  0  0  0
 14 15  1  0  0  0  0
 14 16  1  0  0  0  0
 14 17  1  0  0  0  0
 17 18  1  0  0  0  0
 17 19  1  0  0  0  0
 17 20  1  0  0  0  0
M  END
> <VConfSearch Rank>
854

> <Conf_Id>
54

> <Delta U+W>
2.752

> <U+W>
-33.525

> <U>
24.337

> <W>
-57.862

> <W(PB)>
-59.764

> <W(SA)>
1.901

> <Valence>
3.593

> <Coulomb>
20.067

> <VdW>
0.677

> <VdW6>
-5.466

> <VdW12>
6.144

> <Bond>
0.191

> <Angle>
1.557

> <Pdih>
1.845

> <Idih>
0.000

> <Tether>
0.000

$$$$
VeraChem MOL file


 20 19  0  0  0  0  0  0  0  0999 V2000     
   18.9114   19.0713   20.8155 N   0  3  0  0  0  0  0  0  0  0  0  0
   18.1892   18.6813   20.2039 H   0  0  0  0  0  0  0  0  0  0  0  0
   19.6804   19.3836   20.2165 H   0  0  0  0  0  0  0  0  0  0  0  0
   18.5158   19.9002   21.2649 H   0  0  0  0  0  0  0  0  0  0  0  0
   19.3758   18.0634   21.8316 C   0  0  2  0  0  0  0  0  0  0  0  0
   19.7629   17.2140   21.2601 H   0  0  0  0  0  0  0  0  0  0  0  0
   18.1988   17.5525   22.6815 C   0  0  0  0  0  0  0  0  0  0  0  0
   18.5417   16.8194   23.4221 H   0  0  0  0  0  0  0  0  0  0  0  0
   17.4531   17.0587   22.0465 H   0  0  0  0  0  0  0  0  0  0  0  0
   17.6968   18.3694   23.2132 H   0  0  0  0  0  0  0  0  0  0  0  0
   20.5372   18.5947   22.7056 C   0  0  0  0  0  0  0  0  0  0  0  0
   20.8861   17.7843   23.3593 H   0  0  0  0  0  0  0  0  0  0  0  0
   21.3830   18.8368   22.0488 H   0  0  0  0  0  0  0  0  0  0  0  0
   20.1922   19.8357   23.5688 C   0  0  0  0  0  0  0  0  0  0  0  0
   19.3811   19.5975   24.2699 H   0  0  0  0  0  0  0  0  0  0  0  0
   19.8320   20.6536   22.9304 H   0  0  0  0  0  0  0  0  0  0  0  0
   21.4168   20.3259   24.3708 C   0  0  0  0  0  0  0  0  0  0  0  0
   21.1570   21.2027   24.9781 H   0  0  0  0  0  0  0  0  0  0  0  0
   22.2389   20.6120   23.7019 H   0  0  0  0  0  0  0  0  0  0  0  0
   21.7840   19.5442   25.0486 H   0  0  0  0  0  0  0  0  0  0  0  0
  1  2  1  0  0  0  0
  1  3  1  0  0  0  0
  1  4  1  0  0  0  0
  1  5  1  0  0  0  0
  5  6  1  0  0  0  0
  5  7  1  0  0  0  0
  7  8  1  0  0  0  0
  7  9  1  0  0  0  0
  7 10  1  0  0  0  0
  5 11  1  0  0  0  0
 11 12  1  0  0  0  0
 11 13  1  0  0  0  0
 11 14  1  0  0  0  0
 14 15  1  0  0  0  0
 14 16  1  0  0  0  0
 14 17  1  0  0  0  0
 17 18  1  0  0  0  0
 17 19  1  0  0  0  0
 17 20  1  0  0  0  0
M  END
> <VConfSearch Rank>
855

> <Conf_Id>
63

> <Delta U+W>
0.420

> <U+W>
-35.856

> <U>
22.625

> <W>
-58.481

> <W(PB)>
-60.400

> <W(SA)>
1.919

> <Valence>
2.404

> <Coulomb>
19.464

> <VdW>
0.757

> <VdW6>
-5.074

> <VdW12>
5.830

> <Bond>
0.172

> <Angle>
1.207

> <Pdih>
1.025

> <Idih>
0.000

> <Tether>
0.000

$$$$
VeraChem MOL file


 20 19  0  0  0  0  0  0  0  0999 V2000     
   19.3793   19.2566   24.4842 N   0  3  0  0  0  0  0  0  0  0  0  0
   18.7583   20.0022   24.1597 H   0  0  0  0  0  0  0  0  0  0  0  0
   20.1901   19.7001   24.9229 H   0  0  0  0  0  0  0  0  0  0  0  0
   18.8813   18.7398   25.2139 H   0  0  0  0  0  0  0  0  0  0  0  0
   19.7898   18.3552   23.3515 C   0  0  2  0  0  0  0  0  0  0  0  0
   18.8708   17.9232   22.9442 H   0  0  0  0  0  0  0  0  0  0  0  0
   20.6720   17.2054   23.8647 C   0  0  0  0  0  0  0  0  0  0  0  0
   20.1506   16.6329   24.6417 H   0  0  0  0  0  0  0  0  0  0  0  0
   21.6100   17.5834   24.2903 H   0  0  0  0  0  0  0  0  0  0  0  0
   20.9207   16.5122   23.0516 H   0  0  0  0  0  0  0  0  0  0  0  0
   20.5094   19.1207   22.2179 C   0  0  0  0  0  0  0  0  0  0  0  0
   21.4442   19.5486   22.6035 H   0  0  0  0  0  0  0  0  0  0  0  0
   20.7989   18.4085   21.4337 H   0  0  0  0  0  0  0  0  0  0  0  0
   19.6624   20.2489   21.5761 C   0  0  0  0  0  0  0  0  0  0  0  0
   20.2582   20.7332   20.7898 H   0  0  0  0  0  0  0  0  0  0  0  0
   19.4479   21.0312   22.3167 H   0  0  0  0  0  0  0  0  0  0  0  0
   18.3403   19.7379   20.9594 C   0  0  0  0  0  0  0  0  0  0  0  0
   18.5295   18.9538   20.2147 H   0  0  0  0  0  0  0  0  0  0  0  0
   17.8094   20.5562   20.4558 H   0  0  0  0  0  0  0  0  0  0  0  0
   17.6680   19.3292   21.7242 H   0  0  0  0  0  0  0  0  0  0  0  0
  1  2  1  0  0  0  0
  1  3  1  0  0  0  0
  1  4  1  0  0  0  0
  1  5  1  0  0  0  0
  5  6  1  0  0  0  0
  5  7  1  0  0  0  0
  7  8  1  0  0  0  0
  7  9  1  0  0  0  0
  7 10  1  0  0  0  0
  5 11  1  0  0  0  0
 11 12  1  0  0  0  0
 11 13  1  0  0  0  0
 11 14  1  0  0  0  0
 14 15  1  0  0  0  0
 14 16  1  0  0  0  0
 14 17  1  0  0  0  0
 17 18  1  0  0  0  0
 17 19  1  0  0  0  0
 17 20  1  0  0  0  0
M  END
> <VConfSearch Rank>
856

> <Conf_Id>
50

> <Delta U+W>
0.466

> <U+W>
-35.811

> <U>
22.369

> <W>
-58.180

> <W(PB)>
-60.103

> <W(SA)>
1.923

> <Valence>
2.168

> <Coulomb>
19.636

> <VdW>
0.566

> <VdW6>
-5.263

> <VdW12>
5.829

> <Bond>
0.162

> <Angle>
1.066

> <Pdih>
0.939

> <Idih>
0.000

> <Tether>
0.000

$$$$
VeraChem MOL file


 20 19  0  0  0  0  0  0  0  0999 V2000     
   21.3877   19.5528   21.3351 N   0  3  0  0  0  0  0  0  0  0  0  0
   21.7699   18.6781   20.9651 H   0  0  0  0  0  0  0  0  0  0  0  0
   22.1116   19.9826   21.9166 H   0  0  0  0  0  0  0  0  0  0  0  0
   21.2292   20.1745   20.5376 H   0  0  0  0  0  0  0  0  0  0  0  0
   20.1204   19.3198   22.1123 C   0  0  2  0  0  0  0  0  0  0  0  0
   19.4150   18.8591   21.4139 H   0  0  0  0  0  0  0  0  0  0  0  0
   19.5385   20.6647   22.5865 C   0  0  0  0  0  0  0  0  0  0  0  0
   20.2370   21.1841   23.2542 H   0  0  0  0  0  0  0  0  0  0  0  0
   18.5957   20.5276   23.1271 H   0  0  0  0  0  0  0  0  0  0  0  0
   19.3362   21.3210   21.7313 H   0  0  0  0  0  0  0  0  0  0  0  0
   20.3377   18.3416   23.2930 C   0  0  0  0  0  0  0  0  0  0  0  0
   21.2761   17.7932   23.1373 H   0  0  0  0  0  0  0  0  0  0  0  0
   20.4721   18.8965   24.2312 H   0  0  0  0  0  0  0  0  0  0  0  0
   19.2103   17.2903   23.4525 C   0  0  0  0  0  0  0  0  0  0  0  0
   19.4882   16.5975   24.2593 H   0  0  0  0  0  0  0  0  0  0  0  0
   19.1425   16.6829   22.5390 H   0  0  0  0  0  0  0  0  0  0  0  0
   17.8241   17.8931   23.7711 C   0  0  0  0  0  0  0  0  0  0  0  0
   17.8676   18.5410   24.6561 H   0  0  0  0  0  0  0  0  0  0  0  0
   17.0974   17.0962   23.9753 H   0  0  0  0  0  0  0  0  0  0  0  0
   17.4385   18.4794   22.9278 H   0  0  0  0  0  0  0  0  0  0  0  0
  1  2  1  0  0  0  0
  1  3  1  0  0  0  0
  1  4  1  0  0  0  0
  1  5  1  0  0  0  0
  5  6  1  0  0  0  0
  5  7  1  0  0  0  0
  7  8  1  0  0  0  0
  7  9  1  0  0  0  0
  7 10  1  0  0  0  0
  5 11  1  0  0  0  0
 11 12  1  0  0  0  0
 11 13  1  0  0  0  0
 11 14  1  0  0  0  0
 14 15  1  0  0  0  0
 14 16  1  0  0  0  0
 14 17  1  0  0  0  0
 17 18  1  0  0  0  0
 17 19  1  0  0  0  0
 17 20  1  0  0  0  0
M  END
> <VConfSearch Rank>
857

> <Conf_Id>
3

> <Delta U+W>
3.093

> <U+W>
-33.184

> <U>
25.256

> <W>
-58.439

> <W(PB)>
-60.337

> <W(SA)>
1.898

> <Valence>
4.963

> <Coulomb>
19.511

> <VdW>
0.782

> <VdW6>
-5.429

> <VdW12>
6.211

> <Bond>
0.174

> <Angle>
1.377

> <Pdih>
3.412

> <Idih>
0.000

> <Tether>
0.000

$$$$
VeraChem MOL file


 20 19  0  0  0  0  0  0  0  0999 V2000     
   20.0301   16.9839   21.6424 N   0  3  0  0  0  0  0  0  0  0  0  0
   19.7271   16.0734   21.9986 H   0  0  0  0  0  0  0  0  0  0  0  0
   21.0485   16.9473   21.5461 H   0  0  0  0  0  0  0  0  0  0  0  0
   19.6372   17.0891   20.7037 H   0  0  0  0  0  0  0  0  0  0  0  0
   19.5980   18.1023   22.5507 C   0  0  2  0  0  0  0  0  0  0  0  0
   20.0596   17.9035   23.5226 H   0  0  0  0  0  0  0  0  0  0  0  0
   18.0687   18.0885   22.7269 C   0  0  0  0  0  0  0  0  0  0  0  0
   17.7501   18.8057   23.4922 H   0  0  0  0  0  0  0  0  0  0  0  0
   17.7253   17.0975   23.0481 H   0  0  0  0  0  0  0  0  0  0  0  0
   17.5585   18.3378   21.7883 H   0  0  0  0  0  0  0  0  0  0  0  0
   20.1117   19.4693   22.0392 C   0  0  0  0  0  0  0  0  0  0  0  0
   21.1917   19.3929   21.8569 H   0  0  0  0  0  0  0  0  0  0  0  0
   19.6535   19.6886   21.0657 H   0  0  0  0  0  0  0  0  0  0  0  0
   19.8623   20.6629   22.9964 C   0  0  0  0  0  0  0  0  0  0  0  0
   18.7852   20.8531   23.0966 H   0  0  0  0  0  0  0  0  0  0  0  0
   20.2863   21.5707   22.5448 H   0  0  0  0  0  0  0  0  0  0  0  0
   20.4893   20.4596   24.3945 C   0  0  0  0  0  0  0  0  0  0  0  0
   21.5671   20.2648   24.3195 H   0  0  0  0  0  0  0  0  0  0  0  0
   20.0246   19.6200   24.9267 H   0  0  0  0  0  0  0  0  0  0  0  0
   20.3535   21.3576   25.0112 H   0  0  0  0  0  0  0  0  0  0  0  0
  1  2  1  0  0  0  0
  1  3  1  0  0  0  0
  1  4  1  0  0  0  0
  1  5  1  0  0  0  0
  5  6  1  0  0  0  0
  5  7  1  0  0  0  0
  7  8  1  0  0  0  0
  7  9  1  0  0  0  0
  7 10  1  0  0  0  0
  5 11  1  0  0  0  0
 11 12  1  0  0  0  0
 11 13  1  0  0  0  0
 11 14  1  0  0  0  0
 14 15  1  0  0  0  0
 14 16  1  0  0  0  0
 14 17  1  0  0  0  0
 17 18  1  0  0  0  0
 17 19  1  0  0  0  0
 17 20  1  0  0  0  0
M  END
> <VConfSearch Rank>
858

> <Conf_Id>
64

> <Delta U+W>
0.544

> <U+W>
-35.732

> <U>
22.800

> <W>
-58.532

> <W(PB)>
-60.437

> <W(SA)>
1.905

> <Valence>
2.662

> <Coulomb>
19.485

> <VdW>
0.653

> <VdW6>
-5.460

> <VdW12>
6.113

> <Bond>
0.174

> <Angle>
1.378

> <Pdih>
1.109

> <Idih>
0.000

> <Tether>
0.000

$$$$
VeraChem MOL file


 20 19  0  0  0  0  0  0  0  0999 V2000     
   18.4536   19.1709   24.3195 N   0  3  0  0  0  0  0  0  0  0  0  0
   18.6312   20.1387   24.0419 H   0  0  0  0  0  0  0  0  0  0  0  0
   18.5558   19.1211   25.3367 H   0  0  0  0  0  0  0  0  0  0  0  0
   17.4751   18.9635   24.1023 H   0  0  0  0  0  0  0  0  0  0  0  0
   19.3889   18.2180   23.6252 C   0  0  2  0  0  0  0  0  0  0  0  0
   19.1284   17.2210   23.9941 H   0  0  0  0  0  0  0  0  0  0  0  0
   20.8474   18.4901   24.0284 C   0  0  0  0  0  0  0  0  0  0  0  0
   21.1381   19.5242   23.8098 H   0  0  0  0  0  0  0  0  0  0  0  0
   21.5316   17.8152   23.4996 H   0  0  0  0  0  0  0  0  0  0  0  0
   20.9841   18.3261   25.1042 H   0  0  0  0  0  0  0  0  0  0  0  0
   19.1796   18.2002   22.0900 C   0  0  0  0  0  0  0  0  0  0  0  0
   19.7545   17.3729   21.6536 H   0  0  0  0  0  0  0  0  0  0  0  0
   18.1270   17.9481   21.9056 H   0  0  0  0  0  0  0  0  0  0  0  0
   19.5027   19.5209   21.3373 C   0  0  0  0  0  0  0  0  0  0  0  0
   19.3108   20.3930   21.9761 H   0  0  0  0  0  0  0  0  0  0  0  0
   18.8104   19.6138   20.4888 H   0  0  0  0  0  0  0  0  0  0  0  0
   20.9440   19.5772   20.7785 C   0  0  0  0  0  0  0  0  0  0  0  0
   21.6975   19.5349   21.5725 H   0  0  0  0  0  0  0  0  0  0  0  0
   21.1029   20.5097   20.2217 H   0  0  0  0  0  0  0  0  0  0  0  0
   21.1311   18.7434   20.0894 H   0  0  0  0  0  0  0  0  0  0  0  0
  1  2  1  0  0  0  0
  1  3  1  0  0  0  0
  1  4  1  0  0  0  0
  1  5  1  0  0  0  0
  5  6  1  0  0  0  0
  5  7  1  0  0  0  0
  7  8  1  0  0  0  0
  7  9  1  0  0  0  0
  7 10  1  0  0  0  0
  5 11  1  0  0  0  0
 11 12  1  0  0  0  0
 11 13  1  0  0  0  0
 11 14  1  0  0  0  0
 14 15  1  0  0  0  0
 14 16  1  0  0  0  0
 14 17  1  0  0  0  0
 17 18  1  0  0  0  0
 17 19  1  0  0  0  0
 17 20  1  0  0  0  0
M  END
> <VConfSearch Rank>
859

> <Conf_Id>
35

> <Delta U+W>
3.004

> <U+W>
-33.272

> <U>
25.367

> <W>
-58.639

> <W(PB)>
-60.512

> <W(SA)>
1.873

> <Valence>
4.943

> <Coulomb>
19.661

> <VdW>
0.764

> <VdW6>
-5.871

> <VdW12>
6.636

> <Bond>
0.230

> <Angle>
1.857

> <Pdih>
2.855

> <Idih>
0.000

> <Tether>
0.000

$$$$
VeraChem MOL file


 20 19  0  0  0  0  0  0  0  0999 V2000     
   19.6923   17.6836   21.4687 N   0  3  0  0  0  0  0  0  0  0  0  0
   20.3184   17.1505   20.8593 H   0  0  0  0  0  0  0  0  0  0  0  0
   18.7448   17.5831   21.0947 H   0  0  0  0  0  0  0  0  0  0  0  0
   19.7059   17.2418   22.3899 H   0  0  0  0  0  0  0  0  0  0  0  0
   20.1012   19.1287   21.5519 C   0  0  2  0  0  0  0  0  0  0  0  0
   20.0281   19.5093   20.5283 H   0  0  0  0  0  0  0  0  0  0  0  0
   21.5694   19.2725   21.9903 C   0  0  0  0  0  0  0  0  0  0  0  0
   21.7432   18.8256   22.9764 H   0  0  0  0  0  0  0  0  0  0  0  0
   21.8602   20.3293   22.0350 H   0  0  0  0  0  0  0  0  0  0  0  0
   22.2346   18.7745   21.2744 H   0  0  0  0  0  0  0  0  0  0  0  0
   19.1397   19.9830   22.4174 C   0  0  0  0  0  0  0  0  0  0  0  0
   19.3199   21.0378   22.1716 H   0  0  0  0  0  0  0  0  0  0  0  0
   18.1068   19.7838   22.1032 H   0  0  0  0  0  0  0  0  0  0  0  0
   19.2442   19.8308   23.9609 C   0  0  0  0  0  0  0  0  0  0  0  0
   18.5331   20.5320   24.4197 H   0  0  0  0  0  0  0  0  0  0  0  0
   20.2365   20.1483   24.3087 H   0  0  0  0  0  0  0  0  0  0  0  0
   18.9367   18.4121   24.4917 C   0  0  0  0  0  0  0  0  0  0  0  0
   17.9877   18.0335   24.0901 H   0  0  0  0  0  0  0  0  0  0  0  0
   18.8524   18.4262   25.5862 H   0  0  0  0  0  0  0  0  0  0  0  0
   19.7356   17.7051   24.2405 H   0  0  0  0  0  0  0  0  0  0  0  0
  1  2  1  0  0  0  0
  1  3  1  0  0  0  0
  1  4  1  0  0  0  0
  1  5  1  0  0  0  0
  5  6  1  0  0  0  0
  5  7  1  0  0  0  0
  7  8  1  0  0  0  0
  7  9  1  0  0  0  0
  7 10  1  0  0  0  0
  5 11  1  0  0  0  0
 11 12  1  0  0  0  0
 11 13  1  0  0  0  0
 11 14  1  0  0  0  0
 14 15  1  0  0  0  0
 14 16  1  0  0  0  0
 14 17  1  0  0  0  0
 17 18  1  0  0  0  0
 17 19  1  0  0  0  0
 17 20  1  0  0  0  0
M  END
> <VConfSearch Rank>
860

> <Conf_Id>
55

> <Delta U+W>
2.767

> <U+W>
-33.509

> <U>
24.552

> <W>
-58.061

> <W(PB)>
-59.930

> <W(SA)>
1.869

> <Valence>
3.726

> <Coulomb>
20.219

> <VdW>
0.606

> <VdW6>
-6.395

> <VdW12>
7.001

> <Bond>
0.241

> <Angle>
2.098

> <Pdih>
1.387

> <Idih>
0.000

> <Tether>
0.000

$$$$
VeraChem MOL file


 20 19  0  0  0  0  0  0  0  0999 V2000     
   18.1143   19.9380   22.2079 N   0  3  0  0  0  0  0  0  0  0  0  0
   18.5650   20.6590   21.6391 H   0  0  0  0  0  0  0  0  0  0  0  0
   17.2234   20.3206   22.5358 H   0  0  0  0  0  0  0  0  0  0  0  0
   17.8982   19.1505   21.5917 H   0  0  0  0  0  0  0  0  0  0  0  0
   18.9889   19.5158   23.3577 C   0  0  2  0  0  0  0  0  0  0  0  0
   18.4374   18.7463   23.9068 H   0  0  0  0  0  0  0  0  0  0  0  0
   19.2399   20.6982   24.3079 C   0  0  0  0  0  0  0  0  0  0  0  0
   18.2915   21.1109   24.6734 H   0  0  0  0  0  0  0  0  0  0  0  0
   19.7912   21.5024   23.8047 H   0  0  0  0  0  0  0  0  0  0  0  0
   19.8221   20.3799   25.1815 H   0  0  0  0  0  0  0  0  0  0  0  0
   20.3302   18.9080   22.8911 C   0  0  0  0  0  0  0  0  0  0  0  0
   20.8942   19.6543   22.3158 H   0  0  0  0  0  0  0  0  0  0  0  0
   20.9375   18.6699   23.7746 H   0  0  0  0  0  0  0  0  0  0  0  0
   20.1519   17.6227   22.0475 C   0  0  0  0  0  0  0  0  0  0  0  0
   19.5945   17.8463   21.1278 H   0  0  0  0  0  0  0  0  0  0  0  0
   19.5566   16.8899   22.6104 H   0  0  0  0  0  0  0  0  0  0  0  0
   21.5111   16.9953   21.6705 C   0  0  0  0  0  0  0  0  0  0  0  0
   22.1183   17.6937   21.0800 H   0  0  0  0  0  0  0  0  0  0  0  0
   21.3660   16.0866   21.0719 H   0  0  0  0  0  0  0  0  0  0  0  0
   22.0819   16.7197   22.5668 H   0  0  0  0  0  0  0  0  0  0  0  0
  1  2  1  0  0  0  0
  1  3  1  0  0  0  0
  1  4  1  0  0  0  0
  1  5  1  0  0  0  0
  5  6  1  0  0  0  0
  5  7  1  0  0  0  0
  7  8  1  0  0  0  0
  7  9  1  0  0  0  0
  7 10  1  0  0  0  0
  5 11  1  0  0  0  0
 11 12  1  0  0  0  0
 11 13  1  0  0  0  0
 11 14  1  0  0  0  0
 14 15  1  0  0  0  0
 14 16  1  0  0  0  0
 14 17  1  0  0  0  0
 17 18  1  0  0  0  0
 17 19  1  0  0  0  0
 17 20  1  0  0  0  0
M  END
> <VConfSearch Rank>
861

> <Conf_Id>
74

> <Delta U+W>
0.000

> <U+W>
-36.276

> <U>
22.080

> <W>
-58.356

> <W(PB)>
-60.289

> <W(SA)>
1.932

> <Valence>
1.885

> <Coulomb>
19.559

> <VdW>
0.637

> <VdW6>
-4.482

> <VdW12>
5.119

> <Bond>
0.136

> <Angle>
0.867

> <Pdih>
0.882

> <Idih>
0.000

> <Tether>
0.000

$$$$
VeraChem MOL file


 20 19  0  0  0  0  0  0  0  0999 V2000     
   21.3657   18.6262   20.9940 N   0  3  0  0  0  0  0  0  0  0  0  0
   22.2055   18.4036   21.5353 H   0  0  0  0  0  0  0  0  0  0  0  0
   21.4436   19.6015   20.6948 H   0  0  0  0  0  0  0  0  0  0  0  0
   21.3877   18.0467   20.1505 H   0  0  0  0  0  0  0  0  0  0  0  0
   20.1121   18.3910   21.7912 C   0  0  2  0  0  0  0  0  0  0  0  0
   20.1137   17.3306   22.0622 H   0  0  0  0  0  0  0  0  0  0  0  0
   18.8691   18.6698   20.9263 C   0  0  0  0  0  0  0  0  0  0  0  0
   18.9184   18.1067   19.9862 H   0  0  0  0  0  0  0  0  0  0  0  0
   18.7876   19.7357   20.6799 H   0  0  0  0  0  0  0  0  0  0  0  0
   17.9496   18.3638   21.4382 H   0  0  0  0  0  0  0  0  0  0  0  0
   20.1138   19.2232   23.0947 C   0  0  0  0  0  0  0  0  0  0  0  0
   21.0705   19.0614   23.6088 H   0  0  0  0  0  0  0  0  0  0  0  0
   20.0696   20.2929   22.8506 H   0  0  0  0  0  0  0  0  0  0  0  0
   18.9656   18.8624   24.0686 C   0  0  0  0  0  0  0  0  0  0  0  0
   18.9710   17.7807   24.2636 H   0  0  0  0  0  0  0  0  0  0  0  0
   17.9934   19.0998   23.6164 H   0  0  0  0  0  0  0  0  0  0  0  0
   19.0923   19.6238   25.4057 C   0  0  0  0  0  0  0  0  0  0  0  0
   20.0351   19.3797   25.9125 H   0  0  0  0  0  0  0  0  0  0  0  0
   18.2691   19.3592   26.0820 H   0  0  0  0  0  0  0  0  0  0  0  0
   19.0611   20.7095   25.2463 H   0  0  0  0  0  0  0  0  0  0  0  0
  1  2  1  0  0  0  0
  1  3  1  0  0  0  0
  1  4  1  0  0  0  0
  1  5  1  0  0  0  0
  5  6  1  0  0  0  0
  5  7  1  0  0  0  0
  7  8  1  0  0  0  0
  7  9  1  0  0  0  0
  7 10  1  0  0  0  0
  5 11  1  0  0  0  0
 11 12  1  0  0  0  0
 11 13  1  0  0  0  0
 11 14  1  0  0  0  0
 14 15  1  0  0  0  0
 14 16  1  0  0  0  0
 14 17  1  0  0  0  0
 17 18  1  0  0  0  0
 17 19  1  0  0  0  0
 17 20  1  0  0  0  0
M  END
> <VConfSearch Rank>
862

> <Conf_Id>
80

> <Delta U+W>
0.460

> <U+W>
-35.817

> <U>
22.495

> <W>
-58.311

> <W(PB)>
-60.259

> <W(SA)>
1.948

> <Valence>
2.419

> <Coulomb>
19.304

> <VdW>
0.772

> <VdW6>
-4.635

> <VdW12>
5.407

> <Bond>
0.149

> <Angle>
1.142

> <Pdih>
1.129

> <Idih>
0.000

> <Tether>
0.000

$$$$
VeraChem MOL file


 20 19  0  0  0  0  0  0  0  0999 V2000     
   18.1064   17.3942   21.8165 N   0  3  0  0  0  0  0  0  0  0  0  0
   17.2489   17.8962   21.5705 H   0  0  0  0  0  0  0  0  0  0  0  0
   17.9330   16.9052   22.6983 H   0  0  0  0  0  0  0  0  0  0  0  0
   18.2560   16.6812   21.0977 H   0  0  0  0  0  0  0  0  0  0  0  0
   19.2839   18.3242   21.9232 C   0  0  2  0  0  0  0  0  0  0  0  0
   19.3943   18.7925   20.9402 H   0  0  0  0  0  0  0  0  0  0  0  0
   20.5661   17.5277   22.2199 C   0  0  0  0  0  0  0  0  0  0  0  0
   20.6743   16.6921   21.5176 H   0  0  0  0  0  0  0  0  0  0  0  0
   20.5541   17.1184   23.2376 H   0  0  0  0  0  0  0  0  0  0  0  0
   21.4550   18.1587   22.1075 H   0  0  0  0  0  0  0  0  0  0  0  0
   19.0168   19.4423   22.9604 C   0  0  0  0  0  0  0  0  0  0  0  0
   18.0694   19.9255   22.6870 H   0  0  0  0  0  0  0  0  0  0  0  0
   18.8531   19.0063   23.9548 H   0  0  0  0  0  0  0  0  0  0  0  0
   20.1060   20.5452   23.0306 C   0  0  0  0  0  0  0  0  0  0  0  0
   19.6144   21.5122   23.2080 H   0  0  0  0  0  0  0  0  0  0  0  0
   20.6164   20.6406   22.0619 H   0  0  0  0  0  0  0  0  0  0  0  0
   21.1361   20.3210   24.1628 C   0  0  0  0  0  0  0  0  0  0  0  0
   20.6426   20.3000   25.1431 H   0  0  0  0  0  0  0  0  0  0  0  0
   21.8721   21.1352   24.1790 H   0  0  0  0  0  0  0  0  0  0  0  0
   21.6849   19.3804   24.0420 H   0  0  0  0  0  0  0  0  0  0  0  0
  1  2  1  0  0  0  0
  1  3  1  0  0  0  0
  1  4  1  0  0  0  0
  1  5  1  0  0  0  0
  5  6  1  0  0  0  0
  5  7  1  0  0  0  0
  7  8  1  0  0  0  0
  7  9  1  0  0  0  0
  7 10  1  0  0  0  0
  5 11  1  0  0  0  0
 11 12  1  0  0  0  0
 11 13  1  0  0  0  0
 11 14  1  0  0  0  0
 14 15  1  0  0  0  0
 14 16  1  0  0  0  0
 14 17  1  0  0  0  0
 17 18  1  0  0  0  0
 17 19  1  0  0  0  0
 17 20  1  0  0  0  0
M  END
> <VConfSearch Rank>
863

> <Conf_Id>
52

> <Delta U+W>
2.995

> <U+W>
-33.282

> <U>
25.224

> <W>
-58.506

> <W(PB)>
-60.411

> <W(SA)>
1.905

> <Valence>
4.945

> <Coulomb>
19.467

> <VdW>
0.813

> <VdW6>
-5.458

> <VdW12>
6.270

> <Bond>
0.200

> <Angle>
1.675

> <Pdih>
3.070

> <Idih>
0.000

> <Tether>
0.000

$$$$
VeraChem MOL file


 20 19  0  0  0  0  0  0  0  0999 V2000     
   20.2369   17.9083   23.8278 N   0  3  0  0  0  0  0  0  0  0  0  0
   21.2484   17.8376   23.6927 H   0  0  0  0  0  0  0  0  0  0  0  0
   19.9295   17.0501   24.2932 H   0  0  0  0  0  0  0  0  0  0  0  0
   20.0677   18.6856   24.4698 H   0  0  0  0  0  0  0  0  0  0  0  0
   19.5221   18.1144   22.5202 C   0  0  2  0  0  0  0  0  0  0  0  0
   18.4498   18.1314   22.7383 H   0  0  0  0  0  0  0  0  0  0  0  0
   19.8027   16.9298   21.5801 C   0  0  0  0  0  0  0  0  0  0  0  0
   20.8662   16.8759   21.3158 H   0  0  0  0  0  0  0  0  0  0  0  0
   19.2241   17.0210   20.6524 H   0  0  0  0  0  0  0  0  0  0  0  0
   19.5196   15.9819   22.0540 H   0  0  0  0  0  0  0  0  0  0  0  0
   19.8997   19.4489   21.8340 C   0  0  0  0  0  0  0  0  0  0  0  0
   20.9906   19.5736   21.8326 H   0  0  0  0  0  0  0  0  0  0  0  0
   19.6030   19.3956   20.7780 H   0  0  0  0  0  0  0  0  0  0  0  0
   19.2189   20.7056   22.4370 C   0  0  0  0  0  0  0  0  0  0  0  0
   18.1266   20.5928   22.3913 H   0  0  0  0  0  0  0  0  0  0  0  0
   19.4609   21.5660   21.7972 H   0  0  0  0  0  0  0  0  0  0  0  0
   19.6426   21.0420   23.8850 C   0  0  0  0  0  0  0  0  0  0  0  0
   19.2807   22.0404   24.1632 H   0  0  0  0  0  0  0  0  0  0  0  0
   20.7353   21.0435   23.9915 H   0  0  0  0  0  0  0  0  0  0  0  0
   19.2150   20.3356   24.6058 H   0  0  0  0  0  0  0  0  0  0  0  0
  1  2  1  0  0  0  0
  1  3  1  0  0  0  0
  1  4  1  0  0  0  0
  1  5  1  0  0  0  0
  5  6  1  0  0  0  0
  5  7  1  0  0  0  0
  7  8  1  0  0  0  0
  7  9  1  0  0  0  0
  7 10  1  0  0  0  0
  5 11  1  0  0  0  0
 11 12  1  0  0  0  0
 11 13  1  0  0  0  0
 11 14  1  0  0  0  0
 14 15  1  0  0  0  0
 14 16  1  0  0  0  0
 14 17  1  0  0  0  0
 17 18  1  0  0  0  0
 17 19  1  0  0  0  0
 17 20  1  0  0  0  0
M  END
> <VConfSearch Rank>
864

> <Conf_Id>
54

> <Delta U+W>
2.752

> <U+W>
-33.525

> <U>
24.337

> <W>
-57.862

> <W(PB)>
-59.764

> <W(SA)>
1.901

> <Valence>
3.593

> <Coulomb>
20.067

> <VdW>
0.677

> <VdW6>
-5.466

> <VdW12>
6.144

> <Bond>
0.191

> <Angle>
1.557

> <Pdih>
1.845

> <Idih>
0.000

> <Tether>
0.000

$$$$
VeraChem MOL file


 20 19  0  0  0  0  0  0  0  0999 V2000     
   21.3669   19.9962   23.4658 N   0  3  0  0  0  0  0  0  0  0  0  0
   22.3757   20.1470   23.3805 H   0  0  0  0  0  0  0  0  0  0  0  0
   21.1192   20.1473   24.4474 H   0  0  0  0  0  0  0  0  0  0  0  0
   20.9021   20.7224   22.9163 H   0  0  0  0  0  0  0  0  0  0  0  0
   20.9747   18.6197   23.0018 C   0  0  2  0  0  0  0  0  0  0  0  0
   21.5305   17.9181   23.6319 H   0  0  0  0  0  0  0  0  0  0  0  0
   21.4120   18.3815   21.5455 C   0  0  0  0  0  0  0  0  0  0  0  0
   21.1227   17.3777   21.2105 H   0  0  0  0  0  0  0  0  0  0  0  0
   22.5023   18.4602   21.4548 H   0  0  0  0  0  0  0  0  0  0  0  0
   20.9659   19.1139   20.8624 H   0  0  0  0  0  0  0  0  0  0  0  0
   19.4691   18.3298   23.2120 C   0  0  0  0  0  0  0  0  0  0  0  0
   19.2694   17.2851   22.9391 H   0  0  0  0  0  0  0  0  0  0  0  0
   19.2470   18.4083   24.2844 H   0  0  0  0  0  0  0  0  0  0  0  0
   18.5077   19.2571   22.4245 C   0  0  0  0  0  0  0  0  0  0  0  0
   18.6795   19.1538   21.3447 H   0  0  0  0  0  0  0  0  0  0  0  0
   18.7008   20.3078   22.6791 H   0  0  0  0  0  0  0  0  0  0  0  0
   17.0299   18.9296   22.7279 C   0  0  0  0  0  0  0  0  0  0  0  0
   16.3619   19.5920   22.1621 H   0  0  0  0  0  0  0  0  0  0  0  0
   16.8071   19.0593   23.7950 H   0  0  0  0  0  0  0  0  0  0  0  0
   16.7898   17.8945   22.4520 H   0  0  0  0  0  0  0  0  0  0  0  0
  1  2  1  0  0  0  0
  1  3  1  0  0  0  0
  1  4  1  0  0  0  0
  1  5  1  0  0  0  0
  5  6  1  0  0  0  0
  5  7  1  0  0  0  0
  7  8  1  0  0  0  0
  7  9  1  0  0  0  0
  7 10  1  0  0  0  0
  5 11  1  0  0  0  0
 11 12  1  0  0  0  0
 11 13  1  0  0  0  0
 11 14  1  0  0  0  0
 14 15  1  0  0  0  0
 14 16  1  0  0  0  0
 14 17  1  0  0  0  0
 17 18  1  0  0  0  0
 17 19  1  0  0  0  0
 17 20  1  0  0  0  0
M  END
> <VConfSearch Rank>
865

> <Conf_Id>
63

> <Delta U+W>
0.420

> <U+W>
-35.856

> <U>
22.625

> <W>
-58.481

> <W(PB)>
-60.400

> <W(SA)>
1.919

> <Valence>
2.404

> <Coulomb>
19.464

> <VdW>
0.757

> <VdW6>
-5.074

> <VdW12>
5.830

> <Bond>
0.172

> <Angle>
1.207

> <Pdih>
1.025

> <Idih>
0.000

> <Tether>
0.000

$$$$
VeraChem MOL file


 20 19  0  0  0  0  0  0  0  0999 V2000     
   20.0417   17.2455   22.8511 N   0  3  0  0  0  0  0  0  0  0  0  0
   19.2746   17.1465   22.1813 H   0  0  0  0  0  0  0  0  0  0  0  0
   19.7224   16.8619   23.7441 H   0  0  0  0  0  0  0  0  0  0  0  0
   20.8119   16.6568   22.5231 H   0  0  0  0  0  0  0  0  0  0  0  0
   20.4653   18.6828   22.9886 C   0  0  2  0  0  0  0  0  0  0  0  0
   20.7920   19.0109   21.9973 H   0  0  0  0  0  0  0  0  0  0  0  0
   21.6578   18.8079   23.9508 C   0  0  0  0  0  0  0  0  0  0  0  0
   22.4982   18.1907   23.6100 H   0  0  0  0  0  0  0  0  0  0  0  0
   21.3866   18.4864   24.9641 H   0  0  0  0  0  0  0  0  0  0  0  0
   22.0083   19.8461   24.0042 H   0  0  0  0  0  0  0  0  0  0  0  0
   19.3073   19.5993   23.4450 C   0  0  0  0  0  0  0  0  0  0  0  0
   18.9758   19.2958   24.4470 H   0  0  0  0  0  0  0  0  0  0  0  0
   19.6827   20.6265   23.5446 H   0  0  0  0  0  0  0  0  0  0  0  0
   18.0881   19.6064   22.4883 C   0  0  0  0  0  0  0  0  0  0  0  0
   17.3220   20.2791   22.8986 H   0  0  0  0  0  0  0  0  0  0  0  0
   17.6268   18.6101   22.4530 H   0  0  0  0  0  0  0  0  0  0  0  0
   18.4442   20.0674   21.0565 C   0  0  0  0  0  0  0  0  0  0  0  0
   18.9074   21.0626   21.0662 H   0  0  0  0  0  0  0  0  0  0  0  0
   17.5409   20.1251   20.4354 H   0  0  0  0  0  0  0  0  0  0  0  0
   19.1374   19.3715   20.5676 H   0  0  0  0  0  0  0  0  0  0  0  0
  1  2  1  0  0  0  0
  1  3  1  0  0  0  0
  1  4  1  0  0  0  0
  1  5  1  0  0  0  0
  5  6  1  0  0  0  0
  5  7  1  0  0  0  0
  7  8  1  0  0  0  0
  7  9  1  0  0  0  0
  7 10  1  0  0  0  0
  5 11  1  0  0  0  0
 11 12  1  0  0  0  0
 11 13  1  0  0  0  0
 11 14  1  0  0  0  0
 14 15  1  0  0  0  0
 14 16  1  0  0  0  0
 14 17  1  0  0  0  0
 17 18  1  0  0  0  0
 17 19  1  0  0  0  0
 17 20  1  0  0  0  0
M  END
> <VConfSearch Rank>
866

> <Conf_Id>
50

> <Delta U+W>
0.466

> <U+W>
-35.811

> <U>
22.369

> <W>
-58.180

> <W(PB)>
-60.103

> <W(SA)>
1.923

> <Valence>
2.168

> <Coulomb>
19.636

> <VdW>
0.566

> <VdW6>
-5.263

> <VdW12>
5.829

> <Bond>
0.162

> <Angle>
1.066

> <Pdih>
0.939

> <Idih>
0.000

> <Tether>
0.000

$$$$
VeraChem MOL file


 20 19  0  0  0  0  0  0  0  0999 V2000     
   20.1584   20.9084   23.7909 N   0  3  0  0  0  0  0  0  0  0  0  0
   21.1806   20.9572   23.8162 H   0  0  0  0  0  0  0  0  0  0  0  0
   19.8307   20.8274   24.7568 H   0  0  0  0  0  0  0  0  0  0  0  0
   19.8219   21.8051   23.4297 H   0  0  0  0  0  0  0  0  0  0  0  0
   19.6783   19.7593   22.9460 C   0  0  2  0  0  0  0  0  0  0  0  0
   20.0783   19.9314   21.9420 H   0  0  0  0  0  0  0  0  0  0  0  0
   18.1399   19.7661   22.8725 C   0  0  0  0  0  0  0  0  0  0  0  0
   17.6961   19.6435   23.8684 H   0  0  0  0  0  0  0  0  0  0  0  0
   17.7634   18.9589   22.2351 H   0  0  0  0  0  0  0  0  0  0  0  0
   17.7774   20.7132   22.4546 H   0  0  0  0  0  0  0  0  0  0  0  0
   20.2214   18.4012   23.4548 C   0  0  0  0  0  0  0  0  0  0  0  0
   21.0726   18.5826   24.1243 H   0  0  0  0  0  0  0  0  0  0  0  0
   19.4664   17.8917   24.0683 H   0  0  0  0  0  0  0  0  0  0  0  0
   20.7146   17.4602   22.3265 C   0  0  0  0  0  0  0  0  0  0  0  0
   21.1508   16.5616   22.7848 H   0  0  0  0  0  0  0  0  0  0  0  0
   21.5301   17.9466   21.7728 H   0  0  0  0  0  0  0  0  0  0  0  0
   19.6105   17.0271   21.3367 C   0  0  0  0  0  0  0  0  0  0  0  0
   18.7605   16.5750   21.8641 H   0  0  0  0  0  0  0  0  0  0  0  0
   19.9998   16.2827   20.6300 H   0  0  0  0  0  0  0  0  0  0  0  0
   19.2439   17.8771   20.7479 H   0  0  0  0  0  0  0  0  0  0  0  0
  1  2  1  0  0  0  0
  1  3  1  0  0  0  0
  1  4  1  0  0  0  0
  1  5  1  0  0  0  0
  5  6  1  0  0  0  0
  5  7  1  0  0  0  0
  7  8  1  0  0  0  0
  7  9  1  0  0  0  0
  7 10  1  0  0  0  0
  5 11  1  0  0  0  0
 11 12  1  0  0  0  0
 11 13  1  0  0  0  0
 11 14  1  0  0  0  0
 14 15  1  0  0  0  0
 14 16  1  0  0  0  0
 14 17  1  0  0  0  0
 17 18  1  0  0  0  0
 17 19  1  0  0  0  0
 17 20  1  0  0  0  0
M  END
> <VConfSearch Rank>
867

> <Conf_Id>
3

> <Delta U+W>
3.093

> <U+W>
-33.184

> <U>
25.256

> <W>
-58.439

> <W(PB)>
-60.337

> <W(SA)>
1.898

> <Valence>
4.963

> <Coulomb>
19.511

> <VdW>
0.782

> <VdW6>
-5.429

> <VdW12>
6.211

> <Bond>
0.174

> <Angle>
1.377

> <Pdih>
3.412

> <Idih>
0.000

> <Tether>
0.000

$$$$
VeraChem MOL file


 20 19  0  0  0  0  0  0  0  0999 V2000     
   17.6559   18.2083   23.5295 N   0  3  0  0  0  0  0  0  0  0  0  0
   17.5396   17.3378   24.0551 H   0  0  0  0  0  0  0  0  0  0  0  0
   17.0961   18.1236   22.6767 H   0  0  0  0  0  0  0  0  0  0  0  0
   17.2470   18.9594   24.0910 H   0  0  0  0  0  0  0  0  0  0  0  0
   19.1033   18.4755   23.2194 C   0  0  2  0  0  0  0  0  0  0  0  0
   19.4515   17.6253   22.6253 H   0  0  0  0  0  0  0  0  0  0  0  0
   19.9277   18.5311   24.5184 C   0  0  0  0  0  0  0  0  0  0  0  0
   21.0017   18.5854   24.3057 H   0  0  0  0  0  0  0  0  0  0  0  0
   19.7616   17.6296   25.1208 H   0  0  0  0  0  0  0  0  0  0  0  0
   19.6530   19.4020   25.1262 H   0  0  0  0  0  0  0  0  0  0  0  0
   19.2666   19.7599   22.3721 C   0  0  0  0  0  0  0  0  0  0  0  0
   18.5967   19.6961   21.5046 H   0  0  0  0  0  0  0  0  0  0  0  0
   18.9271   20.6259   22.9557 H   0  0  0  0  0  0  0  0  0  0  0  0
   20.7046   20.0278   21.8588 C   0  0  0  0  0  0  0  0  0  0  0  0
   21.3793   20.2298   22.7016 H   0  0  0  0  0  0  0  0  0  0  0  0
   20.6971   20.9456   21.2542 H   0  0  0  0  0  0  0  0  0  0  0  0
   21.2684   18.8699   21.0041 C   0  0  0  0  0  0  0  0  0  0  0  0
   20.6083   18.6477   20.1555 H   0  0  0  0  0  0  0  0  0  0  0  0
   21.3882   17.9534   21.5954 H   0  0  0  0  0  0  0  0  0  0  0  0
   22.2546   19.1344   20.6009 H   0  0  0  0  0  0  0  0  0  0  0  0
  1  2  1  0  0  0  0
  1  3  1  0  0  0  0
  1  4  1  0  0  0  0
  1  5  1  0  0  0  0
  5  6  1  0  0  0  0
  5  7  1  0  0  0  0
  7  8  1  0  0  0  0
  7  9  1  0  0  0  0
  7 10  1  0  0  0  0
  5 11  1  0  0  0  0
 11 12  1  0  0  0  0
 11 13  1  0  0  0  0
 11 14  1  0  0  0  0
 14 15  1  0  0  0  0
 14 16  1  0  0  0  0
 14 17  1  0  0  0  0
 17 18  1  0  0  0  0
 17 19  1  0  0  0  0
 17 20  1  0  0  0  0
M  END
> <VConfSearch Rank>
868

> <Conf_Id>
64

> <Delta U+W>
0.544

> <U+W>
-35.732

> <U>
22.800

> <W>
-58.532

> <W(PB)>
-60.437

> <W(SA)>
1.905

> <Valence>
2.662

> <Coulomb>
19.485

> <VdW>
0.653

> <VdW6>
-5.460

> <VdW12>
6.113

> <Bond>
0.174

> <Angle>
1.378

> <Pdih>
1.109

> <Idih>
0.000

> <Tether>
0.000

$$$$
VeraChem MOL file


 20 19  0  0  0  0  0  0  0  0999 V2000     
   18.4932   18.1831   21.1987 N   0  3  0  0  0  0  0  0  0  0  0  0
   17.8942   18.8589   21.6781 H   0  0  0  0  0  0  0  0  0  0  0  0
   17.9530   17.3209   21.0873 H   0  0  0  0  0  0  0  0  0  0  0  0
   18.6787   18.5482   20.2606 H   0  0  0  0  0  0  0  0  0  0  0  0
   19.7681   17.9393   21.9601 C   0  0  2  0  0  0  0  0  0  0  0  0
   20.3284   17.2016   21.3771 H   0  0  0  0  0  0  0  0  0  0  0  0
   19.4753   17.3128   23.3332 C   0  0  0  0  0  0  0  0  0  0  0  0
   18.8010   17.9418   23.9260 H   0  0  0  0  0  0  0  0  0  0  0  0
   20.4022   17.1626   23.9002 H   0  0  0  0  0  0  0  0  0  0  0  0
   18.9968   16.3332   23.2128 H   0  0  0  0  0  0  0  0  0  0  0  0
   20.6522   19.2085   22.0512 C   0  0  0  0  0  0  0  0  0  0  0  0
   21.6363   18.9386   22.4565 H   0  0  0  0  0  0  0  0  0  0  0  0
   20.8466   19.5470   21.0250 H   0  0  0  0  0  0  0  0  0  0  0  0
   20.0612   20.4012   22.8533 C   0  0  0  0  0  0  0  0  0  0  0  0
   18.9657   20.4163   22.7830 H   0  0  0  0  0  0  0  0  0  0  0  0
   20.4035   21.3355   22.3865 H   0  0  0  0  0  0  0  0  0  0  0  0
   20.4999   20.4267   24.3364 C   0  0  0  0  0  0  0  0  0  0  0  0
   20.1553   19.5433   24.8850 H   0  0  0  0  0  0  0  0  0  0  0  0
   20.0897   21.3103   24.8422 H   0  0  0  0  0  0  0  0  0  0  0  0
   21.5933   20.4732   24.4220 H   0  0  0  0  0  0  0  0  0  0  0  0
  1  2  1  0  0  0  0
  1  3  1  0  0  0  0
  1  4  1  0  0  0  0
  1  5  1  0  0  0  0
  5  6  1  0  0  0  0
  5  7  1  0  0  0  0
  7  8  1  0  0  0  0
  7  9  1  0  0  0  0
  7 10  1  0  0  0  0
  5 11  1  0  0  0  0
 11 12  1  0  0  0  0
 11 13  1  0  0  0  0
 11 14  1  0  0  0  0
 14 15  1  0  0  0  0
 14 16  1  0  0  0  0
 14 17  1  0  0  0  0
 17 18  1  0  0  0  0
 17 19  1  0  0  0  0
 17 20  1  0  0  0  0
M  END
> <VConfSearch Rank>
869

> <Conf_Id>
35

> <Delta U+W>
3.004

> <U+W>
-33.272

> <U>
25.367

> <W>
-58.639

> <W(PB)>
-60.512

> <W(SA)>
1.873

> <Valence>
4.943

> <Coulomb>
19.661

> <VdW>
0.764

> <VdW6>
-5.871

> <VdW12>
6.636

> <Bond>
0.230

> <Angle>
1.857

> <Pdih>
2.855

> <Idih>
0.000

> <Tether>
0.000

$$$$
VeraChem MOL file


 20 19  0  0  0  0  0  0  0  0999 V2000     
   18.0323   19.0740   22.5378 N   0  3  0  0  0  0  0  0  0  0  0  0
   17.2078   19.0757   23.1442 H   0  0  0  0  0  0  0  0  0  0  0  0
   17.7128   18.8568   21.5899 H   0  0  0  0  0  0  0  0  0  0  0  0
   18.4087   20.0237   22.5236 H   0  0  0  0  0  0  0  0  0  0  0  0
   19.0636   18.0866   23.0111 C   0  0  2  0  0  0  0  0  0  0  0  0
   18.5719   17.1099   22.9640 H   0  0  0  0  0  0  0  0  0  0  0  0
   19.4468   18.3360   24.4806 C   0  0  0  0  0  0  0  0  0  0  0  0
   19.8635   19.3398   24.6256 H   0  0  0  0  0  0  0  0  0  0  0  0
   20.1894   17.6027   24.8187 H   0  0  0  0  0  0  0  0  0  0  0  0
   18.5670   18.2413   25.1286 H   0  0  0  0  0  0  0  0  0  0  0  0
   20.3023   18.0100   22.0822 C   0  0  0  0  0  0  0  0  0  0  0  0
   20.8329   17.0767   22.3122 H   0  0  0  0  0  0  0  0  0  0  0  0
   19.9620   17.9025   21.0440 H   0  0  0  0  0  0  0  0  0  0  0  0
   21.3300   19.1734   22.1667 C   0  0  0  0  0  0  0  0  0  0  0  0
   22.1601   18.9428   21.4843 H   0  0  0  0  0  0  0  0  0  0  0  0
   21.7763   19.2153   23.1695 H   0  0  0  0  0  0  0  0  0  0  0  0
   20.7650   20.5620   21.7907 C   0  0  0  0  0  0  0  0  0  0  0  0
   20.2367   20.5301   20.8289 H   0  0  0  0  0  0  0  0  0  0  0  0
   21.5804   21.2912   21.6979 H   0  0  0  0  0  0  0  0  0  0  0  0
   20.0812   20.9412   22.5587 H   0  0  0  0  0  0  0  0  0  0  0  0
  1  2  1  0  0  0  0
  1  3  1  0  0  0  0
  1  4  1  0  0  0  0
  1  5  1  0  0  0  0
  5  6  1  0  0  0  0
  5  7  1  0  0  0  0
  7  8  1  0  0  0  0
  7  9  1  0  0  0  0
  7 10  1  0  0  0  0
  5 11  1  0  0  0  0
 11 12  1  0  0  0  0
 11 13  1  0  0  0  0
 11 14  1  0  0  0  0
 14 15  1  0  0  0  0
 14 16  1  0  0  0  0
 14 17  1  0  0  0  0
 17 18  1  0  0  0  0
 17 19  1  0  0  0  0
 17 20  1  0  0  0  0
M  END
> <VConfSearch Rank>
870

> <Conf_Id>
55

> <Delta U+W>
2.767

> <U+W>
-33.509

> <U>
24.552

> <W>
-58.061

> <W(PB)>
-59.930

> <W(SA)>
1.869

> <Valence>
3.726

> <Coulomb>
20.219

> <VdW>
0.606

> <VdW6>
-6.395

> <VdW12>
7.001

> <Bond>
0.241

> <Angle>
2.098

> <Pdih>
1.387

> <Idih>
0.000

> <Tether>
0.000

$$$$
VeraChem MOL file


 20 19  0  0  0  0  0  0  0  0999 V2000     
   20.6814   18.5859   21.0225 N   0  3  0  0  0  0  0  0  0  0  0  0
   21.1114   17.6994   21.2976 H   0  0  0  0  0  0  0  0  0  0  0  0
   21.2527   18.9820   20.2713 H   0  0  0  0  0  0  0  0  0  0  0  0
   19.7632   18.3723   20.6253 H   0  0  0  0  0  0  0  0  0  0  0  0
   20.5725   19.5313   22.1885 C   0  0  2  0  0  0  0  0  0  0  0  0
   20.1023   20.4445   21.8106 H   0  0  0  0  0  0  0  0  0  0  0  0
   21.9682   19.8941   22.7218 C   0  0  0  0  0  0  0  0  0  0  0  0
   22.5869   20.3285   21.9270 H   0  0  0  0  0  0  0  0  0  0  0  0
   22.4863   19.0097   23.1134 H   0  0  0  0  0  0  0  0  0  0  0  0
   21.8973   20.6336   23.5291 H   0  0  0  0  0  0  0  0  0  0  0  0
   19.6918   18.9705   23.3270 C   0  0  0  0  0  0  0  0  0  0  0  0
   20.1300   18.0388   23.7088 H   0  0  0  0  0  0  0  0  0  0  0  0
   19.6963   19.6836   24.1622 H   0  0  0  0  0  0  0  0  0  0  0  0
   18.2274   18.7203   22.8928 C   0  0  0  0  0  0  0  0  0  0  0  0
   18.1914   17.9667   22.0945 H   0  0  0  0  0  0  0  0  0  0  0  0
   17.8013   19.6446   22.4775 H   0  0  0  0  0  0  0  0  0  0  0  0
   17.3565   18.2420   24.0742 C   0  0  0  0  0  0  0  0  0  0  0  0
   17.7399   17.3021   24.4924 H   0  0  0  0  0  0  0  0  0  0  0  0
   16.3227   18.0683   23.7484 H   0  0  0  0  0  0  0  0  0  0  0  0
   17.3345   18.9897   24.8778 H   0  0  0  0  0  0  0  0  0  0  0  0
  1  2  1  0  0  0  0
  1  3  1  0  0  0  0
  1  4  1  0  0  0  0
  1  5  1  0  0  0  0
  5  6  1  0  0  0  0
  5  7  1  0  0  0  0
  7  8  1  0  0  0  0
  7  9  1  0  0  0  0
  7 10  1  0  0  0  0
  5 11  1  0  0  0  0
 11 12  1  0  0  0  0
 11 13  1  0  0  0  0
 11 14  1  0  0  0  0
 14 15  1  0  0  0  0
 14 16  1  0  0  0  0
 14 17  1  0  0  0  0
 17 18  1  0  0  0  0
 17 19  1  0  0  0  0
 17 20  1  0  0  0  0
M  END
> <VConfSearch Rank>
871

> <Conf_Id>
74

> <Delta U+W>
0.000

> <U+W>
-36.276

> <U>
22.080

> <W>
-58.356

> <W(PB)>
-60.289

> <W(SA)>
1.932

> <Valence>
1.885

> <Coulomb>
19.559

> <VdW>
0.637

> <VdW6>
-4.482

> <VdW12>
5.119

> <Bond>
0.136

> <Angle>
0.867

> <Pdih>
0.882

> <Idih>
0.000

> <Tether>
0.000

$$$$
VeraChem MOL file


 20 19  0  0  0  0  0  0  0  0999 V2000     
   17.5709   18.0821   22.1818 N   0  3  0  0  0  0  0  0  0  0  0  0
   16.9722   18.8836   22.3986 H   0  0  0  0  0  0  0  0  0  0  0  0
   17.4823   17.4161   22.9534 H   0  0  0  0  0  0  0  0  0  0  0  0
   17.1843   17.6334   21.3470 H   0  0  0  0  0  0  0  0  0  0  0  0
   19.0012   18.4975   21.9716 C   0  0  2  0  0  0  0  0  0  0  0  0
   18.9977   19.2007   21.1330 H   0  0  0  0  0  0  0  0  0  0  0  0
   19.8589   17.2798   21.5813 C   0  0  0  0  0  0  0  0  0  0  0  0
   19.4131   16.7500   20.7305 H   0  0  0  0  0  0  0  0  0  0  0  0
   19.9459   16.5716   22.4146 H   0  0  0  0  0  0  0  0  0  0  0  0
   20.8683   17.5824   21.2802 H   0  0  0  0  0  0  0  0  0  0  0  0
   19.5594   19.2295   23.2142 C   0  0  0  0  0  0  0  0  0  0  0  0
   18.8485   20.0149   23.5032 H   0  0  0  0  0  0  0  0  0  0  0  0
   19.6131   18.5325   24.0610 H   0  0  0  0  0  0  0  0  0  0  0  0
   20.9452   19.8811   22.9861 C   0  0  0  0  0  0  0  0  0  0  0  0
   20.9082   20.5307   22.1002 H   0  0  0  0  0  0  0  0  0  0  0  0
   21.7006   19.1099   22.7845 H   0  0  0  0  0  0  0  0  0  0  0  0
   21.3935   20.7095   24.2094 C   0  0  0  0  0  0  0  0  0  0  0  0
   20.6848   21.5214   24.4190 H   0  0  0  0  0  0  0  0  0  0  0  0
   22.3784   21.1608   24.0322 H   0  0  0  0  0  0  0  0  0  0  0  0
   21.4679   20.0808   25.1063 H   0  0  0  0  0  0  0  0  0  0  0  0
  1  2  1  0  0  0  0
  1  3  1  0  0  0  0
  1  4  1  0  0  0  0
  1  5  1  0  0  0  0
  5  6  1  0  0  0  0
  5  7  1  0  0  0  0
  7  8  1  0  0  0  0
  7  9  1  0  0  0  0
  7 10  1  0  0  0  0
  5 11  1  0  0  0  0
 11 12  1  0  0  0  0
 11 13  1  0  0  0  0
 11 14  1  0  0  0  0
 14 15  1  0  0  0  0
 14 16  1  0  0  0  0
 14 17  1  0  0  0  0
 17 18  1  0  0  0  0
 17 19  1  0  0  0  0
 17 20  1  0  0  0  0
M  END
> <VConfSearch Rank>
872

> <Conf_Id>
80

> <Delta U+W>
0.460

> <U+W>
-35.817

> <U>
22.495

> <W>
-58.311

> <W(PB)>
-60.259

> <W(SA)>
1.948

> <Valence>
2.419

> <Coulomb>
19.304

> <VdW>
0.772

> <VdW6>
-4.635

> <VdW12>
5.407

> <Bond>
0.149

> <Angle>
1.142

> <Pdih>
1.129

> <Idih>
0.000

> <Tether>
0.000

$$$$
VeraChem MOL file


 20 19  0  0  0  0  0  0  0  0999 V2000     
   22.1511   18.9709   22.6026 N   0  3  0  0  0  0  0  0  0  0  0  0
   22.4650   19.1638   21.6476 H   0  0  0  0  0  0  0  0  0  0  0  0
   22.2839   17.9709   22.7728 H   0  0  0  0  0  0  0  0  0  0  0  0
   22.7801   19.4732   23.2348 H   0  0  0  0  0  0  0  0  0  0  0  0
   20.7188   19.3809   22.8104 C   0  0  2  0  0  0  0  0  0  0  0  0
   20.6765   20.4566   22.6135 H   0  0  0  0  0  0  0  0  0  0  0  0
   20.3048   19.1462   24.2732 C   0  0  0  0  0  0  0  0  0  0  0  0
   21.0370   19.5895   24.9591 H   0  0  0  0  0  0  0  0  0  0  0  0
   20.2308   18.0753   24.4993 H   0  0  0  0  0  0  0  0  0  0  0  0
   19.3383   19.6162   24.4879 H   0  0  0  0  0  0  0  0  0  0  0  0
   19.7852   18.6708   21.7997 C   0  0  0  0  0  0  0  0  0  0  0  0
   20.1804   18.8651   20.7938 H   0  0  0  0  0  0  0  0  0  0  0  0
   19.8370   17.5824   21.9353 H   0  0  0  0  0  0  0  0  0  0  0  0
   18.3082   19.1453   21.8263 C   0  0  0  0  0  0  0  0  0  0  0  0
   17.9233   19.1502   20.7967 H   0  0  0  0  0  0  0  0  0  0  0  0
   18.2472   20.1859   22.1749 H   0  0  0  0  0  0  0  0  0  0  0  0
   17.3859   18.2379   22.6742 C   0  0  0  0  0  0  0  0  0  0  0  0
   17.3819   17.2111   22.2860 H   0  0  0  0  0  0  0  0  0  0  0  0
   16.3526   18.6073   22.6461 H   0  0  0  0  0  0  0  0  0  0  0  0
   17.6958   18.1996   23.7244 H   0  0  0  0  0  0  0  0  0  0  0  0
  1  2  1  0  0  0  0
  1  3  1  0  0  0  0
  1  4  1  0  0  0  0
  1  5  1  0  0  0  0
  5  6  1  0  0  0  0
  5  7  1  0  0  0  0
  7  8  1  0  0  0  0
  7  9  1  0  0  0  0
  7 10  1  0  0  0  0
  5 11  1  0  0  0  0
 11 12  1  0  0  0  0
 11 13  1  0  0  0  0
 11 14  1  0  0  0  0
 14 15  1  0  0  0  0
 14 16  1  0  0  0  0
 14 17  1  0  0  0  0
 17 18  1  0  0  0  0
 17 19  1  0  0  0  0
 17 20  1  0  0  0  0
M  END
> <VConfSearch Rank>
873

> <Conf_Id>
52

> <Delta U+W>
2.995

> <U+W>
-33.282

> <U>
25.224

> <W>
-58.506

> <W(PB)>
-60.411

> <W(SA)>
1.905

> <Valence>
4.945

> <Coulomb>
19.467

> <VdW>
0.813

> <VdW6>
-5.458

> <VdW12>
6.270

> <Bond>
0.200

> <Angle>
1.675

> <Pdih>
3.070

> <Idih>
0.000

> <Tether>
0.000

$$$$
VeraChem MOL file


 20 19  0  0  0  0  0  0  0  0999 V2000     
   19.9836   20.3613   23.6180 N   0  3  0  0  0  0  0  0  0  0  0  0
   20.3561   20.0305   24.5114 H   0  0  0  0  0  0  0  0  0  0  0  0
   19.5934   21.2943   23.7758 H   0  0  0  0  0  0  0  0  0  0  0  0
   20.7726   20.4609   22.9757 H   0  0  0  0  0  0  0  0  0  0  0  0
   18.9499   19.4152   23.0706 C   0  0  2  0  0  0  0  0  0  0  0  0
   18.5657   19.8574   22.1462 H   0  0  0  0  0  0  0  0  0  0  0  0
   17.7823   19.2872   24.0637 C   0  0  0  0  0  0  0  0  0  0  0  0
   18.1110   18.8326   25.0066 H   0  0  0  0  0  0  0  0  0  0  0  0
   16.9800   18.6662   23.6462 H   0  0  0  0  0  0  0  0  0  0  0  0
   17.3544   20.2717   24.2897 H   0  0  0  0  0  0  0  0  0  0  0  0
   19.5302   18.0200   22.7376 C   0  0  0  0  0  0  0  0  0  0  0  0
   20.1442   17.6605   23.5738 H   0  0  0  0  0  0  0  0  0  0  0  0
   18.6992   17.3076   22.6481 H   0  0  0  0  0  0  0  0  0  0  0  0
   20.3364   17.9501   21.4140 C   0  0  0  0  0  0  0  0  0  0  0  0
   19.7000   18.2666   20.5757 H   0  0  0  0  0  0  0  0  0  0  0  0
   20.5879   16.8976   21.2219 H   0  0  0  0  0  0  0  0  0  0  0  0
   21.6454   18.7721   21.4068 C   0  0  0  0  0  0  0  0  0  0  0  0
   22.2502   18.5134   20.5279 H   0  0  0  0  0  0  0  0  0  0  0  0
   22.2514   18.5664   22.2989 H   0  0  0  0  0  0  0  0  0  0  0  0
   21.4466   19.8486   21.3512 H   0  0  0  0  0  0  0  0  0  0  0  0
  1  2  1  0  0  0  0
  1  3  1  0  0  0  0
  1  4  1  0  0  0  0
  1  5  1  0  0  0  0
  5  6  1  0  0  0  0
  5  7  1  0  0  0  0
  7  8  1  0  0  0  0
  7  9  1  0  0  0  0
  7 10  1  0  0  0  0
  5 11  1  0  0  0  0
 11 12  1  0  0  0  0
 11 13  1  0  0  0  0
 11 14  1  0  0  0  0
 14 15  1  0  0  0  0
 14 16  1  0  0  0  0
 14 17  1  0  0  0  0
 17 18  1  0  0  0  0
 17 19  1  0  0  0  0
 17 20  1  0  0  0  0
M  END
> <VConfSearch Rank>
874

> <Conf_Id>
54

> <Delta U+W>
2.752

> <U+W>
-33.525

> <U>
24.337

> <W>
-57.862

> <W(PB)>
-59.764

> <W(SA)>
1.901

> <Valence>
3.593

> <Coulomb>
20.067

> <VdW>
0.677

> <VdW6>
-5.466

> <VdW12>
6.144

> <Bond>
0.191

> <Angle>
1.557

> <Pdih>
1.845

> <Idih>
0.000

> <Tether>
0.000

$$$$
VeraChem MOL file


 20 19  0  0  0  0  0  0  0  0999 V2000     
   18.1538   17.7411   22.2229 N   0  3  0  0  0  0  0  0  0  0  0  0
   17.1505   17.7316   22.0205 H   0  0  0  0  0  0  0  0  0  0  0  0
   18.3841   16.8440   22.6587 H   0  0  0  0  0  0  0  0  0  0  0  0
   18.6455   17.7830   21.3275 H   0  0  0  0  0  0  0  0  0  0  0  0
   18.5257   18.8985   23.1095 C   0  0  2  0  0  0  0  0  0  0  0  0
   17.9418   18.7766   24.0272 H   0  0  0  0  0  0  0  0  0  0  0  0
   18.1138   20.2377   22.4725 C   0  0  0  0  0  0  0  0  0  0  0  0
   18.3881   21.0789   23.1210 H   0  0  0  0  0  0  0  0  0  0  0  0
   17.0276   20.2737   22.3240 H   0  0  0  0  0  0  0  0  0  0  0  0
   18.5898   20.3865   21.4961 H   0  0  0  0  0  0  0  0  0  0  0  0
   20.0199   18.8808   23.5119 C   0  0  0  0  0  0  0  0  0  0  0  0
   20.2026   19.6943   24.2265 H   0  0  0  0  0  0  0  0  0  0  0  0
   20.2212   17.9498   24.0580 H   0  0  0  0  0  0  0  0  0  0  0  0
   21.0174   19.0035   22.3311 C   0  0  0  0  0  0  0  0  0  0  0  0
   20.8659   19.9542   21.8028 H   0  0  0  0  0  0  0  0  0  0  0  0
   20.8418   18.2016   21.6014 H   0  0  0  0  0  0  0  0  0  0  0  0
   22.4811   18.9301   22.8162 C   0  0  0  0  0  0  0  0  0  0  0  0
   23.1750   19.0204   21.9704 H   0  0  0  0  0  0  0  0  0  0  0  0
   22.6843   17.9746   23.3171 H   0  0  0  0  0  0  0  0  0  0  0  0
   22.7044   19.7405   23.5224 H   0  0  0  0  0  0  0  0  0  0  0  0
  1  2  1  0  0  0  0
  1  3  1  0  0  0  0
  1  4  1  0  0  0  0
  1  5  1  0  0  0  0
  5  6  1  0  0  0  0
  5  7  1  0  0  0  0
  7  8  1  0  0  0  0
  7  9  1  0  0  0  0
  7 10  1  0  0  0  0
  5 11  1  0  0  0  0
 11 12  1  0  0  0  0
 11 13  1  0  0  0  0
 11 14  1  0  0  0  0
 14 15  1  0  0  0  0
 14 16  1  0  0  0  0
 14 17  1  0  0  0  0
 17 18  1  0  0  0  0
 17 19  1  0  0  0  0
 17 20  1  0  0  0  0
M  END
> <VConfSearch Rank>
875

> <Conf_Id>
63

> <Delta U+W>
0.420

> <U+W>
-35.856

> <U>
22.625

> <W>
-58.481

> <W(PB)>
-60.400

> <W(SA)>
1.919

> <Valence>
2.404

> <Coulomb>
19.464

> <VdW>
0.757

> <VdW6>
-5.074

> <VdW12>
5.830

> <Bond>
0.172

> <Angle>
1.207

> <Pdih>
1.025

> <Idih>
0.000

> <Tether>
0.000

$$$$
VeraChem MOL file


 20 19  0  0  0  0  0  0  0  0999 V2000     
   18.9039   18.8283   24.3446 N   0  3  0  0  0  0  0  0  0  0  0  0
   18.8244   19.8474   24.2996 H   0  0  0  0  0  0  0  0  0  0  0  0
   19.5964   18.6048   25.0635 H   0  0  0  0  0  0  0  0  0  0  0  0
   18.0022   18.4652   24.6649 H   0  0  0  0  0  0  0  0  0  0  0  0
   19.2890   18.2505   23.0096 C   0  0  2  0  0  0  0  0  0  0  0  0
   18.5000   18.5316   22.3056 H   0  0  0  0  0  0  0  0  0  0  0  0
   19.3443   16.7156   23.0778 C   0  0  0  0  0  0  0  0  0  0  0  0
   18.3822   16.3067   23.4103 H   0  0  0  0  0  0  0  0  0  0  0  0
   20.1194   16.3763   23.7762 H   0  0  0  0  0  0  0  0  0  0  0  0
   19.5633   16.2893   22.0909 H   0  0  0  0  0  0  0  0  0  0  0  0
   20.6294   18.8145   22.4859 C   0  0  0  0  0  0  0  0  0  0  0  0
   21.4378   18.5283   23.1718 H   0  0  0  0  0  0  0  0  0  0  0  0
   20.8634   18.3424   21.5225 H   0  0  0  0  0  0  0  0  0  0  0  0
   20.6422   20.3532   22.3013 C   0  0  0  0  0  0  0  0  0  0  0  0
   21.6323   20.6557   21.9326 H   0  0  0  0  0  0  0  0  0  0  0  0
   20.5159   20.8534   23.2711 H   0  0  0  0  0  0  0  0  0  0  0  0
   19.5651   20.8538   21.3121 C   0  0  0  0  0  0  0  0  0  0  0  0
   19.6712   20.3671   20.3338 H   0  0  0  0  0  0  0  0  0  0  0  0
   19.6577   21.9368   21.1585 H   0  0  0  0  0  0  0  0  0  0  0  0
   18.5514   20.6583   21.6840 H   0  0  0  0  0  0  0  0  0  0  0  0
  1  2  1  0  0  0  0
  1  3  1  0  0  0  0
  1  4  1  0  0  0  0
  1  5  1  0  0  0  0
  5  6  1  0  0  0  0
  5  7  1  0  0  0  0
  7  8  1  0  0  0  0
  7  9  1  0  0  0  0
  7 10  1  0  0  0  0
  5 11  1  0  0  0  0
 11 12  1  0  0  0  0
 11 13  1  0  0  0  0
 11 14  1  0  0  0  0
 14 15  1  0  0  0  0
 14 16  1  0  0  0  0
 14 17  1  0  0  0  0
 17 18  1  0  0  0  0
 17 19  1  0  0  0  0
 17 20  1  0  0  0  0
M  END
> <VConfSearch Rank>
876

> <Conf_Id>
50

> <Delta U+W>
0.466

> <U+W>
-35.811

> <U>
22.369

> <W>
-58.180

> <W(PB)>
-60.103

> <W(SA)>
1.923

> <Valence>
2.168

> <Coulomb>
19.636

> <VdW>
0.566

> <VdW6>
-5.263

> <VdW12>
5.829

> <Bond>
0.162

> <Angle>
1.066

> <Pdih>
0.939

> <Idih>
0.000

> <Tether>
0.000

$$$$
VeraChem MOL file


 20 19  0  0  0  0  0  0  0  0999 V2000     
   18.4059   20.6413   23.5478 N   0  3  0  0  0  0  0  0  0  0  0  0
   17.4600   20.2556   23.6152 H   0  0  0  0  0  0  0  0  0  0  0  0
   18.3956   21.3534   22.8131 H   0  0  0  0  0  0  0  0  0  0  0  0
   18.6011   21.1190   24.4317 H   0  0  0  0  0  0  0  0  0  0  0  0
   19.4234   19.5694   23.2646 C   0  0  2  0  0  0  0  0  0  0  0  0
   19.3577   18.8598   24.0952 H   0  0  0  0  0  0  0  0  0  0  0  0
   20.8382   20.1778   23.2458 C   0  0  0  0  0  0  0  0  0  0  0  0
   20.9336   20.9320   22.4548 H   0  0  0  0  0  0  0  0  0  0  0  0
   21.6035   19.4129   23.0750 H   0  0  0  0  0  0  0  0  0  0  0  0
   21.0632   20.6618   24.2040 H   0  0  0  0  0  0  0  0  0  0  0  0
   19.1104   18.8069   21.9536 C   0  0  0  0  0  0  0  0  0  0  0  0
   18.0665   18.9943   21.6693 H   0  0  0  0  0  0  0  0  0  0  0  0
   19.7168   19.2002   21.1268 H   0  0  0  0  0  0  0  0  0  0  0  0
   19.2899   17.2714   22.0626 C   0  0  0  0  0  0  0  0  0  0  0  0
   18.9721   16.8130   21.1156 H   0  0  0  0  0  0  0  0  0  0  0  0
   18.6144   16.8764   22.8344 H   0  0  0  0  0  0  0  0  0  0  0  0
   20.7362   16.8242   22.3700 C   0  0  0  0  0  0  0  0  0  0  0  0
   21.4430   17.2386   21.6395 H   0  0  0  0  0  0  0  0  0  0  0  0
   20.8160   15.7302   22.3292 H   0  0  0  0  0  0  0  0  0  0  0  0
   21.0480   17.1379   23.3740 H   0  0  0  0  0  0  0  0  0  0  0  0
  1  2  1  0  0  0  0
  1  3  1  0  0  0  0
  1  4  1  0  0  0  0
  1  5  1  0  0  0  0
  5  6  1  0  0  0  0
  5  7  1  0  0  0  0
  7  8  1  0  0  0  0
  7  9  1  0  0  0  0
  7 10  1  0  0  0  0
  5 11  1  0  0  0  0
 11 12  1  0  0  0  0
 11 13  1  0  0  0  0
 11 14  1  0  0  0  0
 14 15  1  0  0  0  0
 14 16  1  0  0  0  0
 14 17  1  0  0  0  0
 17 18  1  0  0  0  0
 17 19  1  0  0  0  0
 17 20  1  0  0  0  0
M  END
> <VConfSearch Rank>
877

> <Conf_Id>
3

> <Delta U+W>
3.093

> <U+W>
-33.184

> <U>
25.256

> <W>
-58.439

> <W(PB)>
-60.337

> <W(SA)>
1.898

> <Valence>
4.963

> <Coulomb>
19.511

> <VdW>
0.782

> <VdW6>
-5.429

> <VdW12>
6.211

> <Bond>
0.174

> <Angle>
1.377

> <Pdih>
3.412

> <Idih>
0.000

> <Tether>
0.000

$$$$
VeraChem MOL file


 20 19  0  0  0  0  0  0  0  0999 V2000     
   20.5084   16.8322   22.4920 N   0  3  0  0  0  0  0  0  0  0  0  0
   20.7056   16.2045   23.2760 H   0  0  0  0  0  0  0  0  0  0  0  0
   21.3924   16.9885   22.0001 H   0  0  0  0  0  0  0  0  0  0  0  0
   19.8859   16.3327   21.8519 H   0  0  0  0  0  0  0  0  0  0  0  0
   19.8977   18.1243   22.9608 C   0  0  2  0  0  0  0  0  0  0  0  0
   20.6271   18.5807   23.6367 H   0  0  0  0  0  0  0  0  0  0  0  0
   18.6063   17.8499   23.7528 C   0  0  0  0  0  0  0  0  0  0  0  0
   18.2239   18.7651   24.2194 H   0  0  0  0  0  0  0  0  0  0  0  0
   18.7923   17.1286   24.5579 H   0  0  0  0  0  0  0  0  0  0  0  0
   17.8219   17.4410   23.1040 H   0  0  0  0  0  0  0  0  0  0  0  0
   19.6590   19.0927   21.7777 C   0  0  0  0  0  0  0  0  0  0  0  0
   20.5919   19.1856   21.2061 H   0  0  0  0  0  0  0  0  0  0  0  0
   18.9238   18.6530   21.0909 H   0  0  0  0  0  0  0  0  0  0  0  0
   19.1898   20.5146   22.1791 C   0  0  0  0  0  0  0  0  0  0  0  0
   18.1923   20.4722   22.6368 H   0  0  0  0  0  0  0  0  0  0  0  0
   19.0760   21.1179   21.2676 H   0  0  0  0  0  0  0  0  0  0  0  0
   20.1727   21.2301   23.1336 C   0  0  0  0  0  0  0  0  0  0  0  0
   21.1790   21.2820   22.6979 H   0  0  0  0  0  0  0  0  0  0  0  0
   20.2430   20.7154   24.1002 H   0  0  0  0  0  0  0  0  0  0  0  0
   19.8393   22.2574   23.3297 H   0  0  0  0  0  0  0  0  0  0  0  0
  1  2  1  0  0  0  0
  1  3  1  0  0  0  0
  1  4  1  0  0  0  0
  1  5  1  0  0  0  0
  5  6  1  0  0  0  0
  5  7  1  0  0  0  0
  7  8  1  0  0  0  0
  7  9  1  0  0  0  0
  7 10  1  0  0  0  0
  5 11  1  0  0  0  0
 11 12  1  0  0  0  0
 11 13  1  0  0  0  0
 11 14  1  0  0  0  0
 14 15  1  0  0  0  0
 14 16  1  0  0  0  0
 14 17  1  0  0  0  0
 17 18  1  0  0  0  0
 17 19  1  0  0  0  0
 17 20  1  0  0  0  0
M  END
> <VConfSearch Rank>
878

> <Conf_Id>
64

> <Delta U+W>
0.544

> <U+W>
-35.732

> <U>
22.800

> <W>
-58.532

> <W(PB)>
-60.437

> <W(SA)>
1.905

> <Valence>
2.662

> <Coulomb>
19.485

> <VdW>
0.653

> <VdW6>
-5.460

> <VdW12>
6.113

> <Bond>
0.174

> <Angle>
1.378

> <Pdih>
1.109

> <Idih>
0.000

> <Tether>
0.000

$$$$
VeraChem MOL file


 20 19  0  0  0  0  0  0  0  0999 V2000     
   18.7970   20.7101   22.1675 N   0  3  0  0  0  0  0  0  0  0  0  0
   18.2584   20.0115   21.6505 H   0  0  0  0  0  0  0  0  0  0  0  0
   19.0096   21.4731   21.5193 H   0  0  0  0  0  0  0  0  0  0  0  0
   18.1869   21.0914   22.8955 H   0  0  0  0  0  0  0  0  0  0  0  0
   20.0515   20.1177   22.7506 C   0  0  2  0  0  0  0  0  0  0  0  0
   20.5573   20.9387   23.2685 H   0  0  0  0  0  0  0  0  0  0  0  0
   20.9935   19.6262   21.6394 C   0  0  0  0  0  0  0  0  0  0  0  0
   20.5009   18.8926   20.9907 H   0  0  0  0  0  0  0  0  0  0  0  0
   21.8945   19.1675   22.0651 H   0  0  0  0  0  0  0  0  0  0  0  0
   21.3135   20.4655   21.0099 H   0  0  0  0  0  0  0  0  0  0  0  0
   19.7514   19.0305   23.8131 C   0  0  0  0  0  0  0  0  0  0  0  0
   20.6818   18.7583   24.3286 H   0  0  0  0  0  0  0  0  0  0  0  0
   19.1194   19.4909   24.5839 H   0  0  0  0  0  0  0  0  0  0  0  0
   19.0382   17.7481   23.3012 C   0  0  0  0  0  0  0  0  0  0  0  0
   18.3827   17.9772   22.4508 H   0  0  0  0  0  0  0  0  0  0  0  0
   18.3767   17.3789   24.0975 H   0  0  0  0  0  0  0  0  0  0  0  0
   20.0124   16.6055   22.9297 C   0  0  0  0  0  0  0  0  0  0  0  0
   20.6802   16.8823   22.1066 H   0  0  0  0  0  0  0  0  0  0  0  0
   19.4549   15.7131   22.6168 H   0  0  0  0  0  0  0  0  0  0  0  0
   20.6338   16.3237   23.7897 H   0  0  0  0  0  0  0  0  0  0  0  0
  1  2  1  0  0  0  0
  1  3  1  0  0  0  0
  1  4  1  0  0  0  0
  1  5  1  0  0  0  0
  5  6  1  0  0  0  0
  5  7  1  0  0  0  0
  7  8  1  0  0  0  0
  7  9  1  0  0  0  0
  7 10  1  0  0  0  0
  5 11  1  0  0  0  0
 11 12  1  0  0  0  0
 11 13  1  0  0  0  0
 11 14  1  0  0  0  0
 14 15  1  0  0  0  0
 14 16  1  0  0  0  0
 14 17  1  0  0  0  0
 17 18  1  0  0  0  0
 17 19  1  0  0  0  0
 17 20  1  0  0  0  0
M  END
> <VConfSearch Rank>
879

> <Conf_Id>
35

> <Delta U+W>
3.004

> <U+W>
-33.272

> <U>
25.367

> <W>
-58.639

> <W(PB)>
-60.512

> <W(SA)>
1.873

> <Valence>
4.943

> <Coulomb>
19.661

> <VdW>
0.764

> <VdW6>
-5.871

> <VdW12>
6.636

> <Bond>
0.230

> <Angle>
1.857

> <Pdih>
2.855

> <Idih>
0.000

> <Tether>
0.000

$$$$
VeraChem MOL file


 20 19  0  0  0  0  0  0  0  0999 V2000     
   21.4332   19.1726   22.0025 N   0  3  0  0  0  0  0  0  0  0  0  0
   22.3106   19.6461   22.2339 H   0  0  0  0  0  0  0  0  0  0  0  0
   21.4615   18.9495   21.0040 H   0  0  0  0  0  0  0  0  0  0  0  0
   21.4142   18.2879   22.5133 H   0  0  0  0  0  0  0  0  0  0  0  0
   20.2404   20.0235   22.3430 C   0  0  2  0  0  0  0  0  0  0  0  0
   20.3435   20.9244   21.7301 H   0  0  0  0  0  0  0  0  0  0  0  0
   20.2689   20.4663   23.8166 C   0  0  0  0  0  0  0  0  0  0  0  0
   20.2636   19.6071   24.4978 H   0  0  0  0  0  0  0  0  0  0  0  0
   19.4018   21.0964   24.0501 H   0  0  0  0  0  0  0  0  0  0  0  0
   21.1719   21.0532   24.0241 H   0  0  0  0  0  0  0  0  0  0  0  0
   18.8930   19.3655   21.9496 C   0  0  0  0  0  0  0  0  0  0  0  0
   18.1293   20.1543   21.9367 H   0  0  0  0  0  0  0  0  0  0  0  0
   18.9605   19.0094   20.9133 H   0  0  0  0  0  0  0  0  0  0  0  0
   18.3708   18.2141   22.8541 C   0  0  0  0  0  0  0  0  0  0  0  0
   17.3938   17.8941   22.4656 H   0  0  0  0  0  0  0  0  0  0  0  0
   18.1764   18.5855   23.8694 H   0  0  0  0  0  0  0  0  0  0  0  0
   19.2945   16.9767   22.9213 C   0  0  0  0  0  0  0  0  0  0  0  0
   19.5757   16.6345   21.9168 H   0  0  0  0  0  0  0  0  0  0  0  0
   18.7811   16.1464   23.4236 H   0  0  0  0  0  0  0  0  0  0  0  0
   20.2059   17.1838   23.4936 H   0  0  0  0  0  0  0  0  0  0  0  0
  1  2  1  0  0  0  0
  1  3  1  0  0  0  0
  1  4  1  0  0  0  0
  1  5  1  0  0  0  0
  5  6  1  0  0  0  0
  5  7  1  0  0  0  0
  7  8  1  0  0  0  0
  7  9  1  0  0  0  0
  7 10  1  0  0  0  0
  5 11  1  0  0  0  0
 11 12  1  0  0  0  0
 11 13  1  0  0  0  0
 11 14  1  0  0  0  0
 14 15  1  0  0  0  0
 14 16  1  0  0  0  0
 14 17  1  0  0  0  0
 17 18  1  0  0  0  0
 17 19  1  0  0  0  0
 17 20  1  0  0  0  0
M  END
> <VConfSearch Rank>
880

> <Conf_Id>
55

> <Delta U+W>
2.767

> <U+W>
-33.509

> <U>
24.552

> <W>
-58.061

> <W(PB)>
-59.930

> <W(SA)>
1.869

> <Valence>
3.726

> <Coulomb>
20.219

> <VdW>
0.606

> <VdW6>
-6.395

> <VdW12>
7.001

> <Bond>
0.241

> <Angle>
2.098

> <Pdih>
1.387

> <Idih>
0.000

> <Tether>
0.000

$$$$
VeraChem MOL file


 20 19  0  0  0  0  0  0  0  0999 V2000     
   18.7094   20.5330   22.1486 N   0  3  0  0  0  0  0  0  0  0  0  0
   19.2896   21.2442   22.6004 H   0  0  0  0  0  0  0  0  0  0  0  0
   17.7730   20.9304   22.0346 H   0  0  0  0  0  0  0  0  0  0  0  0
   19.0888   20.3763   21.2115 H   0  0  0  0  0  0  0  0  0  0  0  0
   18.6736   19.2597   22.9501 C   0  0  2  0  0  0  0  0  0  0  0  0
   18.0404   18.5580   22.3983 H   0  0  0  0  0  0  0  0  0  0  0  0
   18.0334   19.5056   24.3262 C   0  0  0  0  0  0  0  0  0  0  0  0
   17.0250   19.9231   24.2165 H   0  0  0  0  0  0  0  0  0  0  0  0
   18.6305   20.2067   24.9228 H   0  0  0  0  0  0  0  0  0  0  0  0
   17.9451   18.5678   24.8886 H   0  0  0  0  0  0  0  0  0  0  0  0
   20.0711   18.6223   23.1143 C   0  0  0  0  0  0  0  0  0  0  0  0
   20.7346   19.3176   23.6456 H   0  0  0  0  0  0  0  0  0  0  0  0
   19.9810   17.7300   23.7482 H   0  0  0  0  0  0  0  0  0  0  0  0
   20.7127   18.2138   21.7664 C   0  0  0  0  0  0  0  0  0  0  0  0
   20.8657   19.0993   21.1347 H   0  0  0  0  0  0  0  0  0  0  0  0
   20.0319   17.5463   21.2194 H   0  0  0  0  0  0  0  0  0  0  0  0
   22.0681   17.5041   21.9722 C   0  0  0  0  0  0  0  0  0  0  0  0
   22.7817   18.1579   22.4905 H   0  0  0  0  0  0  0  0  0  0  0  0
   22.5091   17.2229   21.0070 H   0  0  0  0  0  0  0  0  0  0  0  0
   21.9493   16.5888   22.5667 H   0  0  0  0  0  0  0  0  0  0  0  0
  1  2  1  0  0  0  0
  1  3  1  0  0  0  0
  1  4  1  0  0  0  0
  1  5  1  0  0  0  0
  5  6  1  0  0  0  0
  5  7  1  0  0  0  0
  7  8  1  0  0  0  0
  7  9  1  0  0  0  0
  7 10  1  0  0  0  0
  5 11  1  0  0  0  0
 11 12  1  0  0  0  0
 11 13  1  0  0  0  0
 11 14  1  0  0  0  0
 14 15  1  0  0  0  0
 14 16  1  0  0  0  0
 14 17  1  0  0  0  0
 17 18  1  0  0  0  0
 17 19  1  0  0  0  0
 17 20  1  0  0  0  0
M  END
> <VConfSearch Rank>
881

> <Conf_Id>
74

> <Delta U+W>
0.000

> <U+W>
-36.276

> <U>
22.080

> <W>
-58.356

> <W(PB)>
-60.289

> <W(SA)>
1.932

> <Valence>
1.885

> <Coulomb>
19.559

> <VdW>
0.637

> <VdW6>
-4.482

> <VdW12>
5.119

> <Bond>
0.136

> <Angle>
0.867

> <Pdih>
0.882

> <Idih>
0.000

> <Tether>
0.000

$$$$
VeraChem MOL file


 20 19  0  0  0  0  0  0  0  0999 V2000     
   18.5719   16.9494   22.0732 N   0  3  0  0  0  0  0  0  0  0  0  0
   18.8421   16.2970   22.8143 H   0  0  0  0  0  0  0  0  0  0  0  0
   19.1273   16.7195   21.2453 H   0  0  0  0  0  0  0  0  0  0  0  0
   17.5925   16.7586   21.8450 H   0  0  0  0  0  0  0  0  0  0  0  0
   18.7711   18.3802   22.4925 C   0  0  2  0  0  0  0  0  0  0  0  0
   18.1418   18.5331   23.3748 H   0  0  0  0  0  0  0  0  0  0  0  0
   18.2919   19.3335   21.3824 C   0  0  0  0  0  0  0  0  0  0  0  0
   17.2658   19.0903   21.0807 H   0  0  0  0  0  0  0  0  0  0  0  0
   18.9327   19.2635   20.4947 H   0  0  0  0  0  0  0  0  0  0  0  0
   18.2899   20.3750   21.7238 H   0  0  0  0  0  0  0  0  0  0  0  0
   20.2405   18.6457   22.8949 C   0  0  0  0  0  0  0  0  0  0  0  0
   20.5518   17.8689   23.6058 H   0  0  0  0  0  0  0  0  0  0  0  0
   20.8896   18.5399   22.0156 H   0  0  0  0  0  0  0  0  0  0  0  0
   20.4694   20.0303   23.5489 C   0  0  0  0  0  0  0  0  0  0  0  0
   19.7755   20.1618   24.3910 H   0  0  0  0  0  0  0  0  0  0  0  0
   20.2537   20.8318   22.8300 H   0  0  0  0  0  0  0  0  0  0  0  0
   21.9203   20.1897   24.0521 C   0  0  0  0  0  0  0  0  0  0  0  0
   22.1630   19.4310   24.8075 H   0  0  0  0  0  0  0  0  0  0  0  0
   22.0659   21.1772   24.5090 H   0  0  0  0  0  0  0  0  0  0  0  0
   22.6375   20.0918   23.2267 H   0  0  0  0  0  0  0  0  0  0  0  0
  1  2  1  0  0  0  0
  1  3  1  0  0  0  0
  1  4  1  0  0  0  0
  1  5  1  0  0  0  0
  5  6  1  0  0  0  0
  5  7  1  0  0  0  0
  7  8  1  0  0  0  0
  7  9  1  0  0  0  0
  7 10  1  0  0  0  0
  5 11  1  0  0  0  0
 11 12  1  0  0  0  0
 11 13  1  0  0  0  0
 11 14  1  0  0  0  0
 14 15  1  0  0  0  0
 14 16  1  0  0  0  0
 14 17  1  0  0  0  0
 17 18  1  0  0  0  0
 17 19  1  0  0  0  0
 17 20  1  0  0  0  0
M  END
> <VConfSearch Rank>
882

> <Conf_Id>
80

> <Delta U+W>
0.460

> <U+W>
-35.817

> <U>
22.495

> <W>
-58.311

> <W(PB)>
-60.259

> <W(SA)>
1.948

> <Valence>
2.419

> <Coulomb>
19.304

> <VdW>
0.772

> <VdW6>
-4.635

> <VdW12>
5.407

> <Bond>
0.149

> <Angle>
1.142

> <Pdih>
1.129

> <Idih>
0.000

> <Tether>
0.000

$$$$
VeraChem MOL file


 20 19  0  0  0  0  0  0  0  0999 V2000     
   20.8629   18.4570   20.6409 N   0  3  0  0  0  0  0  0  0  0  0  0
   20.6200   19.1634   19.9411 H   0  0  0  0  0  0  0  0  0  0  0  0
   20.3236   17.6146   20.4260 H   0  0  0  0  0  0  0  0  0  0  0  0
   21.8515   18.2273   20.5080 H   0  0  0  0  0  0  0  0  0  0  0  0
   20.5936   18.9433   22.0386 C   0  0  2  0  0  0  0  0  0  0  0  0
   21.2131   19.8348   22.1773 H   0  0  0  0  0  0  0  0  0  0  0  0
   21.0391   17.8875   23.0648 C   0  0  0  0  0  0  0  0  0  0  0  0
   22.0642   17.5558   22.8594 H   0  0  0  0  0  0  0  0  0  0  0  0
   20.3846   17.0074   23.0403 H   0  0  0  0  0  0  0  0  0  0  0  0
   21.0324   18.2996   24.0802 H   0  0  0  0  0  0  0  0  0  0  0  0
   19.1113   19.3579   22.2068 C   0  0  0  0  0  0  0  0  0  0  0  0
   18.8794   20.0804   21.4132 H   0  0  0  0  0  0  0  0  0  0  0  0
   18.4539   18.4969   22.0276 H   0  0  0  0  0  0  0  0  0  0  0  0
   18.7667   20.0228   23.5658 C   0  0  0  0  0  0  0  0  0  0  0  0
   18.0265   20.8160   23.3899 H   0  0  0  0  0  0  0  0  0  0  0  0
   19.6520   20.5244   23.9813 H   0  0  0  0  0  0  0  0  0  0  0  0
   18.1710   19.0374   24.5989 C   0  0  0  0  0  0  0  0  0  0  0  0
   17.2433   18.5876   24.2219 H   0  0  0  0  0  0  0  0  0  0  0  0
   17.9303   19.5602   25.5337 H   0  0  0  0  0  0  0  0  0  0  0  0
   18.8643   18.2248   24.8427 H   0  0  0  0  0  0  0  0  0  0  0  0
  1  2  1  0  0  0  0
  1  3  1  0  0  0  0
  1  4  1  0  0  0  0
  1  5  1  0  0  0  0
  5  6  1  0  0  0  0
  5  7  1  0  0  0  0
  7  8  1  0  0  0  0
  7  9  1  0  0  0  0
  7 10  1  0  0  0  0
  5 11  1  0  0  0  0
 11 12  1  0  0  0  0
 11 13  1  0  0  0  0
 11 14  1  0  0  0  0
 14 15  1  0  0  0  0
 14 16  1  0  0  0  0
 14 17  1  0  0  0  0
 17 18  1  0  0  0  0
 17 19  1  0  0  0  0
 17 20  1  0  0  0  0
M  END
> <VConfSearch Rank>
883

> <Conf_Id>
52

> <Delta U+W>
2.995

> <U+W>
-33.282

> <U>
25.224

> <W>
-58.506

> <W(PB)>
-60.411

> <W(SA)>
1.905

> <Valence>
4.945

> <Coulomb>
19.467

> <VdW>
0.813

> <VdW6>
-5.458

> <VdW12>
6.270

> <Bond>
0.200

> <Angle>
1.675

> <Pdih>
3.070

> <Idih>
0.000

> <Tether>
0.000

$$$$
VeraChem MOL file


 20 19  0  0  0  0  0  0  0  0999 V2000     
   20.7249   18.8878   24.0361 N   0  3  0  0  0  0  0  0  0  0  0  0
   20.1794   18.3597   24.7215 H   0  0  0  0  0  0  0  0  0  0  0  0
   21.4507   19.3959   24.5485 H   0  0  0  0  0  0  0  0  0  0  0  0
   21.1917   18.2105   23.4292 H   0  0  0  0  0  0  0  0  0  0  0  0
   19.8522   19.8216   23.2425 C   0  0  2  0  0  0  0  0  0  0  0  0
   20.5085   20.3824   22.5698 H   0  0  0  0  0  0  0  0  0  0  0  0
   19.1642   20.8216   24.1872 C   0  0  0  0  0  0  0  0  0  0  0  0
   18.4795   20.3109   24.8758 H   0  0  0  0  0  0  0  0  0  0  0  0
   18.5882   21.5631   23.6197 H   0  0  0  0  0  0  0  0  0  0  0  0
   19.9062   21.3662   24.7841 H   0  0  0  0  0  0  0  0  0  0  0  0
   18.8002   19.0771   22.3862 C   0  0  0  0  0  0  0  0  0  0  0  0
   18.2944   18.3149   22.9936 H   0  0  0  0  0  0  0  0  0  0  0  0
   18.0199   19.7915   22.0913 H   0  0  0  0  0  0  0  0  0  0  0  0
   19.3536   18.4416   21.0838 C   0  0  0  0  0  0  0  0  0  0  0  0
   19.8164   19.2193   20.4600 H   0  0  0  0  0  0  0  0  0  0  0  0
   18.5038   18.0550   20.5038 H   0  0  0  0  0  0  0  0  0  0  0  0
   20.3594   17.2880   21.3005 C   0  0  0  0  0  0  0  0  0  0  0  0
   20.5455   16.7648   20.3534 H   0  0  0  0  0  0  0  0  0  0  0  0
   19.9736   16.5507   22.0166 H   0  0  0  0  0  0  0  0  0  0  0  0
   21.3281   17.6576   21.6562 H   0  0  0  0  0  0  0  0  0  0  0  0
  1  2  1  0  0  0  0
  1  3  1  0  0  0  0
  1  4  1  0  0  0  0
  1  5  1  0  0  0  0
  5  6  1  0  0  0  0
  5  7  1  0  0  0  0
  7  8  1  0  0  0  0
  7  9  1  0  0  0  0
  7 10  1  0  0  0  0
  5 11  1  0  0  0  0
 11 12  1  0  0  0  0
 11 13  1  0  0  0  0
 11 14  1  0  0  0  0
 14 15  1  0  0  0  0
 14 16  1  0  0  0  0
 14 17  1  0  0  0  0
 17 18  1  0  0  0  0
 17 19  1  0  0  0  0
 17 20  1  0  0  0  0
M  END
> <VConfSearch Rank>
884

> <Conf_Id>
54

> <Delta U+W>
2.752

> <U+W>
-33.525

> <U>
24.337

> <W>
-57.862

> <W(PB)>
-59.764

> <W(SA)>
1.901

> <Valence>
3.593

> <Coulomb>
20.067

> <VdW>
0.677

> <VdW6>
-5.466

> <VdW12>
6.144

> <Bond>
0.191

> <Angle>
1.557

> <Pdih>
1.845

> <Idih>
0.000

> <Tether>
0.000

$$$$
VeraChem MOL file


 20 19  0  0  0  0  0  0  0  0999 V2000     
   19.1501   19.4640   24.6050 N   0  3  0  0  0  0  0  0  0  0  0  0
   18.8245   20.2342   25.1952 H   0  0  0  0  0  0  0  0  0  0  0  0
   19.6576   18.8120   25.2092 H   0  0  0  0  0  0  0  0  0  0  0  0
   18.3222   18.9771   24.2543 H   0  0  0  0  0  0  0  0  0  0  0  0
   20.0145   19.9611   23.4782 C   0  0  2  0  0  0  0  0  0  0  0  0
   20.8571   20.4778   23.9484 H   0  0  0  0  0  0  0  0  0  0  0  0
   19.2618   20.9906   22.6166 C   0  0  0  0  0  0  0  0  0  0  0  0
   19.8946   21.3491   21.7953 H   0  0  0  0  0  0  0  0  0  0  0  0
   18.9770   21.8609   23.2203 H   0  0  0  0  0  0  0  0  0  0  0  0
   18.3462   20.5682   22.1861 H   0  0  0  0  0  0  0  0  0  0  0  0
   20.6010   18.8085   22.6281 C   0  0  0  0  0  0  0  0  0  0  0  0
   21.2893   19.2330   21.8852 H   0  0  0  0  0  0  0  0  0  0  0  0
   21.2159   18.1745   23.2803 H   0  0  0  0  0  0  0  0  0  0  0  0
   19.5494   17.9268   21.9063 C   0  0  0  0  0  0  0  0  0  0  0  0
   18.9574   18.5349   21.2094 H   0  0  0  0  0  0  0  0  0  0  0  0
   18.8465   17.5015   22.6351 H   0  0  0  0  0  0  0  0  0  0  0  0
   20.2170   16.7770   21.1217 C   0  0  0  0  0  0  0  0  0  0  0  0
   19.4610   16.1633   20.6148 H   0  0  0  0  0  0  0  0  0  0  0  0
   20.7887   16.1211   21.7912 H   0  0  0  0  0  0  0  0  0  0  0  0
   20.9023   17.1659   20.3572 H   0  0  0  0  0  0  0  0  0  0  0  0
  1  2  1  0  0  0  0
  1  3  1  0  0  0  0
  1  4  1  0  0  0  0
  1  5  1  0  0  0  0
  5  6  1  0  0  0  0
  5  7  1  0  0  0  0
  7  8  1  0  0  0  0
  7  9  1  0  0  0  0
  7 10  1  0  0  0  0
  5 11  1  0  0  0  0
 11 12  1  0  0  0  0
 11 13  1  0  0  0  0
 11 14  1  0  0  0  0
 14 15  1  0  0  0  0
 14 16  1  0  0  0  0
 14 17  1  0  0  0  0
 17 18  1  0  0  0  0
 17 19  1  0  0  0  0
 17 20  1  0  0  0  0
M  END
> <VConfSearch Rank>
885

> <Conf_Id>
63

> <Delta U+W>
0.420

> <U+W>
-35.856

> <U>
22.625

> <W>
-58.481

> <W(PB)>
-60.400

> <W(SA)>
1.919

> <Valence>
2.404

> <Coulomb>
19.464

> <VdW>
0.757

> <VdW6>
-5.074

> <VdW12>
5.830

> <Bond>
0.172

> <Angle>
1.207

> <Pdih>
1.025

> <Idih>
0.000

> <Tether>
0.000

$$$$
VeraChem MOL file


 20 19  0  0  0  0  0  0  0  0999 V2000     
   21.0804   17.8872   22.7519 N   0  3  0  0  0  0  0  0  0  0  0  0
   21.6306   18.7406   22.6263 H   0  0  0  0  0  0  0  0  0  0  0  0
   21.1182   17.3642   21.8735 H   0  0  0  0  0  0  0  0  0  0  0  0
   21.5503   17.3226   23.4646 H   0  0  0  0  0  0  0  0  0  0  0  0
   19.6626   18.2034   23.1444 C   0  0  2  0  0  0  0  0  0  0  0  0
   19.7130   18.7560   24.0875 H   0  0  0  0  0  0  0  0  0  0  0  0
   18.8658   16.9116   23.3892 C   0  0  0  0  0  0  0  0  0  0  0  0
   19.3494   16.2969   24.1583 H   0  0  0  0  0  0  0  0  0  0  0  0
   18.7873   16.3132   22.4729 H   0  0  0  0  0  0  0  0  0  0  0  0
   17.8504   17.1399   23.7361 H   0  0  0  0  0  0  0  0  0  0  0  0
   18.9441   19.0894   22.1014 C   0  0  0  0  0  0  0  0  0  0  0  0
   18.8690   18.5448   21.1508 H   0  0  0  0  0  0  0  0  0  0  0  0
   17.9131   19.2683   22.4344 H   0  0  0  0  0  0  0  0  0  0  0  0
   19.6292   20.4565   21.8496 C   0  0  0  0  0  0  0  0  0  0  0  0
   19.0502   21.0073   21.0950 H   0  0  0  0  0  0  0  0  0  0  0  0
   20.6267   20.3074   21.4145 H   0  0  0  0  0  0  0  0  0  0  0  0
   19.7407   21.3225   23.1252 C   0  0  0  0  0  0  0  0  0  0  0  0
   18.7544   21.4856   23.5787 H   0  0  0  0  0  0  0  0  0  0  0  0
   20.1656   22.3061   22.8862 H   0  0  0  0  0  0  0  0  0  0  0  0
   20.3903   20.8556   23.8762 H   0  0  0  0  0  0  0  0  0  0  0  0
  1  2  1  0  0  0  0
  1  3  1  0  0  0  0
  1  4  1  0  0  0  0
  1  5  1  0  0  0  0
  5  6  1  0  0  0  0
  5  7  1  0  0  0  0
  7  8  1  0  0  0  0
  7  9  1  0  0  0  0
  7 10  1  0  0  0  0
  5 11  1  0  0  0  0
 11 12  1  0  0  0  0
 11 13  1  0  0  0  0
 11 14  1  0  0  0  0
 14 15  1  0  0  0  0
 14 16  1  0  0  0  0
 14 17  1  0  0  0  0
 17 18  1  0  0  0  0
 17 19  1  0  0  0  0
 17 20  1  0  0  0  0
M  END
> <VConfSearch Rank>
886

> <Conf_Id>
50

> <Delta U+W>
0.466

> <U+W>
-35.811

> <U>
22.369

> <W>
-58.180

> <W(PB)>
-60.103

> <W(SA)>
1.923

> <Valence>
2.168

> <Coulomb>
19.636

> <VdW>
0.566

> <VdW6>
-5.263

> <VdW12>
5.829

> <Bond>
0.162

> <Angle>
1.066

> <Pdih>
0.939

> <Idih>
0.000

> <Tether>
0.000

$$$$
VeraChem MOL file


 20 19  0  0  0  0  0  0  0  0999 V2000     
   17.7208   19.5518   23.7631 N   0  3  0  0  0  0  0  0  0  0  0  0
   17.0849   19.7408   22.9834 H   0  0  0  0  0  0  0  0  0  0  0  0
   17.9098   20.4433   24.2283 H   0  0  0  0  0  0  0  0  0  0  0  0
   17.2148   18.9622   24.4295 H   0  0  0  0  0  0  0  0  0  0  0  0
   18.9900   18.8915   23.2967 C   0  0  2  0  0  0  0  0  0  0  0  0
   18.6878   17.9569   22.8141 H   0  0  0  0  0  0  0  0  0  0  0  0
   19.8844   18.5566   24.5050 C   0  0  0  0  0  0  0  0  0  0  0  0
   20.1726   19.4656   25.0475 H   0  0  0  0  0  0  0  0  0  0  0  0
   20.8019   18.0436   24.1973 H   0  0  0  0  0  0  0  0  0  0  0  0
   19.3566   17.8975   25.2052 H   0  0  0  0  0  0  0  0  0  0  0  0
   19.7395   19.7533   22.2509 C   0  0  0  0  0  0  0  0  0  0  0  0
   19.0509   20.5067   21.8460 H   0  0  0  0  0  0  0  0  0  0  0  0
   20.5489   20.3203   22.7300 H   0  0  0  0  0  0  0  0  0  0  0  0
   20.2938   18.9434   21.0515 C   0  0  0  0  0  0  0  0  0  0  0  0
   20.7366   19.6440   20.3297 H   0  0  0  0  0  0  0  0  0  0  0  0
   19.4638   18.4493   20.5270 H   0  0  0  0  0  0  0  0  0  0  0  0
   21.3558   17.8899   21.4368 C   0  0  0  0  0  0  0  0  0  0  0  0
   22.1799   18.3458   22.0008 H   0  0  0  0  0  0  0  0  0  0  0  0
   21.7819   17.4282   20.5366 H   0  0  0  0  0  0  0  0  0  0  0  0
   20.9211   17.0854   22.0429 H   0  0  0  0  0  0  0  0  0  0  0  0
  1  2  1  0  0  0  0
  1  3  1  0  0  0  0
  1  4  1  0  0  0  0
  1  5  1  0  0  0  0
  5  6  1  0  0  0  0
  5  7  1  0  0  0  0
  7  8  1  0  0  0  0
  7  9  1  0  0  0  0
  7 10  1  0  0  0  0
  5 11  1  0  0  0  0
 11 12  1  0  0  0  0
 11 13  1  0  0  0  0
 11 14  1  0  0  0  0
 14 15  1  0  0  0  0
 14 16  1  0  0  0  0
 14 17  1  0  0  0  0
 17 18  1  0  0  0  0
 17 19  1  0  0  0  0
 17 20  1  0  0  0  0
M  END
> <VConfSearch Rank>
887

> <Conf_Id>
3

> <Delta U+W>
3.093

> <U+W>
-33.184

> <U>
25.256

> <W>
-58.439

> <W(PB)>
-60.337

> <W(SA)>
1.898

> <Valence>
4.963

> <Coulomb>
19.511

> <VdW>
0.782

> <VdW6>
-5.429

> <VdW12>
6.211

> <Bond>
0.174

> <Angle>
1.377

> <Pdih>
3.412

> <Idih>
0.000

> <Tether>
0.000

$$$$
VeraChem MOL file


 20 19  0  0  0  0  0  0  0  0999 V2000     
   21.3645   18.7703   21.2390 N   0  3  0  0  0  0  0  0  0  0  0  0
   21.3315   18.1347   20.4375 H   0  0  0  0  0  0  0  0  0  0  0  0
   22.1708   18.4980   21.8078 H   0  0  0  0  0  0  0  0  0  0  0  0
   21.5490   19.7086   20.8754 H   0  0  0  0  0  0  0  0  0  0  0  0
   20.0862   18.7258   22.0304 C   0  0  2  0  0  0  0  0  0  0  0  0
   19.9726   17.6924   22.3714 H   0  0  0  0  0  0  0  0  0  0  0  0
   18.8869   19.0754   21.1307 C   0  0  0  0  0  0  0  0  0  0  0  0
   17.9371   18.9127   21.6530 H   0  0  0  0  0  0  0  0  0  0  0  0
   18.8774   18.4417   20.2354 H   0  0  0  0  0  0  0  0  0  0  0  0
   18.9259   20.1226   20.8060 H   0  0  0  0  0  0  0  0  0  0  0  0
   20.1657   19.6422   23.2747 C   0  0  0  0  0  0  0  0  0  0  0  0
   21.0804   19.3999   23.8316 H   0  0  0  0  0  0  0  0  0  0  0  0
   20.2740   20.6859   22.9510 H   0  0  0  0  0  0  0  0  0  0  0  0
   18.9615   19.5355   24.2451 C   0  0  0  0  0  0  0  0  0  0  0  0
   18.0462   19.8991   23.7590 H   0  0  0  0  0  0  0  0  0  0  0  0
   19.1357   20.2076   25.0971 H   0  0  0  0  0  0  0  0  0  0  0  0
   18.7367   18.1015   24.7764 C   0  0  0  0  0  0  0  0  0  0  0  0
   19.6407   17.7151   25.2650 H   0  0  0  0  0  0  0  0  0  0  0  0
   18.4605   17.4112   23.9695 H   0  0  0  0  0  0  0  0  0  0  0  0
   17.9250   18.0880   25.5152 H   0  0  0  0  0  0  0  0  0  0  0  0
  1  2  1  0  0  0  0
  1  3  1  0  0  0  0
  1  4  1  0  0  0  0
  1  5  1  0  0  0  0
  5  6  1  0  0  0  0
  5  7  1  0  0  0  0
  7  8  1  0  0  0  0
  7  9  1  0  0  0  0
  7 10  1  0  0  0  0
  5 11  1  0  0  0  0
 11 12  1  0  0  0  0
 11 13  1  0  0  0  0
 11 14  1  0  0  0  0
 14 15  1  0  0  0  0
 14 16  1  0  0  0  0
 14 17  1  0  0  0  0
 17 18  1  0  0  0  0
 17 19  1  0  0  0  0
 17 20  1  0  0  0  0
M  END
> <VConfSearch Rank>
888

> <Conf_Id>
64

> <Delta U+W>
0.544

> <U+W>
-35.732

> <U>
22.800

> <W>
-58.532

> <W(PB)>
-60.437

> <W(SA)>
1.905

> <Valence>
2.662

> <Coulomb>
19.485

> <VdW>
0.653

> <VdW6>
-5.460

> <VdW12>
6.113

> <Bond>
0.174

> <Angle>
1.378

> <Pdih>
1.109

> <Idih>
0.000

> <Tether>
0.000

$$$$
VeraChem MOL file


 20 19  0  0  0  0  0  0  0  0999 V2000     
   20.2134   20.9675   22.4051 N   0  3  0  0  0  0  0  0  0  0  0  0
   20.5944   20.5489   21.5537 H   0  0  0  0  0  0  0  0  0  0  0  0
   20.9230   21.6049   22.7763 H   0  0  0  0  0  0  0  0  0  0  0  0
   19.4069   21.5362   22.1335 H   0  0  0  0  0  0  0  0  0  0  0  0
   19.8355   19.9169   23.4142 C   0  0  2  0  0  0  0  0  0  0  0  0
   19.4533   20.4610   24.2837 H   0  0  0  0  0  0  0  0  0  0  0  0
   21.0725   19.1280   23.8737 C   0  0  0  0  0  0  0  0  0  0  0  0
   21.5896   18.6629   23.0263 H   0  0  0  0  0  0  0  0  0  0  0  0
   20.7928   18.3427   24.5867 H   0  0  0  0  0  0  0  0  0  0  0  0
   21.7862   19.7932   24.3748 H   0  0  0  0  0  0  0  0  0  0  0  0
   18.6883   19.0038   22.9130 C   0  0  0  0  0  0  0  0  0  0  0  0
   18.3340   18.3762   23.7413 H   0  0  0  0  0  0  0  0  0  0  0  0
   17.8395   19.6527   22.6601 H   0  0  0  0  0  0  0  0  0  0  0  0
   19.0069   18.1158   21.6780 C   0  0  0  0  0  0  0  0  0  0  0  0
   19.7372   18.6059   21.0209 H   0  0  0  0  0  0  0  0  0  0  0  0
   18.0900   18.0119   21.0809 H   0  0  0  0  0  0  0  0  0  0  0  0
   19.4928   16.6945   22.0475 C   0  0  0  0  0  0  0  0  0  0  0  0
   20.4329   16.7117   22.6096 H   0  0  0  0  0  0  0  0  0  0  0  0
   19.6610   16.0992   21.1407 H   0  0  0  0  0  0  0  0  0  0  0  0
   18.7446   16.1690   22.6551 H   0  0  0  0  0  0  0  0  0  0  0  0
  1  2  1  0  0  0  0
  1  3  1  0  0  0  0
  1  4  1  0  0  0  0
  1  5  1  0  0  0  0
  5  6  1  0  0  0  0
  5  7  1  0  0  0  0
  7  8  1  0  0  0  0
  7  9  1  0  0  0  0
  7 10  1  0  0  0  0
  5 11  1  0  0  0  0
 11 12  1  0  0  0  0
 11 13  1  0  0  0  0
 11 14  1  0  0  0  0
 14 15  1  0  0  0  0
 14 16  1  0  0  0  0
 14 17  1  0  0  0  0
 17 18  1  0  0  0  0
 17 19  1  0  0  0  0
 17 20  1  0  0  0  0
M  END
> <VConfSearch Rank>
889

> <Conf_Id>
35

> <Delta U+W>
3.004

> <U+W>
-33.272

> <U>
25.367

> <W>
-58.639

> <W(PB)>
-60.512

> <W(SA)>
1.873

> <Valence>
4.943

> <Coulomb>
19.661

> <VdW>
0.764

> <VdW6>
-5.871

> <VdW12>
6.636

> <Bond>
0.230

> <Angle>
1.857

> <Pdih>
2.855

> <Idih>
0.000

> <Tether>
0.000

$$$$
VeraChem MOL file


 20 19  0  0  0  0  0  0  0  0999 V2000     
   18.2153   18.1799   22.5302 N   0  3  0  0  0  0  0  0  0  0  0  0
   17.6553   17.7348   21.7981 H   0  0  0  0  0  0  0  0  0  0  0  0
   17.5820   18.4102   23.3005 H   0  0  0  0  0  0  0  0  0  0  0  0
   18.8796   17.4856   22.8775 H   0  0  0  0  0  0  0  0  0  0  0  0
   18.9247   19.4025   22.0160 C   0  0  2  0  0  0  0  0  0  0  0  0
   18.1306   20.0846   21.6964 H   0  0  0  0  0  0  0  0  0  0  0  0
   19.7761   19.0778   20.7758 C   0  0  0  0  0  0  0  0  0  0  0  0
   20.5410   18.3236   20.9959 H   0  0  0  0  0  0  0  0  0  0  0  0
   20.2782   19.9786   20.4020 H   0  0  0  0  0  0  0  0  0  0  0  0
   19.1449   18.6892   19.9673 H   0  0  0  0  0  0  0  0  0  0  0  0
   19.7350   20.1406   23.1123 C   0  0  0  0  0  0  0  0  0  0  0  0
   19.9470   21.1530   22.7440 H   0  0  0  0  0  0  0  0  0  0  0  0
   19.0955   20.2801   23.9937 H   0  0  0  0  0  0  0  0  0  0  0  0
   21.0829   19.5038   23.5529 C   0  0  0  0  0  0  0  0  0  0  0  0
   21.5460   20.1694   24.2948 H   0  0  0  0  0  0  0  0  0  0  0  0
   21.7838   19.4726   22.7077 H   0  0  0  0  0  0  0  0  0  0  0  0
   20.9579   18.0953   24.1768 C   0  0  0  0  0  0  0  0  0  0  0  0
   20.1993   18.0768   24.9700 H   0  0  0  0  0  0  0  0  0  0  0  0
   21.9136   17.7917   24.6237 H   0  0  0  0  0  0  0  0  0  0  0  0
   20.7020   17.3413   23.4235 H   0  0  0  0  0  0  0  0  0  0  0  0
  1  2  1  0  0  0  0
  1  3  1  0  0  0  0
  1  4  1  0  0  0  0
  1  5  1  0  0  0  0
  5  6  1  0  0  0  0
  5  7  1  0  0  0  0
  7  8  1  0  0  0  0
  7  9  1  0  0  0  0
  7 10  1  0  0  0  0
  5 11  1  0  0  0  0
 11 12  1  0  0  0  0
 11 13  1  0  0  0  0
 11 14  1  0  0  0  0
 14 15  1  0  0  0  0
 14 16  1  0  0  0  0
 14 17  1  0  0  0  0
 17 18  1  0  0  0  0
 17 19  1  0  0  0  0
 17 20  1  0  0  0  0
M  END
> <VConfSearch Rank>
890

> <Conf_Id>
55

> <Delta U+W>
2.767

> <U+W>
-33.509

> <U>
24.552

> <W>
-58.061

> <W(PB)>
-59.930

> <W(SA)>
1.869

> <Valence>
3.726

> <Coulomb>
20.219

> <VdW>
0.606

> <VdW6>
-6.395

> <VdW12>
7.001

> <Bond>
0.241

> <Angle>
2.098

> <Pdih>
1.387

> <Idih>
0.000

> <Tether>
0.000

$$$$
VeraChem MOL file


 20 19  0  0  0  0  0  0  0  0999 V2000     
   18.8735   17.5233   23.7552 N   0  3  0  0  0  0  0  0  0  0  0  0
   19.4249   17.6233   24.6111 H   0  0  0  0  0  0  0  0  0  0  0  0
   18.5157   16.5645   23.7330 H   0  0  0  0  0  0  0  0  0  0  0  0
   18.0664   18.1468   23.8345 H   0  0  0  0  0  0  0  0  0  0  0  0
   19.6932   17.8337   22.5317 C   0  0  2  0  0  0  0  0  0  0  0  0
   19.0315   17.7073   21.6691 H   0  0  0  0  0  0  0  0  0  0  0  0
   20.8574   16.8387   22.3949 C   0  0  0  0  0  0  0  0  0  0  0  0
   20.4851   15.8075   22.3607 H   0  0  0  0  0  0  0  0  0  0  0  0
   21.5534   16.9229   23.2388 H   0  0  0  0  0  0  0  0  0  0  0  0
   21.4187   17.0199   21.4699 H   0  0  0  0  0  0  0  0  0  0  0  0
   20.2233   19.2846   22.5249 C   0  0  0  0  0  0  0  0  0  0  0  0
   20.8728   19.4451   23.3957 H   0  0  0  0  0  0  0  0  0  0  0  0
   20.8515   19.4279   21.6356 H   0  0  0  0  0  0  0  0  0  0  0  0
   19.0934   20.3422   22.5130 C   0  0  0  0  0  0  0  0  0  0  0  0
   18.4831   20.2563   23.4222 H   0  0  0  0  0  0  0  0  0  0  0  0
   18.4233   20.1587   21.6613 H   0  0  0  0  0  0  0  0  0  0  0  0
   19.6565   21.7767   22.4203 C   0  0  0  0  0  0  0  0  0  0  0  0
   20.3074   22.0015   23.2753 H   0  0  0  0  0  0  0  0  0  0  0  0
   18.8424   22.5131   22.4145 H   0  0  0  0  0  0  0  0  0  0  0  0
   20.2404   21.9139   21.5009 H   0  0  0  0  0  0  0  0  0  0  0  0
  1  2  1  0  0  0  0
  1  3  1  0  0  0  0
  1  4  1  0  0  0  0
  1  5  1  0  0  0  0
  5  6  1  0  0  0  0
  5  7  1  0  0  0  0
  7  8  1  0  0  0  0
  7  9  1  0  0  0  0
  7 10  1  0  0  0  0
  5 11  1  0  0  0  0
 11 12  1  0  0  0  0
 11 13  1  0  0  0  0
 11 14  1  0  0  0  0
 14 15  1  0  0  0  0
 14 16  1  0  0  0  0
 14 17  1  0  0  0  0
 17 18  1  0  0  0  0
 17 19  1  0  0  0  0
 17 20  1  0  0  0  0
M  END
> <VConfSearch Rank>
891

> <Conf_Id>
74

> <Delta U+W>
0.000

> <U+W>
-36.276

> <U>
22.080

> <W>
-58.356

> <W(PB)>
-60.289

> <W(SA)>
1.932

> <Valence>
1.885

> <Coulomb>
19.559

> <VdW>
0.637

> <VdW6>
-4.482

> <VdW12>
5.119

> <Bond>
0.136

> <Angle>
0.867

> <Pdih>
0.882

> <Idih>
0.000

> <Tether>
0.000

$$$$
VeraChem MOL file


 20 19  0  0  0  0  0  0  0  0999 V2000     
   19.2973   18.2673   20.4667 N   0  3  0  0  0  0  0  0  0  0  0  0
   19.0056   17.2939   20.5901 H   0  0  0  0  0  0  0  0  0  0  0  0
   20.2626   18.2573   20.1277 H   0  0  0  0  0  0  0  0  0  0  0  0
   18.7177   18.6642   19.7222 H   0  0  0  0  0  0  0  0  0  0  0  0
   19.1678   19.0523   21.7432 C   0  0  2  0  0  0  0  0  0  0  0  0
   18.1111   19.0101   22.0250 H   0  0  0  0  0  0  0  0  0  0  0  0
   19.5490   20.5251   21.5052 C   0  0  0  0  0  0  0  0  0  0  0  0
   18.9834   20.9391   20.6615 H   0  0  0  0  0  0  0  0  0  0  0  0
   20.6180   20.6274   21.2806 H   0  0  0  0  0  0  0  0  0  0  0  0
   19.3210   21.1431   22.3812 H   0  0  0  0  0  0  0  0  0  0  0  0
   19.9974   18.4118   22.8803 C   0  0  0  0  0  0  0  0  0  0  0  0
   19.7565   17.3415   22.9255 H   0  0  0  0  0  0  0  0  0  0  0  0
   21.0670   18.4795   22.6410 H   0  0  0  0  0  0  0  0  0  0  0  0
   19.7340   19.0339   24.2734 C   0  0  0  0  0  0  0  0  0  0  0  0
   18.6557   19.0235   24.4862 H   0  0  0  0  0  0  0  0  0  0  0  0
   20.0516   20.0850   24.2878 H   0  0  0  0  0  0  0  0  0  0  0  0
   20.4827   18.2721   25.3883 C   0  0  0  0  0  0  0  0  0  0  0  0
   20.1610   17.2235   25.4361 H   0  0  0  0  0  0  0  0  0  0  0  0
   20.2880   18.7282   26.3676 H   0  0  0  0  0  0  0  0  0  0  0  0
   21.5672   18.2894   25.2186 H   0  0  0  0  0  0  0  0  0  0  0  0
  1  2  1  0  0  0  0
  1  3  1  0  0  0  0
  1  4  1  0  0  0  0
  1  5  1  0  0  0  0
  5  6  1  0  0  0  0
  5  7  1  0  0  0  0
  7  8  1  0  0  0  0
  7  9  1  0  0  0  0
  7 10  1  0  0  0  0
  5 11  1  0  0  0  0
 11 12  1  0  0  0  0
 11 13  1  0  0  0  0
 11 14  1  0  0  0  0
 14 15  1  0  0  0  0
 14 16  1  0  0  0  0
 14 17  1  0  0  0  0
 17 18  1  0  0  0  0
 17 19  1  0  0  0  0
 17 20  1  0  0  0  0
M  END
> <VConfSearch Rank>
892

> <Conf_Id>
80

> <Delta U+W>
0.460

> <U+W>
-35.817

> <U>
22.495

> <W>
-58.311

> <W(PB)>
-60.259

> <W(SA)>
1.948

> <Valence>
2.419

> <Coulomb>
19.304

> <VdW>
0.772

> <VdW6>
-4.635

> <VdW12>
5.407

> <Bond>
0.149

> <Angle>
1.142

> <Pdih>
1.129

> <Idih>
0.000

> <Tether>
0.000

$$$$
VeraChem MOL file


 20 19  0  0  0  0  0  0  0  0999 V2000     
   19.6008   21.2003   23.3473 N   0  3  0  0  0  0  0  0  0  0  0  0
   20.3168   21.7582   22.8742 H   0  0  0  0  0  0  0  0  0  0  0  0
   19.9128   21.0544   24.3107 H   0  0  0  0  0  0  0  0  0  0  0  0
   18.7508   21.7693   23.3858 H   0  0  0  0  0  0  0  0  0  0  0  0
   19.3576   19.8941   22.6420 C   0  0  2  0  0  0  0  0  0  0  0  0
   19.0247   20.1494   21.6311 H   0  0  0  0  0  0  0  0  0  0  0  0
   18.2259   19.1171   23.3359 C   0  0  0  0  0  0  0  0  0  0  0  0
   17.3472   19.7578   23.4795 H   0  0  0  0  0  0  0  0  0  0  0  0
   18.5418   18.7464   24.3189 H   0  0  0  0  0  0  0  0  0  0  0  0
   17.9050   18.2639   22.7275 H   0  0  0  0  0  0  0  0  0  0  0  0
   20.6658   19.0744   22.5239 C   0  0  0  0  0  0  0  0  0  0  0  0
   21.4181   19.7209   22.0531 H   0  0  0  0  0  0  0  0  0  0  0  0
   21.0575   18.8391   23.5224 H   0  0  0  0  0  0  0  0  0  0  0  0
   20.5549   17.7819   21.6725 C   0  0  0  0  0  0  0  0  0  0  0  0
   21.4901   17.6518   21.1099 H   0  0  0  0  0  0  0  0  0  0  0  0
   19.7625   17.8878   20.9183 H   0  0  0  0  0  0  0  0  0  0  0  0
   20.3275   16.5064   22.5177 C   0  0  0  0  0  0  0  0  0  0  0  0
   21.1540   16.3512   23.2233 H   0  0  0  0  0  0  0  0  0  0  0  0
   20.2731   15.6215   21.8704 H   0  0  0  0  0  0  0  0  0  0  0  0
   19.3969   16.5530   23.0943 H   0  0  0  0  0  0  0  0  0  0  0  0
  1  2  1  0  0  0  0
  1  3  1  0  0  0  0
  1  4  1  0  0  0  0
  1  5  1  0  0  0  0
  5  6  1  0  0  0  0
  5  7  1  0  0  0  0
  7  8  1  0  0  0  0
  7  9  1  0  0  0  0
  7 10  1  0  0  0  0
  5 11  1  0  0  0  0
 11 12  1  0  0  0  0
 11 13  1  0  0  0  0
 11 14  1  0  0  0  0
 14 15  1  0  0  0  0
 14 16  1  0  0  0  0
 14 17  1  0  0  0  0
 17 18  1  0  0  0  0
 17 19  1  0  0  0  0
 17 20  1  0  0  0  0
M  END
> <VConfSearch Rank>
893

> <Conf_Id>
52

> <Delta U+W>
2.995

> <U+W>
-33.282

> <U>
25.224

> <W>
-58.506

> <W(PB)>
-60.411

> <W(SA)>
1.905

> <Valence>
4.945

> <Coulomb>
19.467

> <VdW>
0.813

> <VdW6>
-5.458

> <VdW12>
6.270

> <Bond>
0.200

> <Angle>
1.675

> <Pdih>
3.070

> <Idih>
0.000

> <Tether>
0.000

$$$$
VeraChem MOL file


 20 19  0  0  0  0  0  0  0  0999 V2000     
   20.9276   17.9042   22.8868 N   0  3  0  0  0  0  0  0  0  0  0  0
   21.2758   17.7692   21.9344 H   0  0  0  0  0  0  0  0  0  0  0  0
   21.1897   17.0764   23.4287 H   0  0  0  0  0  0  0  0  0  0  0  0
   21.4255   18.7039   23.2839 H   0  0  0  0  0  0  0  0  0  0  0  0
   19.4397   18.1255   22.9006 C   0  0  2  0  0  0  0  0  0  0  0  0
   19.1365   18.2125   23.9486 H   0  0  0  0  0  0  0  0  0  0  0  0
   18.7254   16.9063   22.2930 C   0  0  0  0  0  0  0  0  0  0  0  0
   18.9833   16.7821   21.2338 H   0  0  0  0  0  0  0  0  0  0  0  0
   17.6362   17.0128   22.3695 H   0  0  0  0  0  0  0  0  0  0  0  0
   19.0055   15.9877   22.8231 H   0  0  0  0  0  0  0  0  0  0  0  0
   19.0189   19.4196   22.1640 C   0  0  0  0  0  0  0  0  0  0  0  0
   19.5241   19.4777   21.1909 H   0  0  0  0  0  0  0  0  0  0  0  0
   17.9450   19.3620   21.9412 H   0  0  0  0  0  0  0  0  0  0  0  0
   19.2497   20.7281   22.9648 C   0  0  0  0  0  0  0  0  0  0  0  0
   18.7023   20.6810   23.9167 H   0  0  0  0  0  0  0  0  0  0  0  0
   18.8028   21.5582   22.3999 H   0  0  0  0  0  0  0  0  0  0  0  0
   20.7323   21.0688   23.2387 C   0  0  0  0  0  0  0  0  0  0  0  0
   20.8207   22.0931   23.6238 H   0  0  0  0  0  0  0  0  0  0  0  0
   21.3328   21.0061   22.3218 H   0  0  0  0  0  0  0  0  0  0  0  0
   21.1666   20.4052   23.9954 H   0  0  0  0  0  0  0  0  0  0  0  0
  1  2  1  0  0  0  0
  1  3  1  0  0  0  0
  1  4  1  0  0  0  0
  1  5  1  0  0  0  0
  5  6  1  0  0  0  0
  5  7  1  0  0  0  0
  7  8  1  0  0  0  0
  7  9  1  0  0  0  0
  7 10  1  0  0  0  0
  5 11  1  0  0  0  0
 11 12  1  0  0  0  0
 11 13  1  0  0  0  0
 11 14  1  0  0  0  0
 14 15  1  0  0  0  0
 14 16  1  0  0  0  0
 14 17  1  0  0  0  0
 17 18  1  0  0  0  0
 17 19  1  0  0  0  0
 17 20  1  0  0  0  0
M  END
> <VConfSearch Rank>
894

> <Conf_Id>
54

> <Delta U+W>
2.752

> <U+W>
-33.525

> <U>
24.337

> <W>
-57.862

> <W(PB)>
-59.764

> <W(SA)>
1.901

> <Valence>
3.593

> <Coulomb>
20.067

> <VdW>
0.677

> <VdW6>
-5.466

> <VdW12>
6.144

> <Bond>
0.191

> <Angle>
1.557

> <Pdih>
1.845

> <Idih>
0.000

> <Tether>
0.000

$$$$
VeraChem MOL file


 20 19  0  0  0  0  0  0  0  0999 V2000     
   20.2833   20.9375   22.9431 N   0  3  0  0  0  0  0  0  0  0  0  0
   20.8894   21.6852   22.5951 H   0  0  0  0  0  0  0  0  0  0  0  0
   20.1222   21.1156   23.9382 H   0  0  0  0  0  0  0  0  0  0  0  0
   19.3837   21.0265   22.4654 H   0  0  0  0  0  0  0  0  0  0  0  0
   20.8950   19.5818   22.7157 C   0  0  2  0  0  0  0  0  0  0  0  0
   21.8524   19.5890   23.2461 H   0  0  0  0  0  0  0  0  0  0  0  0
   21.1936   19.3531   21.2233 C   0  0  0  0  0  0  0  0  0  0  0  0
   21.6378   18.3632   21.0615 H   0  0  0  0  0  0  0  0  0  0  0  0
   21.9070   20.1010   20.8560 H   0  0  0  0  0  0  0  0  0  0  0  0
   20.2868   19.4274   20.6116 H   0  0  0  0  0  0  0  0  0  0  0  0
   20.0451   18.4387   23.3209 C   0  0  0  0  0  0  0  0  0  0  0  0
   20.5891   17.4926   23.2001 H   0  0  0  0  0  0  0  0  0  0  0  0
   19.9634   18.6028   24.4034 H   0  0  0  0  0  0  0  0  0  0  0  0
   18.6232   18.2917   22.7201 C   0  0  0  0  0  0  0  0  0  0  0  0
   18.6852   18.0753   21.6453 H   0  0  0  0  0  0  0  0  0  0  0  0
   18.0681   19.2336   22.8244 H   0  0  0  0  0  0  0  0  0  0  0  0
   17.8304   17.1618   23.4115 C   0  0  0  0  0  0  0  0  0  0  0  0
   16.8276   17.0683   22.9746 H   0  0  0  0  0  0  0  0  0  0  0  0
   17.7123   17.3609   24.4846 H   0  0  0  0  0  0  0  0  0  0  0  0
   18.3385   16.1954   23.2971 H   0  0  0  0  0  0  0  0  0  0  0  0
  1  2  1  0  0  0  0
  1  3  1  0  0  0  0
  1  4  1  0  0  0  0
  1  5  1  0  0  0  0
  5  6  1  0  0  0  0
  5  7  1  0  0  0  0
  7  8  1  0  0  0  0
  7  9  1  0  0  0  0
  7 10  1  0  0  0  0
  5 11  1  0  0  0  0
 11 12  1  0  0  0  0
 11 13  1  0  0  0  0
 11 14  1  0  0  0  0
 14 15  1  0  0  0  0
 14 16  1  0  0  0  0
 14 17  1  0  0  0  0
 17 18  1  0  0  0  0
 17 19  1  0  0  0  0
 17 20  1  0  0  0  0
M  END
> <VConfSearch Rank>
895

> <Conf_Id>
63

> <Delta U+W>
0.420

> <U+W>
-35.856

> <U>
22.625

> <W>
-58.481

> <W(PB)>
-60.400

> <W(SA)>
1.919

> <Valence>
2.404

> <Coulomb>
19.464

> <VdW>
0.757

> <VdW6>
-5.074

> <VdW12>
5.830

> <Bond>
0.172

> <Angle>
1.207

> <Pdih>
1.025

> <Idih>
0.000

> <Tether>
0.000

$$$$
VeraChem MOL file


 20 19  0  0  0  0  0  0  0  0999 V2000     
   19.0250   18.8396   21.1220 N   0  3  0  0  0  0  0  0  0  0  0  0
   19.4452   19.7607   20.9738 H   0  0  0  0  0  0  0  0  0  0  0  0
   18.0095   18.9628   21.1348 H   0  0  0  0  0  0  0  0  0  0  0  0
   19.2532   18.2647   20.3065 H   0  0  0  0  0  0  0  0  0  0  0  0
   19.5201   18.2113   22.3964 C   0  0  2  0  0  0  0  0  0  0  0  0
   20.6055   18.1139   22.2982 H   0  0  0  0  0  0  0  0  0  0  0  0
   18.9278   16.8038   22.5738 C   0  0  0  0  0  0  0  0  0  0  0  0
   19.1707   16.1689   21.7129 H   0  0  0  0  0  0  0  0  0  0  0  0
   17.8358   16.8415   22.6733 H   0  0  0  0  0  0  0  0  0  0  0  0
   19.3359   16.3193   23.4696 H   0  0  0  0  0  0  0  0  0  0  0  0
   19.2221   19.0811   23.6389 C   0  0  0  0  0  0  0  0  0  0  0  0
   18.1354   19.1772   23.7641 H   0  0  0  0  0  0  0  0  0  0  0  0
   19.5891   18.5623   24.5344 H   0  0  0  0  0  0  0  0  0  0  0  0
   19.8537   20.4955   23.5903 C   0  0  0  0  0  0  0  0  0  0  0  0
   19.5831   21.0341   24.5093 H   0  0  0  0  0  0  0  0  0  0  0  0
   19.4233   21.0758   22.7630 H   0  0  0  0  0  0  0  0  0  0  0  0
   21.3939   20.4673   23.4617 C   0  0  0  0  0  0  0  0  0  0  0  0
   21.8475   19.8919   24.2793 H   0  0  0  0  0  0  0  0  0  0  0  0
   21.8019   21.4855   23.5030 H   0  0  0  0  0  0  0  0  0  0  0  0
   21.7128   20.0219   22.5111 H   0  0  0  0  0  0  0  0  0  0  0  0
  1  2  1  0  0  0  0
  1  3  1  0  0  0  0
  1  4  1  0  0  0  0
  1  5  1  0  0  0  0
  5  6  1  0  0  0  0
  5  7  1  0  0  0  0
  7  8  1  0  0  0  0
  7  9  1  0  0  0  0
  7 10  1  0  0  0  0
  5 11  1  0  0  0  0
 11 12  1  0  0  0  0
 11 13  1  0  0  0  0
 11 14  1  0  0  0  0
 14 15  1  0  0  0  0
 14 16  1  0  0  0  0
 14 17  1  0  0  0  0
 17 18  1  0  0  0  0
 17 19  1  0  0  0  0
 17 20  1  0  0  0  0
M  END
> <VConfSearch Rank>
896

> <Conf_Id>
50

> <Delta U+W>
0.466

> <U+W>
-35.811

> <U>
22.369

> <W>
-58.180

> <W(PB)>
-60.103

> <W(SA)>
1.923

> <Valence>
2.168

> <Coulomb>
19.636

> <VdW>
0.566

> <VdW6>
-5.263

> <VdW12>
5.829

> <Bond>
0.162

> <Angle>
1.066

> <Pdih>
0.939

> <Idih>
0.000

> <Tether>
0.000

$$$$
VeraChem MOL file


 20 19  0  0  0  0  0  0  0  0999 V2000     
   17.8941   20.2040   22.1489 N   0  3  0  0  0  0  0  0  0  0  0  0
   18.0965   20.4891   21.1868 H   0  0  0  0  0  0  0  0  0  0  0  0
   17.9295   21.0439   22.7322 H   0  0  0  0  0  0  0  0  0  0  0  0
   16.9294   19.8621   22.1662 H   0  0  0  0  0  0  0  0  0  0  0  0
   18.8589   19.1548   22.6314 C   0  0  2  0  0  0  0  0  0  0  0  0
   18.7514   18.3054   21.9497 H   0  0  0  0  0  0  0  0  0  0  0  0
   18.4753   18.6995   24.0518 C   0  0  0  0  0  0  0  0  0  0  0  0
   18.5239   19.5350   24.7613 H   0  0  0  0  0  0  0  0  0  0  0  0
   19.1419   17.9103   24.4158 H   0  0  0  0  0  0  0  0  0  0  0  0
   17.4533   18.3016   24.0670 H   0  0  0  0  0  0  0  0  0  0  0  0
   20.3267   19.6441   22.5636 C   0  0  0  0  0  0  0  0  0  0  0  0
   20.3834   20.5200   21.9040 H   0  0  0  0  0  0  0  0  0  0  0  0
   20.6601   19.9946   23.5495 H   0  0  0  0  0  0  0  0  0  0  0  0
   21.3158   18.5864   22.0116 C   0  0  0  0  0  0  0  0  0  0  0  0
   22.3104   19.0466   21.9272 H   0  0  0  0  0  0  0  0  0  0  0  0
   21.0218   18.3064   20.9902 H   0  0  0  0  0  0  0  0  0  0  0  0
   21.4295   17.3135   22.8792 C   0  0  0  0  0  0  0  0  0  0  0  0
   21.6808   17.5631   23.9182 H   0  0  0  0  0  0  0  0  0  0  0  0
   22.2189   16.6556   22.4930 H   0  0  0  0  0  0  0  0  0  0  0  0
   20.4941   16.7401   22.8745 H   0  0  0  0  0  0  0  0  0  0  0  0
  1  2  1  0  0  0  0
  1  3  1  0  0  0  0
  1  4  1  0  0  0  0
  1  5  1  0  0  0  0
  5  6  1  0  0  0  0
  5  7  1  0  0  0  0
  7  8  1  0  0  0  0
  7  9  1  0  0  0  0
  7 10  1  0  0  0  0
  5 11  1  0  0  0  0
 11 12  1  0  0  0  0
 11 13  1  0  0  0  0
 11 14  1  0  0  0  0
 14 15  1  0  0  0  0
 14 16  1  0  0  0  0
 14 17  1  0  0  0  0
 17 18  1  0  0  0  0
 17 19  1  0  0  0  0
 17 20  1  0  0  0  0
M  END
> <VConfSearch Rank>
897

> <Conf_Id>
3

> <Delta U+W>
3.093

> <U+W>
-33.184

> <U>
25.256

> <W>
-58.439

> <W(PB)>
-60.337

> <W(SA)>
1.898

> <Valence>
4.963

> <Coulomb>
19.511

> <VdW>
0.782

> <VdW6>
-5.429

> <VdW12>
6.211

> <Bond>
0.174

> <Angle>
1.377

> <Pdih>
3.412

> <Idih>
0.000

> <Tether>
0.000

$$$$
VeraChem MOL file


 20 19  0  0  0  0  0  0  0  0999 V2000     
   21.9295   19.0457   22.4255 N   0  3  0  0  0  0  0  0  0  0  0  0
   22.6062   18.5507   23.0126 H   0  0  0  0  0  0  0  0  0  0  0  0
   22.1336   20.0455   22.5061 H   0  0  0  0  0  0  0  0  0  0  0  0
   22.1113   18.7731   21.4563 H   0  0  0  0  0  0  0  0  0  0  0  0
   20.5153   18.7330   22.8315 C   0  0  2  0  0  0  0  0  0  0  0  0
   20.4177   19.0528   23.8733 H   0  0  0  0  0  0  0  0  0  0  0  0
   20.2614   17.2161   22.7627 C   0  0  0  0  0  0  0  0  0  0  0  0
   19.2844   16.9568   23.1866 H   0  0  0  0  0  0  0  0  0  0  0  0
   21.0196   16.6706   23.3378 H   0  0  0  0  0  0  0  0  0  0  0  0
   20.2941   16.8546   21.7275 H   0  0  0  0  0  0  0  0  0  0  0  0
   19.4989   19.5315   21.9807 C   0  0  0  0  0  0  0  0  0  0  0  0
   19.7785   20.5930   22.0041 H   0  0  0  0  0  0  0  0  0  0  0  0
   19.5786   19.2188   20.9312 H   0  0  0  0  0  0  0  0  0  0  0  0
   18.0223   19.4062   22.4356 C   0  0  0  0  0  0  0  0  0  0  0  0
   17.6668   18.3761   22.2984 H   0  0  0  0  0  0  0  0  0  0  0  0
   17.3980   20.0286   21.7793 H   0  0  0  0  0  0  0  0  0  0  0  0
   17.8003   19.8448   23.9010 C   0  0  0  0  0  0  0  0  0  0  0  0
   18.1513   20.8722   24.0632 H   0  0  0  0  0  0  0  0  0  0  0  0
   18.3276   19.1868   24.6032 H   0  0  0  0  0  0  0  0  0  0  0  0
   16.7329   19.8115   24.1549 H   0  0  0  0  0  0  0  0  0  0  0  0
  1  2  1  0  0  0  0
  1  3  1  0  0  0  0
  1  4  1  0  0  0  0
  1  5  1  0  0  0  0
  5  6  1  0  0  0  0
  5  7  1  0  0  0  0
  7  8  1  0  0  0  0
  7  9  1  0  0  0  0
  7 10  1  0  0  0  0
  5 11  1  0  0  0  0
 11 12  1  0  0  0  0
 11 13  1  0  0  0  0
 11 14  1  0  0  0  0
 14 15  1  0  0  0  0
 14 16  1  0  0  0  0
 14 17  1  0  0  0  0
 17 18  1  0  0  0  0
 17 19  1  0  0  0  0
 17 20  1  0  0  0  0
M  END
> <VConfSearch Rank>
898

> <Conf_Id>
64

> <Delta U+W>
0.544

> <U+W>
-35.732

> <U>
22.800

> <W>
-58.532

> <W(PB)>
-60.437

> <W(SA)>
1.905

> <Valence>
2.662

> <Coulomb>
19.485

> <VdW>
0.653

> <VdW6>
-5.460

> <VdW12>
6.113

> <Bond>
0.174

> <Angle>
1.378

> <Pdih>
1.109

> <Idih>
0.000

> <Tether>
0.000

$$$$
VeraChem MOL file


 20 19  0  0  0  0  0  0  0  0999 V2000     
   20.0621   19.5944   24.6812 N   0  3  0  0  0  0  0  0  0  0  0  0
   19.1488   19.1386   24.7402 H   0  0  0  0  0  0  0  0  0  0  0  0
   19.9790   20.5057   25.1396 H   0  0  0  0  0  0  0  0  0  0  0  0
   20.7200   19.0365   25.2321 H   0  0  0  0  0  0  0  0  0  0  0  0
   20.5161   19.7359   23.2534 C   0  0  2  0  0  0  0  0  0  0  0  0
   21.4868   20.2397   23.2967 H   0  0  0  0  0  0  0  0  0  0  0  0
   19.5617   20.6454   22.4623 C   0  0  0  0  0  0  0  0  0  0  0  0
   18.5325   20.2691   22.4912 H   0  0  0  0  0  0  0  0  0  0  0  0
   19.8760   20.7245   21.4143 H   0  0  0  0  0  0  0  0  0  0  0  0
   19.5583   21.6571   22.8857 H   0  0  0  0  0  0  0  0  0  0  0  0
   20.7492   18.3648   22.5703 C   0  0  0  0  0  0  0  0  0  0  0  0
   21.2416   18.5197   21.6013 H   0  0  0  0  0  0  0  0  0  0  0  0
   21.4787   17.8149   23.1793 H   0  0  0  0  0  0  0  0  0  0  0  0
   19.4941   17.4670   22.3859 C   0  0  0  0  0  0  0  0  0  0  0  0
   18.7670   17.6399   23.1902 H   0  0  0  0  0  0  0  0  0  0  0  0
   19.8028   16.4166   22.4828 H   0  0  0  0  0  0  0  0  0  0  0  0
   18.8125   17.6330   21.0073 C   0  0  0  0  0  0  0  0  0  0  0  0
   18.4347   18.6495   20.8523 H   0  0  0  0  0  0  0  0  0  0  0  0
   17.9607   16.9467   20.9159 H   0  0  0  0  0  0  0  0  0  0  0  0
   19.5120   17.4038   20.1930 H   0  0  0  0  0  0  0  0  0  0  0  0
  1  2  1  0  0  0  0
  1  3  1  0  0  0  0
  1  4  1  0  0  0  0
  1  5  1  0  0  0  0
  5  6  1  0  0  0  0
  5  7  1  0  0  0  0
  7  8  1  0  0  0  0
  7  9  1  0  0  0  0
  7 10  1  0  0  0  0
  5 11  1  0  0  0  0
 11 12  1  0  0  0  0
 11 13  1  0  0  0  0
 11 14  1  0  0  0  0
 14 15  1  0  0  0  0
 14 16  1  0  0  0  0
 14 17  1  0  0  0  0
 17 18  1  0  0  0  0
 17 19  1  0  0  0  0
 17 20  1  0  0  0  0
M  END
> <VConfSearch Rank>
899

> <Conf_Id>
35

> <Delta U+W>
3.004

> <U+W>
-33.272

> <U>
25.367

> <W>
-58.639

> <W(PB)>
-60.512

> <W(SA)>
1.873

> <Valence>
4.943

> <Coulomb>
19.661

> <VdW>
0.764

> <VdW6>
-5.871

> <VdW12>
6.636

> <Bond>
0.230

> <Angle>
1.857

> <Pdih>
2.855

> <Idih>
0.000

> <Tether>
0.000

$$$$
VeraChem MOL file


 20 19  0  0  0  0  0  0  0  0999 V2000     
   19.3568   19.6097   24.3002 N   0  3  0  0  0  0  0  0  0  0  0  0
   19.7728   20.1833   25.0388 H   0  0  0  0  0  0  0  0  0  0  0  0
   18.5647   19.1095   24.7126 H   0  0  0  0  0  0  0  0  0  0  0  0
   18.9829   20.2420   23.5900 H   0  0  0  0  0  0  0  0  0  0  0  0
   20.3607   18.6588   23.7083 C   0  0  2  0  0  0  0  0  0  0  0  0
   20.6752   18.0172   24.5374 H   0  0  0  0  0  0  0  0  0  0  0  0
   21.6105   19.4030   23.2056 C   0  0  0  0  0  0  0  0  0  0  0  0
   21.3600   20.1384   22.4319 H   0  0  0  0  0  0  0  0  0  0  0  0
   22.3408   18.6989   22.7881 H   0  0  0  0  0  0  0  0  0  0  0  0
   22.0976   19.9370   24.0307 H   0  0  0  0  0  0  0  0  0  0  0  0
   19.7524   17.7286   22.6276 C   0  0  0  0  0  0  0  0  0  0  0  0
   20.4434   16.8872   22.4862 H   0  0  0  0  0  0  0  0  0  0  0  0
   18.8291   17.2834   23.0207 H   0  0  0  0  0  0  0  0  0  0  0  0
   19.4678   18.3489   21.2309 C   0  0  0  0  0  0  0  0  0  0  0  0
   19.0857   17.5522   20.5774 H   0  0  0  0  0  0  0  0  0  0  0  0
   20.4041   18.6869   20.7663 H   0  0  0  0  0  0  0  0  0  0  0  0
   18.4426   19.5056   21.2353 C   0  0  0  0  0  0  0  0  0  0  0  0
   17.5264   19.2238   21.7703 H   0  0  0  0  0  0  0  0  0  0  0  0
   18.1601   19.7665   20.2070 H   0  0  0  0  0  0  0  0  0  0  0  0
   18.8570   20.4107   21.6938 H   0  0  0  0  0  0  0  0  0  0  0  0
  1  2  1  0  0  0  0
  1  3  1  0  0  0  0
  1  4  1  0  0  0  0
  1  5  1  0  0  0  0
  5  6  1  0  0  0  0
  5  7  1  0  0  0  0
  7  8  1  0  0  0  0
  7  9  1  0  0  0  0
  7 10  1  0  0  0  0
  5 11  1  0  0  0  0
 11 12  1  0  0  0  0
 11 13  1  0  0  0  0
 11 14  1  0  0  0  0
 14 15  1  0  0  0  0
 14 16  1  0  0  0  0
 14 17  1  0  0  0  0
 17 18  1  0  0  0  0
 17 19  1  0  0  0  0
 17 20  1  0  0  0  0
M  END
> <VConfSearch Rank>
900

> <Conf_Id>
55

> <Delta U+W>
2.767

> <U+W>
-33.509

> <U>
24.552

> <W>
-58.061

> <W(PB)>
-59.930

> <W(SA)>
1.869

> <Valence>
3.726

> <Coulomb>
20.219

> <VdW>
0.606

> <VdW6>
-6.395

> <VdW12>
7.001

> <Bond>
0.241

> <Angle>
2.098

> <Pdih>
1.387

> <Idih>
0.000

> <Tether>
0.000

$$$$
VeraChem MOL file


 20 19  0  0  0  0  0  0  0  0999 V2000     
   21.3636   18.1724   23.5283 N   0  3  0  0  0  0  0  0  0  0  0  0
   20.8944   17.5797   24.2176 H   0  0  0  0  0  0  0  0  0  0  0  0
   22.3065   18.3609   23.8793 H   0  0  0  0  0  0  0  0  0  0  0  0
   21.4631   17.6256   22.6694 H   0  0  0  0  0  0  0  0  0  0  0  0
   20.6008   19.4470   23.2864 C   0  0  2  0  0  0  0  0  0  0  0  0
   21.1650   20.0148   22.5400 H   0  0  0  0  0  0  0  0  0  0  0  0
   20.5272   20.2848   24.5735 C   0  0  0  0  0  0  0  0  0  0  0  0
   21.5330   20.5013   24.9542 H   0  0  0  0  0  0  0  0  0  0  0  0
   19.9704   19.7587   25.3590 H   0  0  0  0  0  0  0  0  0  0  0  0
   20.0294   21.2444   24.3865 H   0  0  0  0  0  0  0  0  0  0  0  0
   19.1826   19.1932   22.7292 C   0  0  0  0  0  0  0  0  0  0  0  0
   18.6018   18.6034   23.4508 H   0  0  0  0  0  0  0  0  0  0  0  0
   18.6656   20.1565   22.6246 H   0  0  0  0  0  0  0  0  0  0  0  0
   19.1901   18.4796   21.3559 C   0  0  0  0  0  0  0  0  0  0  0  0
   19.6526   17.4874   21.4459 H   0  0  0  0  0  0  0  0  0  0  0  0
   19.8014   19.0524   20.6442 H   0  0  0  0  0  0  0  0  0  0  0  0
   17.7630   18.3184   20.7895 C   0  0  0  0  0  0  0  0  0  0  0  0
   17.1348   17.7233   21.4651 H   0  0  0  0  0  0  0  0  0  0  0  0
   17.7870   17.8097   19.8170 H   0  0  0  0  0  0  0  0  0  0  0  0
   17.2815   19.2946   20.6464 H   0  0  0  0  0  0  0  0  0  0  0  0
  1  2  1  0  0  0  0
  1  3  1  0  0  0  0
  1  4  1  0  0  0  0
  1  5  1  0  0  0  0
  5  6  1  0  0  0  0
  5  7  1  0  0  0  0
  7  8  1  0  0  0  0
  7  9  1  0  0  0  0
  7 10  1  0  0  0  0
  5 11  1  0  0  0  0
 11 12  1  0  0  0  0
 11 13  1  0  0  0  0
 11 14  1  0  0  0  0
 14 15  1  0  0  0  0
 14 16  1  0  0  0  0
 14 17  1  0  0  0  0
 17 18  1  0  0  0  0
 17 19  1  0  0  0  0
 17 20  1  0  0  0  0
M  END
> <VConfSearch Rank>
901

> <Conf_Id>
74

> <Delta U+W>
0.000

> <U+W>
-36.276

> <U>
22.080

> <W>
-58.356

> <W(PB)>
-60.289

> <W(SA)>
1.932

> <Valence>
1.885

> <Coulomb>
19.559

> <VdW>
0.637

> <VdW6>
-4.482

> <VdW12>
5.119

> <Bond>
0.136

> <Angle>
0.867

> <Pdih>
0.882

> <Idih>
0.000

> <Tether>
0.000

$$$$
VeraChem MOL file


 20 19  0  0  0  0  0  0  0  0999 V2000     
   18.7748   16.7882   22.2894 N   0  3  0  0  0  0  0  0  0  0  0  0
   18.0600   16.7303   23.0198 H   0  0  0  0  0  0  0  0  0  0  0  0
   19.5657   16.2122   22.5885 H   0  0  0  0  0  0  0  0  0  0  0  0
   18.3836   16.3546   21.4488 H   0  0  0  0  0  0  0  0  0  0  0  0
   19.1925   18.2101   22.0322 C   0  0  2  0  0  0  0  0  0  0  0  0
   18.2905   18.7441   21.7175 H   0  0  0  0  0  0  0  0  0  0  0  0
   20.2163   18.2663   20.8835 C   0  0  0  0  0  0  0  0  0  0  0  0
   19.8342   17.7412   19.9995 H   0  0  0  0  0  0  0  0  0  0  0  0
   21.1649   17.7976   21.1735 H   0  0  0  0  0  0  0  0  0  0  0  0
   20.4215   19.2998   20.5817 H   0  0  0  0  0  0  0  0  0  0  0  0
   19.7251   18.8785   23.3211 C   0  0  0  0  0  0  0  0  0  0  0  0
   18.9978   18.7093   24.1261 H   0  0  0  0  0  0  0  0  0  0  0  0
   20.6556   18.3871   23.6350 H   0  0  0  0  0  0  0  0  0  0  0  0
   19.9606   20.4026   23.1839 C   0  0  0  0  0  0  0  0  0  0  0  0
   19.0476   20.8864   22.8091 H   0  0  0  0  0  0  0  0  0  0  0  0
   20.7515   20.6015   22.4486 H   0  0  0  0  0  0  0  0  0  0  0  0
   20.3613   21.0407   24.5314 C   0  0  0  0  0  0  0  0  0  0  0  0
   19.5751   20.9013   25.2849 H   0  0  0  0  0  0  0  0  0  0  0  0
   20.5278   22.1195   24.4153 H   0  0  0  0  0  0  0  0  0  0  0  0
   21.2880   20.5970   24.9183 H   0  0  0  0  0  0  0  0  0  0  0  0
  1  2  1  0  0  0  0
  1  3  1  0  0  0  0
  1  4  1  0  0  0  0
  1  5  1  0  0  0  0
  5  6  1  0  0  0  0
  5  7  1  0  0  0  0
  7  8  1  0  0  0  0
  7  9  1  0  0  0  0
  7 10  1  0  0  0  0
  5 11  1  0  0  0  0
 11 12  1  0  0  0  0
 11 13  1  0  0  0  0
 11 14  1  0  0  0  0
 14 15  1  0  0  0  0
 14 16  1  0  0  0  0
 14 17  1  0  0  0  0
 17 18  1  0  0  0  0
 17 19  1  0  0  0  0
 17 20  1  0  0  0  0
M  END
> <VConfSearch Rank>
902

> <Conf_Id>
80

> <Delta U+W>
0.460

> <U+W>
-35.817

> <U>
22.495

> <W>
-58.311

> <W(PB)>
-60.259

> <W(SA)>
1.948

> <Valence>
2.419

> <Coulomb>
19.304

> <VdW>
0.772

> <VdW6>
-4.635

> <VdW12>
5.407

> <Bond>
0.149

> <Angle>
1.142

> <Pdih>
1.129

> <Idih>
0.000

> <Tether>
0.000

$$$$
VeraChem MOL file


 20 19  0  0  0  0  0  0  0  0999 V2000     
   20.5821   19.5987   20.5894 N   0  3  0  0  0  0  0  0  0  0  0  0
   21.5620   19.3306   20.4637 H   0  0  0  0  0  0  0  0  0  0  0  0
   20.5639   20.5961   20.8166 H   0  0  0  0  0  0  0  0  0  0  0  0
   20.1190   19.4846   19.6838 H   0  0  0  0  0  0  0  0  0  0  0  0
   19.9136   18.7769   21.6574 C   0  0  2  0  0  0  0  0  0  0  0  0
   19.9764   17.7356   21.3267 H   0  0  0  0  0  0  0  0  0  0  0  0
   18.4264   19.1547   21.7669 C   0  0  0  0  0  0  0  0  0  0  0  0
   17.9494   19.1410   20.7793 H   0  0  0  0  0  0  0  0  0  0  0  0
   18.3007   20.1581   22.1923 H   0  0  0  0  0  0  0  0  0  0  0  0
   17.8847   18.4385   22.3950 H   0  0  0  0  0  0  0  0  0  0  0  0
   20.6661   18.8989   23.0050 C   0  0  0  0  0  0  0  0  0  0  0  0
   21.7183   18.6467   22.8186 H   0  0  0  0  0  0  0  0  0  0  0  0
   20.6656   19.9424   23.3468 H   0  0  0  0  0  0  0  0  0  0  0  0
   20.1493   17.9650   24.1313 C   0  0  0  0  0  0  0  0  0  0  0  0
   21.0100   17.6151   24.7186 H   0  0  0  0  0  0  0  0  0  0  0  0
   19.6927   17.0629   23.7003 H   0  0  0  0  0  0  0  0  0  0  0  0
   19.1627   18.6580   25.1005 C   0  0  0  0  0  0  0  0  0  0  0  0
   19.6360   19.5172   25.5934 H   0  0  0  0  0  0  0  0  0  0  0  0
   18.8416   17.9607   25.8851 H   0  0  0  0  0  0  0  0  0  0  0  0
   18.2634   19.0173   24.5880 H   0  0  0  0  0  0  0  0  0  0  0  0
  1  2  1  0  0  0  0
  1  3  1  0  0  0  0
  1  4  1  0  0  0  0
  1  5  1  0  0  0  0
  5  6  1  0  0  0  0
  5  7  1  0  0  0  0
  7  8  1  0  0  0  0
  7  9  1  0  0  0  0
  7 10  1  0  0  0  0
  5 11  1  0  0  0  0
 11 12  1  0  0  0  0
 11 13  1  0  0  0  0
 11 14  1  0  0  0  0
 14 15  1  0  0  0  0
 14 16  1  0  0  0  0
 14 17  1  0  0  0  0
 17 18  1  0  0  0  0
 17 19  1  0  0  0  0
 17 20  1  0  0  0  0
M  END
> <VConfSearch Rank>
903

> <Conf_Id>
52

> <Delta U+W>
2.995

> <U+W>
-33.282

> <U>
25.224

> <W>
-58.506

> <W(PB)>
-60.411

> <W(SA)>
1.905

> <Valence>
4.945

> <Coulomb>
19.467

> <VdW>
0.813

> <VdW6>
-5.458

> <VdW12>
6.270

> <Bond>
0.200

> <Angle>
1.675

> <Pdih>
3.070

> <Idih>
0.000

> <Tether>
0.000

$$$$
VeraChem MOL file


 20 19  0  0  0  0  0  0  0  0999 V2000     
   18.9865   18.3202   23.9948 N   0  3  0  0  0  0  0  0  0  0  0  0
   19.4820   17.4383   24.1463 H   0  0  0  0  0  0  0  0  0  0  0  0
   18.0594   18.2271   24.4185 H   0  0  0  0  0  0  0  0  0  0  0  0
   19.4899   19.0462   24.5092 H   0  0  0  0  0  0  0  0  0  0  0  0
   18.8940   18.6528   22.5305 C   0  0  2  0  0  0  0  0  0  0  0  0
   18.3132   19.5766   22.4460 H   0  0  0  0  0  0  0  0  0  0  0  0
   18.1356   17.5386   21.7896 C   0  0  0  0  0  0  0  0  0  0  0  0
   18.6849   16.5896   21.8301 H   0  0  0  0  0  0  0  0  0  0  0  0
   17.9855   17.8019   20.7352 H   0  0  0  0  0  0  0  0  0  0  0  0
   17.1456   17.3799   22.2345 H   0  0  0  0  0  0  0  0  0  0  0  0
   20.2782   18.8878   21.8802 C   0  0  0  0  0  0  0  0  0  0  0  0
   20.9684   18.0836   22.1677 H   0  0  0  0  0  0  0  0  0  0  0  0
   20.1697   18.8138   20.7899 H   0  0  0  0  0  0  0  0  0  0  0  0
   20.9130   20.2704   22.1835 C   0  0  0  0  0  0  0  0  0  0  0  0
   20.2363   21.0696   21.8496 H   0  0  0  0  0  0  0  0  0  0  0  0
   21.8224   20.3704   21.5744 H   0  0  0  0  0  0  0  0  0  0  0  0
   21.2917   20.5004   23.6643 C   0  0  0  0  0  0  0  0  0  0  0  0
   21.9100   21.4024   23.7614 H   0  0  0  0  0  0  0  0  0  0  0  0
   21.8696   19.6572   24.0646 H   0  0  0  0  0  0  0  0  0  0  0  0
   20.4045   20.6534   24.2895 H   0  0  0  0  0  0  0  0  0  0  0  0
  1  2  1  0  0  0  0
  1  3  1  0  0  0  0
  1  4  1  0  0  0  0
  1  5  1  0  0  0  0
  5  6  1  0  0  0  0
  5  7  1  0  0  0  0
  7  8  1  0  0  0  0
  7  9  1  0  0  0  0
  7 10  1  0  0  0  0
  5 11  1  0  0  0  0
 11 12  1  0  0  0  0
 11 13  1  0  0  0  0
 11 14  1  0  0  0  0
 14 15  1  0  0  0  0
 14 16  1  0  0  0  0
 14 17  1  0  0  0  0
 17 18  1  0  0  0  0
 17 19  1  0  0  0  0
 17 20  1  0  0  0  0
M  END
> <VConfSearch Rank>
904

> <Conf_Id>
54

> <Delta U+W>
2.752

> <U+W>
-33.525

> <U>
24.337

> <W>
-57.862

> <W(PB)>
-59.764

> <W(SA)>
1.901

> <Valence>
3.593

> <Coulomb>
20.067

> <VdW>
0.677

> <VdW6>
-5.466

> <VdW12>
6.144

> <Bond>
0.191

> <Angle>
1.557

> <Pdih>
1.845

> <Idih>
0.000

> <Tether>
0.000

$$$$
VeraChem MOL file


 20 19  0  0  0  0  0  0  0  0999 V2000     
   18.0199   18.5716   23.7478 N   0  3  0  0  0  0  0  0  0  0  0  0
   17.5344   17.8804   24.3257 H   0  0  0  0  0  0  0  0  0  0  0  0
   17.3042   19.1064   23.2484 H   0  0  0  0  0  0  0  0  0  0  0  0
   18.4994   19.2159   24.3806 H   0  0  0  0  0  0  0  0  0  0  0  0
   18.9838   17.9151   22.7971 C   0  0  2  0  0  0  0  0  0  0  0  0
   18.3856   17.2382   22.1790 H   0  0  0  0  0  0  0  0  0  0  0  0
   20.0141   17.0606   23.5567 C   0  0  0  0  0  0  0  0  0  0  0  0
   20.7160   16.5852   22.8604 H   0  0  0  0  0  0  0  0  0  0  0  0
   19.5119   16.2630   24.1177 H   0  0  0  0  0  0  0  0  0  0  0  0
   20.5911   17.6596   24.2711 H   0  0  0  0  0  0  0  0  0  0  0  0
   19.6592   18.9294   21.8431 C   0  0  0  0  0  0  0  0  0  0  0  0
   20.2765   18.3781   21.1215 H   0  0  0  0  0  0  0  0  0  0  0  0
   18.8769   19.4249   21.2532 H   0  0  0  0  0  0  0  0  0  0  0  0
   20.5283   20.0068   22.5420 C   0  0  0  0  0  0  0  0  0  0  0  0
   21.3490   19.5322   23.0962 H   0  0  0  0  0  0  0  0  0  0  0  0
   19.9275   20.5619   23.2748 H   0  0  0  0  0  0  0  0  0  0  0  0
   21.1243   21.0019   21.5232 C   0  0  0  0  0  0  0  0  0  0  0  0
   21.7381   21.7566   22.0319 H   0  0  0  0  0  0  0  0  0  0  0  0
   20.3322   21.5275   20.9740 H   0  0  0  0  0  0  0  0  0  0  0  0
   21.7618   20.4860   20.7934 H   0  0  0  0  0  0  0  0  0  0  0  0
  1  2  1  0  0  0  0
  1  3  1  0  0  0  0
  1  4  1  0  0  0  0
  1  5  1  0  0  0  0
  5  6  1  0  0  0  0
  5  7  1  0  0  0  0
  7  8  1  0  0  0  0
  7  9  1  0  0  0  0
  7 10  1  0  0  0  0
  5 11  1  0  0  0  0
 11 12  1  0  0  0  0
 11 13  1  0  0  0  0
 11 14  1  0  0  0  0
 14 15  1  0  0  0  0
 14 16  1  0  0  0  0
 14 17  1  0  0  0  0
 17 18  1  0  0  0  0
 17 19  1  0  0  0  0
 17 20  1  0  0  0  0
M  END
> <VConfSearch Rank>
905

> <Conf_Id>
63

> <Delta U+W>
0.420

> <U+W>
-35.856

> <U>
22.625

> <W>
-58.481

> <W(PB)>
-60.400

> <W(SA)>
1.919

> <Valence>
2.404

> <Coulomb>
19.464

> <VdW>
0.757

> <VdW6>
-5.074

> <VdW12>
5.830

> <Bond>
0.172

> <Angle>
1.207

> <Pdih>
1.025

> <Idih>
0.000

> <Tether>
0.000

$$$$
VeraChem MOL file


 20 19  0  0  0  0  0  0  0  0999 V2000     
   21.4171   18.6388   22.6088 N   0  3  0  0  0  0  0  0  0  0  0  0
   21.1453   17.6644   22.7625 H   0  0  0  0  0  0  0  0  0  0  0  0
   21.9169   18.9545   23.4436 H   0  0  0  0  0  0  0  0  0  0  0  0
   22.0820   18.6517   21.8309 H   0  0  0  0  0  0  0  0  0  0  0  0
   20.2181   19.5025   22.3245 C   0  0  2  0  0  0  0  0  0  0  0  0
   19.7475   19.1005   21.4223 H   0  0  0  0  0  0  0  0  0  0  0  0
   20.6478   20.9500   22.0354 C   0  0  0  0  0  0  0  0  0  0  0  0
   21.3541   20.9853   21.1969 H   0  0  0  0  0  0  0  0  0  0  0  0
   21.1321   21.4031   22.9094 H   0  0  0  0  0  0  0  0  0  0  0  0
   19.7817   21.5673   21.7665 H   0  0  0  0  0  0  0  0  0  0  0  0
   19.1800   19.4678   23.4691 C   0  0  0  0  0  0  0  0  0  0  0  0
   19.6291   19.8832   24.3810 H   0  0  0  0  0  0  0  0  0  0  0  0
   18.3421   20.1292   23.2115 H   0  0  0  0  0  0  0  0  0  0  0  0
   18.6214   18.0554   23.7774 C   0  0  0  0  0  0  0  0  0  0  0  0
   17.8997   18.1341   24.6025 H   0  0  0  0  0  0  0  0  0  0  0  0
   19.4245   17.4001   24.1409 H   0  0  0  0  0  0  0  0  0  0  0  0
   17.9239   17.4013   22.5629 C   0  0  0  0  0  0  0  0  0  0  0  0
   17.1159   18.0390   22.1814 H   0  0  0  0  0  0  0  0  0  0  0  0
   17.4831   16.4367   22.8462 H   0  0  0  0  0  0  0  0  0  0  0  0
   18.6290   17.2143   21.7432 H   0  0  0  0  0  0  0  0  0  0  0  0
  1  2  1  0  0  0  0
  1  3  1  0  0  0  0
  1  4  1  0  0  0  0
  1  5  1  0  0  0  0
  5  6  1  0  0  0  0
  5  7  1  0  0  0  0
  7  8  1  0  0  0  0
  7  9  1  0  0  0  0
  7 10  1  0  0  0  0
  5 11  1  0  0  0  0
 11 12  1  0  0  0  0
 11 13  1  0  0  0  0
 11 14  1  0  0  0  0
 14 15  1  0  0  0  0
 14 16  1  0  0  0  0
 14 17  1  0  0  0  0
 17 18  1  0  0  0  0
 17 19  1  0  0  0  0
 17 20  1  0  0  0  0
M  END
> <VConfSearch Rank>
906

> <Conf_Id>
50

> <Delta U+W>
0.466

> <U+W>
-35.811

> <U>
22.369

> <W>
-58.180

> <W(PB)>
-60.103

> <W(SA)>
1.923

> <Valence>
2.168

> <Coulomb>
19.636

> <VdW>
0.566

> <VdW6>
-5.263

> <VdW12>
5.829

> <Bond>
0.162

> <Angle>
1.066

> <Pdih>
0.939

> <Idih>
0.000

> <Tether>
0.000

$$$$
VeraChem MOL file


 20 19  0  0  0  0  0  0  0  0999 V2000     
   20.9084   17.4471   21.4314 N   0  3  0  0  0  0  0  0  0  0  0  0
   21.7220   17.1944   21.9990 H   0  0  0  0  0  0  0  0  0  0  0  0
   21.2470   17.9933   20.6352 H   0  0  0  0  0  0  0  0  0  0  0  0
   20.5175   16.5773   21.0594 H   0  0  0  0  0  0  0  0  0  0  0  0
   19.8887   18.2111   22.2321 C   0  0  2  0  0  0  0  0  0  0  0  0
   19.5920   17.5530   23.0548 H   0  0  0  0  0  0  0  0  0  0  0  0
   18.6507   18.5058   21.3646 C   0  0  0  0  0  0  0  0  0  0  0  0
   18.9135   19.1262   20.4988 H   0  0  0  0  0  0  0  0  0  0  0  0
   17.8766   19.0325   21.9329 H   0  0  0  0  0  0  0  0  0  0  0  0
   18.2096   17.5733   20.9916 H   0  0  0  0  0  0  0  0  0  0  0  0
   20.4828   19.5052   22.8407 C   0  0  0  0  0  0  0  0  0  0  0  0
   21.5788   19.4418   22.8200 H   0  0  0  0  0  0  0  0  0  0  0  0
   20.2255   20.3741   22.2205 H   0  0  0  0  0  0  0  0  0  0  0  0
   20.0634   19.7571   24.3112 C   0  0  0  0  0  0  0  0  0  0  0  0
   20.5919   20.6478   24.6791 H   0  0  0  0  0  0  0  0  0  0  0  0
   20.4026   18.9206   24.9384 H   0  0  0  0  0  0  0  0  0  0  0  0
   18.5453   19.9632   24.5092 C   0  0  0  0  0  0  0  0  0  0  0  0
   18.1667   20.7658   23.8631 H   0  0  0  0  0  0  0  0  0  0  0  0
   18.3285   20.2405   25.5490 H   0  0  0  0  0  0  0  0  0  0  0  0
   17.9844   19.0459   24.2913 H   0  0  0  0  0  0  0  0  0  0  0  0
  1  2  1  0  0  0  0
  1  3  1  0  0  0  0
  1  4  1  0  0  0  0
  1  5  1  0  0  0  0
  5  6  1  0  0  0  0
  5  7  1  0  0  0  0
  7  8  1  0  0  0  0
  7  9  1  0  0  0  0
  7 10  1  0  0  0  0
  5 11  1  0  0  0  0
 11 12  1  0  0  0  0
 11 13  1  0  0  0  0
 11 14  1  0  0  0  0
 14 15  1  0  0  0  0
 14 16  1  0  0  0  0
 14 17  1  0  0  0  0
 17 18  1  0  0  0  0
 17 19  1  0  0  0  0
 17 20  1  0  0  0  0
M  END
> <VConfSearch Rank>
907

> <Conf_Id>
3

> <Delta U+W>
3.093

> <U+W>
-33.184

> <U>
25.256

> <W>
-58.439

> <W(PB)>
-60.337

> <W(SA)>
1.898

> <Valence>
4.963

> <Coulomb>
19.511

> <VdW>
0.782

> <VdW6>
-5.429

> <VdW12>
6.211

> <Bond>
0.174

> <Angle>
1.377

> <Pdih>
3.412

> <Idih>
0.000

> <Tether>
0.000

$$$$
VeraChem MOL file


 20 19  0  0  0  0  0  0  0  0999 V2000     
   20.1783   18.8847   24.9878 N   0  3  0  0  0  0  0  0  0  0  0  0
   20.9076   19.4660   25.4097 H   0  0  0  0  0  0  0  0  0  0  0  0
   20.4398   17.9081   25.1480 H   0  0  0  0  0  0  0  0  0  0  0  0
   19.3133   19.0591   25.5055 H   0  0  0  0  0  0  0  0  0  0  0  0
   20.0150   19.1829   23.5226 C   0  0  2  0  0  0  0  0  0  0  0  0
   20.9828   18.9728   23.0574 H   0  0  0  0  0  0  0  0  0  0  0  0
   19.6878   20.6725   23.3125 C   0  0  0  0  0  0  0  0  0  0  0  0
   19.7031   20.9368   22.2488 H   0  0  0  0  0  0  0  0  0  0  0  0
   20.4292   21.3059   23.8148 H   0  0  0  0  0  0  0  0  0  0  0  0
   18.6983   20.9223   23.7148 H   0  0  0  0  0  0  0  0  0  0  0  0
   18.9548   18.2585   22.8778 C   0  0  0  0  0  0  0  0  0  0  0  0
   19.1971   17.2174   23.1288 H   0  0  0  0  0  0  0  0  0  0  0  0
   17.9743   18.4600   23.3291 H   0  0  0  0  0  0  0  0  0  0  0  0
   18.8359   18.3733   21.3364 C   0  0  0  0  0  0  0  0  0  0  0  0
   18.4646   19.3680   21.0553 H   0  0  0  0  0  0  0  0  0  0  0  0
   18.0757   17.6600   20.9881 H   0  0  0  0  0  0  0  0  0  0  0  0
   20.1657   18.0855   20.6030 C   0  0  0  0  0  0  0  0  0  0  0  0
   20.5584   17.0959   20.8709 H   0  0  0  0  0  0  0  0  0  0  0  0
   20.9298   18.8351   20.8443 H   0  0  0  0  0  0  0  0  0  0  0  0
   20.0169   18.1035   19.5156 H   0  0  0  0  0  0  0  0  0  0  0  0
  1  2  1  0  0  0  0
  1  3  1  0  0  0  0
  1  4  1  0  0  0  0
  1  5  1  0  0  0  0
  5  6  1  0  0  0  0
  5  7  1  0  0  0  0
  7  8  1  0  0  0  0
  7  9  1  0  0  0  0
  7 10  1  0  0  0  0
  5 11  1  0  0  0  0
 11 12  1  0  0  0  0
 11 13  1  0  0  0  0
 11 14  1  0  0  0  0
 14 15  1  0  0  0  0
 14 16  1  0  0  0  0
 14 17  1  0  0  0  0
 17 18  1  0  0  0  0
 17 19  1  0  0  0  0
 17 20  1  0  0  0  0
M  END
> <VConfSearch Rank>
908

> <Conf_Id>
64

> <Delta U+W>
0.544

> <U+W>
-35.732

> <U>
22.800

> <W>
-58.532

> <W(PB)>
-60.437

> <W(SA)>
1.905

> <Valence>
2.662

> <Coulomb>
19.485

> <VdW>
0.653

> <VdW6>
-5.460

> <VdW12>
6.113

> <Bond>
0.174

> <Angle>
1.378

> <Pdih>
1.109

> <Idih>
0.000

> <Tether>
0.000

$$$$
VeraChem MOL file


 20 19  0  0  0  0  0  0  0  0999 V2000     
   21.5105   17.7470   23.0259 N   0  3  0  0  0  0  0  0  0  0  0  0
   21.6517   18.5164   23.6842 H   0  0  0  0  0  0  0  0  0  0  0  0
   22.3880   17.6167   22.5154 H   0  0  0  0  0  0  0  0  0  0  0  0
   21.3501   16.8983   23.5751 H   0  0  0  0  0  0  0  0  0  0  0  0
   20.3655   18.0257   22.0900 C   0  0  2  0  0  0  0  0  0  0  0  0
   20.3041   17.1579   21.4257 H   0  0  0  0  0  0  0  0  0  0  0  0
   20.6600   19.2544   21.2141 C   0  0  0  0  0  0  0  0  0  0  0  0
   20.8681   20.1414   21.8237 H   0  0  0  0  0  0  0  0  0  0  0  0
   19.8130   19.4753   20.5529 H   0  0  0  0  0  0  0  0  0  0  0  0
   21.5371   19.0720   20.5813 H   0  0  0  0  0  0  0  0  0  0  0  0
   19.0084   18.1234   22.8315 C   0  0  0  0  0  0  0  0  0  0  0  0
   18.1931   18.1511   22.0967 H   0  0  0  0  0  0  0  0  0  0  0  0
   18.8676   17.1842   23.3825 H   0  0  0  0  0  0  0  0  0  0  0  0
   18.8559   19.3024   23.8324 C   0  0  0  0  0  0  0  0  0  0  0  0
   19.8237   19.5643   24.2798 H   0  0  0  0  0  0  0  0  0  0  0  0
   18.2218   18.9689   24.6658 H   0  0  0  0  0  0  0  0  0  0  0  0
   18.1987   20.5582   23.2128 C   0  0  0  0  0  0  0  0  0  0  0  0
   18.7978   20.9795   22.3982 H   0  0  0  0  0  0  0  0  0  0  0  0
   18.0769   21.3412   23.9724 H   0  0  0  0  0  0  0  0  0  0  0  0
   17.2027   20.3245   22.8148 H   0  0  0  0  0  0  0  0  0  0  0  0
  1  2  1  0  0  0  0
  1  3  1  0  0  0  0
  1  4  1  0  0  0  0
  1  5  1  0  0  0  0
  5  6  1  0  0  0  0
  5  7  1  0  0  0  0
  7  8  1  0  0  0  0
  7  9  1  0  0  0  0
  7 10  1  0  0  0  0
  5 11  1  0  0  0  0
 11 12  1  0  0  0  0
 11 13  1  0  0  0  0
 11 14  1  0  0  0  0
 14 15  1  0  0  0  0
 14 16  1  0  0  0  0
 14 17  1  0  0  0  0
 17 18  1  0  0  0  0
 17 19  1  0  0  0  0
 17 20  1  0  0  0  0
M  END
> <VConfSearch Rank>
909

> <Conf_Id>
35

> <Delta U+W>
3.004

> <U+W>
-33.272

> <U>
25.367

> <W>
-58.639

> <W(PB)>
-60.512

> <W(SA)>
1.873

> <Valence>
4.943

> <Coulomb>
19.661

> <VdW>
0.764

> <VdW6>
-5.871

> <VdW12>
6.636

> <Bond>
0.230

> <Angle>
1.857

> <Pdih>
2.855

> <Idih>
0.000

> <Tether>
0.000

$$$$
VeraChem MOL file


 20 19  0  0  0  0  0  0  0  0999 V2000     
   19.3756   20.0629   24.0388 N   0  3  0  0  0  0  0  0  0  0  0  0
   19.3669   21.0676   24.2343 H   0  0  0  0  0  0  0  0  0  0  0  0
   19.3289   19.5772   24.9385 H   0  0  0  0  0  0  0  0  0  0  0  0
   18.5208   19.8395   23.5257 H   0  0  0  0  0  0  0  0  0  0  0  0
   20.5986   19.6628   23.2598 C   0  0  2  0  0  0  0  0  0  0  0  0
   21.4471   19.9187   23.9021 H   0  0  0  0  0  0  0  0  0  0  0  0
   20.7365   20.4882   21.9682 C   0  0  0  0  0  0  0  0  0  0  0  0
   19.8703   20.3562   21.3089 H   0  0  0  0  0  0  0  0  0  0  0  0
   21.6379   20.1971   21.4151 H   0  0  0  0  0  0  0  0  0  0  0  0
   20.8203   21.5565   22.2020 H   0  0  0  0  0  0  0  0  0  0  0  0
   20.6791   18.1370   22.9975 C   0  0  0  0  0  0  0  0  0  0  0  0
   21.7149   17.9020   22.7190 H   0  0  0  0  0  0  0  0  0  0  0  0
   20.5040   17.6044   23.9413 H   0  0  0  0  0  0  0  0  0  0  0  0
   19.7479   17.5523   21.8987 C   0  0  0  0  0  0  0  0  0  0  0  0
   19.9616   16.4780   21.8095 H   0  0  0  0  0  0  0  0  0  0  0  0
   19.9961   17.9840   20.9196 H   0  0  0  0  0  0  0  0  0  0  0  0
   18.2369   17.7245   22.1747 C   0  0  0  0  0  0  0  0  0  0  0  0
   17.9742   17.3791   23.1830 H   0  0  0  0  0  0  0  0  0  0  0  0
   17.6504   17.1349   21.4581 H   0  0  0  0  0  0  0  0  0  0  0  0
   17.9227   18.7687   22.0643 H   0  0  0  0  0  0  0  0  0  0  0  0
  1  2  1  0  0  0  0
  1  3  1  0  0  0  0
  1  4  1  0  0  0  0
  1  5  1  0  0  0  0
  5  6  1  0  0  0  0
  5  7  1  0  0  0  0
  7  8  1  0  0  0  0
  7  9  1  0  0  0  0
  7 10  1  0  0  0  0
  5 11  1  0  0  0  0
 11 12  1  0  0  0  0
 11 13  1  0  0  0  0
 11 14  1  0  0  0  0
 14 15  1  0  0  0  0
 14 16  1  0  0  0  0
 14 17  1  0  0  0  0
 17 18  1  0  0  0  0
 17 19  1  0  0  0  0
 17 20  1  0  0  0  0
M  END
> <VConfSearch Rank>
910

> <Conf_Id>
55

> <Delta U+W>
2.767

> <U+W>
-33.509

> <U>
24.552

> <W>
-58.061

> <W(PB)>
-59.930

> <W(SA)>
1.869

> <Valence>
3.726

> <Coulomb>
20.219

> <VdW>
0.606

> <VdW6>
-6.395

> <VdW12>
7.001

> <Bond>
0.241

> <Angle>
2.098

> <Pdih>
1.387

> <Idih>
0.000

> <Tether>
0.000

$$$$
VeraChem MOL file


 20 19  0  0  0  0  0  0  0  0999 V2000     
   18.8686   17.3561   23.4667 N   0  3  0  0  0  0  0  0  0  0  0  0
   17.9488   17.4970   23.0417 H   0  0  0  0  0  0  0  0  0  0  0  0
   18.7335   16.7827   24.3037 H   0  0  0  0  0  0  0  0  0  0  0  0
   19.4300   16.8078   22.8103 H   0  0  0  0  0  0  0  0  0  0  0  0
   19.5297   18.6670   23.7979 C   0  0  2  0  0  0  0  0  0  0  0  0
   20.5014   18.4266   24.2405 H   0  0  0  0  0  0  0  0  0  0  0  0
   18.7044   19.4399   24.8398 C   0  0  0  0  0  0  0  0  0  0  0  0
   18.5609   18.8383   25.7458 H   0  0  0  0  0  0  0  0  0  0  0  0
   17.7155   19.7056   24.4459 H   0  0  0  0  0  0  0  0  0  0  0  0
   19.2150   20.3655   25.1334 H   0  0  0  0  0  0  0  0  0  0  0  0
   19.7717   19.5421   22.5482 C   0  0  0  0  0  0  0  0  0  0  0  0
   18.8116   19.7784   22.0706 H   0  0  0  0  0  0  0  0  0  0  0  0
   20.2073   20.4992   22.8651 H   0  0  0  0  0  0  0  0  0  0  0  0
   20.7190   18.8796   21.5190 C   0  0  0  0  0  0  0  0  0  0  0  0
   20.2787   17.9460   21.1436 H   0  0  0  0  0  0  0  0  0  0  0  0
   21.6665   18.6110   22.0072 H   0  0  0  0  0  0  0  0  0  0  0  0
   21.0066   19.8146   20.3248 C   0  0  0  0  0  0  0  0  0  0  0  0
   20.0806   20.0772   19.7968 H   0  0  0  0  0  0  0  0  0  0  0  0
   21.6781   19.3288   19.6049 H   0  0  0  0  0  0  0  0  0  0  0  0
   21.4862   20.7446   20.6569 H   0  0  0  0  0  0  0  0  0  0  0  0
  1  2  1  0  0  0  0
  1  3  1  0  0  0  0
  1  4  1  0  0  0  0
  1  5  1  0  0  0  0
  5  6  1  0  0  0  0
  5  7  1  0  0  0  0
  7  8  1  0  0  0  0
  7  9  1  0  0  0  0
  7 10  1  0  0  0  0
  5 11  1  0  0  0  0
 11 12  1  0  0  0  0
 11 13  1  0  0  0  0
 11 14  1  0  0  0  0
 14 15  1  0  0  0  0
 14 16  1  0  0  0  0
 14 17  1  0  0  0  0
 17 18  1  0  0  0  0
 17 19  1  0  0  0  0
 17 20  1  0  0  0  0
M  END
> <VConfSearch Rank>
911

> <Conf_Id>
74

> <Delta U+W>
0.000

> <U+W>
-36.276

> <U>
22.080

> <W>
-58.356

> <W(PB)>
-60.289

> <W(SA)>
1.932

> <Valence>
1.885

> <Coulomb>
19.559

> <VdW>
0.637

> <VdW6>
-4.482

> <VdW12>
5.119

> <Bond>
0.136

> <Angle>
0.867

> <Pdih>
0.882

> <Idih>
0.000

> <Tether>
0.000

$$$$
VeraChem MOL file


 20 19  0  0  0  0  0  0  0  0999 V2000     
   18.2814   17.0836   22.3078 N   0  3  0  0  0  0  0  0  0  0  0  0
   18.5187   16.4545   23.0796 H   0  0  0  0  0  0  0  0  0  0  0  0
   18.7401   16.7238   21.4671 H   0  0  0  0  0  0  0  0  0  0  0  0
   17.2715   17.0104   22.1581 H   0  0  0  0  0  0  0  0  0  0  0  0
   18.6937   18.5005   22.5990 C   0  0  2  0  0  0  0  0  0  0  0  0
   18.1558   18.7980   23.5046 H   0  0  0  0  0  0  0  0  0  0  0  0
   18.2614   19.4293   21.4496 C   0  0  0  0  0  0  0  0  0  0  0  0
   17.1931   19.3055   21.2338 H   0  0  0  0  0  0  0  0  0  0  0  0
   18.8209   19.2118   20.5313 H   0  0  0  0  0  0  0  0  0  0  0  0
   18.4189   20.4830   21.7068 H   0  0  0  0  0  0  0  0  0  0  0  0
   20.2106   18.5940   22.8850 C   0  0  0  0  0  0  0  0  0  0  0  0
   20.4704   17.8343   23.6340 H   0  0  0  0  0  0  0  0  0  0  0  0
   20.7744   18.3408   21.9773 H   0  0  0  0  0  0  0  0  0  0  0  0
   20.6637   19.9778   23.4114 C   0  0  0  0  0  0  0  0  0  0  0  0
   20.0562   20.2600   24.2829 H   0  0  0  0  0  0  0  0  0  0  0  0
   20.5010   20.7487   22.6464 H   0  0  0  0  0  0  0  0  0  0  0  0
   22.1560   19.9760   23.8072 C   0  0  0  0  0  0  0  0  0  0  0  0
   22.3536   19.2464   24.6034 H   0  0  0  0  0  0  0  0  0  0  0  0
   22.4609   20.9647   24.1743 H   0  0  0  0  0  0  0  0  0  0  0  0
   22.7920   19.7251   22.9483 H   0  0  0  0  0  0  0  0  0  0  0  0
  1  2  1  0  0  0  0
  1  3  1  0  0  0  0
  1  4  1  0  0  0  0
  1  5  1  0  0  0  0
  5  6  1  0  0  0  0
  5  7  1  0  0  0  0
  7  8  1  0  0  0  0
  7  9  1  0  0  0  0
  7 10  1  0  0  0  0
  5 11  1  0  0  0  0
 11 12  1  0  0  0  0
 11 13  1  0  0  0  0
 11 14  1  0  0  0  0
 14 15  1  0  0  0  0
 14 16  1  0  0  0  0
 14 17  1  0  0  0  0
 17 18  1  0  0  0  0
 17 19  1  0  0  0  0
 17 20  1  0  0  0  0
M  END
> <VConfSearch Rank>
912

> <Conf_Id>
80

> <Delta U+W>
0.460

> <U+W>
-35.817

> <U>
22.495

> <W>
-58.311

> <W(PB)>
-60.259

> <W(SA)>
1.948

> <Valence>
2.419

> <Coulomb>
19.304

> <VdW>
0.772

> <VdW6>
-4.635

> <VdW12>
5.407

> <Bond>
0.149

> <Angle>
1.142

> <Pdih>
1.129

> <Idih>
0.000

> <Tether>
0.000

$$$$
VeraChem MOL file


 20 19  0  0  0  0  0  0  0  0999 V2000     
   18.1733   17.9572   21.1762 N   0  3  0  0  0  0  0  0  0  0  0  0
   17.7477   18.6883   20.5998 H   0  0  0  0  0  0  0  0  0  0  0  0
   17.4909   17.6951   21.8920 H   0  0  0  0  0  0  0  0  0  0  0  0
   18.3119   17.1406   20.5748 H   0  0  0  0  0  0  0  0  0  0  0  0
   19.4681   18.4157   21.7892 C   0  0  2  0  0  0  0  0  0  0  0  0
   20.1303   18.6662   20.9546 H   0  0  0  0  0  0  0  0  0  0  0  0
   20.1153   17.2698   22.5856 C   0  0  0  0  0  0  0  0  0  0  0  0
   20.1660   16.3570   21.9795 H   0  0  0  0  0  0  0  0  0  0  0  0
   19.5440   17.0442   23.4945 H   0  0  0  0  0  0  0  0  0  0  0  0
   21.1425   17.5222   22.8723 H   0  0  0  0  0  0  0  0  0  0  0  0
   19.2594   19.6945   22.6369 C   0  0  0  0  0  0  0  0  0  0  0  0
   18.7626   20.4360   21.9973 H   0  0  0  0  0  0  0  0  0  0  0  0
   18.5606   19.4944   23.4598 H   0  0  0  0  0  0  0  0  0  0  0  0
   20.5612   20.3388   23.1828 C   0  0  0  0  0  0  0  0  0  0  0  0
   20.4498   21.4319   23.1538 H   0  0  0  0  0  0  0  0  0  0  0  0
   21.4089   20.1053   22.5234 H   0  0  0  0  0  0  0  0  0  0  0  0
   20.8841   19.9325   24.6401 C   0  0  0  0  0  0  0  0  0  0  0  0
   20.0742   20.2305   25.3187 H   0  0  0  0  0  0  0  0  0  0  0  0
   21.8025   20.4271   24.9821 H   0  0  0  0  0  0  0  0  0  0  0  0
   21.0308   18.8518   24.7452 H   0  0  0  0  0  0  0  0  0  0  0  0
  1  2  1  0  0  0  0
  1  3  1  0  0  0  0
  1  4  1  0  0  0  0
  1  5  1  0  0  0  0
  5  6  1  0  0  0  0
  5  7  1  0  0  0  0
  7  8  1  0  0  0  0
  7  9  1  0  0  0  0
  7 10  1  0  0  0  0
  5 11  1  0  0  0  0
 11 12  1  0  0  0  0
 11 13  1  0  0  0  0
 11 14  1  0  0  0  0
 14 15  1  0  0  0  0
 14 16  1  0  0  0  0
 14 17  1  0  0  0  0
 17 18  1  0  0  0  0
 17 19  1  0  0  0  0
 17 20  1  0  0  0  0
M  END
> <VConfSearch Rank>
913

> <Conf_Id>
52

> <Delta U+W>
2.995

> <U+W>
-33.282

> <U>
25.224

> <W>
-58.506

> <W(PB)>
-60.411

> <W(SA)>
1.905

> <Valence>
4.945

> <Coulomb>
19.467

> <VdW>
0.813

> <VdW6>
-5.458

> <VdW12>
6.270

> <Bond>
0.200

> <Angle>
1.675

> <Pdih>
3.070

> <Idih>
0.000

> <Tether>
0.000

$$$$
VeraChem MOL file


 20 19  0  0  0  0  0  0  0  0999 V2000     
   18.4249   18.5585   23.5588 N   0  3  0  0  0  0  0  0  0  0  0  0
   18.4153   17.5379   23.4909 H   0  0  0  0  0  0  0  0  0  0  0  0
   17.4707   18.8599   23.7741 H   0  0  0  0  0  0  0  0  0  0  0  0
   19.0145   18.8065   24.3562 H   0  0  0  0  0  0  0  0  0  0  0  0
   18.9300   19.1879   22.2892 C   0  0  2  0  0  0  0  0  0  0  0  0
   18.8655   20.2727   22.4195 H   0  0  0  0  0  0  0  0  0  0  0  0
   18.0225   18.7901   21.1129 C   0  0  0  0  0  0  0  0  0  0  0  0
   18.0625   17.7092   20.9283 H   0  0  0  0  0  0  0  0  0  0  0  0
   18.3258   19.3054   20.1931 H   0  0  0  0  0  0  0  0  0  0  0  0
   16.9799   19.0638   21.3163 H   0  0  0  0  0  0  0  0  0  0  0  0
   20.4019   18.8220   21.9827 C   0  0  0  0  0  0  0  0  0  0  0  0
   20.5506   17.7403   22.0982 H   0  0  0  0  0  0  0  0  0  0  0  0
   20.6042   19.0411   20.9258 H   0  0  0  0  0  0  0  0  0  0  0  0
   21.4527   19.5981   22.8194 C   0  0  0  0  0  0  0  0  0  0  0  0
   21.3272   20.6785   22.6613 H   0  0  0  0  0  0  0  0  0  0  0  0
   22.4505   19.3498   22.4309 H   0  0  0  0  0  0  0  0  0  0  0  0
   21.4308   19.2925   24.3345 C   0  0  0  0  0  0  0  0  0  0  0  0
   22.3199   19.7167   24.8193 H   0  0  0  0  0  0  0  0  0  0  0  0
   21.4335   18.2112   24.5241 H   0  0  0  0  0  0  0  0  0  0  0  0
   20.5575   19.7383   24.8243 H   0  0  0  0  0  0  0  0  0  0  0  0
  1  2  1  0  0  0  0
  1  3  1  0  0  0  0
  1  4  1  0  0  0  0
  1  5  1  0  0  0  0
  5  6  1  0  0  0  0
  5  7  1  0  0  0  0
  7  8  1  0  0  0  0
  7  9  1  0  0  0  0
  7 10  1  0  0  0  0
  5 11  1  0  0  0  0
 11 12  1  0  0  0  0
 11 13  1  0  0  0  0
 11 14  1  0  0  0  0
 14 15  1  0  0  0  0
 14 16  1  0  0  0  0
 14 17  1  0  0  0  0
 17 18  1  0  0  0  0
 17 19  1  0  0  0  0
 17 20  1  0  0  0  0
M  END
> <VConfSearch Rank>
914

> <Conf_Id>
54

> <Delta U+W>
2.752

> <U+W>
-33.525

> <U>
24.337

> <W>
-57.862

> <W(PB)>
-59.764

> <W(SA)>
1.901

> <Valence>
3.593

> <Coulomb>
20.067

> <VdW>
0.677

> <VdW6>
-5.466

> <VdW12>
6.144

> <Bond>
0.191

> <Angle>
1.557

> <Pdih>
1.845

> <Idih>
0.000

> <Tether>
0.000

$$$$
VeraChem MOL file


 20 19  0  0  0  0  0  0  0  0999 V2000     
   19.3445   18.8629   24.7191 N   0  3  0  0  0  0  0  0  0  0  0  0
   18.9463   19.3767   25.5098 H   0  0  0  0  0  0  0  0  0  0  0  0
   20.0704   18.2456   25.0928 H   0  0  0  0  0  0  0  0  0  0  0  0
   18.6043   18.2705   24.3361 H   0  0  0  0  0  0  0  0  0  0  0  0
   19.8958   19.7974   23.6767 C   0  0  2  0  0  0  0  0  0  0  0  0
   20.6613   20.3956   24.1809 H   0  0  0  0  0  0  0  0  0  0  0  0
   18.8103   20.7645   23.1713 C   0  0  0  0  0  0  0  0  0  0  0  0
   19.2157   21.4427   22.4104 H   0  0  0  0  0  0  0  0  0  0  0  0
   18.4309   21.3799   23.9961 H   0  0  0  0  0  0  0  0  0  0  0  0
   17.9592   20.2279   22.7356 H   0  0  0  0  0  0  0  0  0  0  0  0
   20.5922   19.0467   22.5163 C   0  0  0  0  0  0  0  0  0  0  0  0
   21.0479   19.7840   21.8422 H   0  0  0  0  0  0  0  0  0  0  0  0
   21.4247   18.4630   22.9308 H   0  0  0  0  0  0  0  0  0  0  0  0
   19.6699   18.1066   21.6980 C   0  0  0  0  0  0  0  0  0  0  0  0
   18.8585   18.6814   21.2318 H   0  0  0  0  0  0  0  0  0  0  0  0
   19.1981   17.3678   22.3596 H   0  0  0  0  0  0  0  0  0  0  0  0
   20.4535   17.3647   20.5940 C   0  0  0  0  0  0  0  0  0  0  0  0
   19.7877   16.7052   20.0222 H   0  0  0  0  0  0  0  0  0  0  0  0
   21.2519   16.7456   21.0237 H   0  0  0  0  0  0  0  0  0  0  0  0
   20.9111   18.0725   19.8905 H   0  0  0  0  0  0  0  0  0  0  0  0
  1  2  1  0  0  0  0
  1  3  1  0  0  0  0
  1  4  1  0  0  0  0
  1  5  1  0  0  0  0
  5  6  1  0  0  0  0
  5  7  1  0  0  0  0
  7  8  1  0  0  0  0
  7  9  1  0  0  0  0
  7 10  1  0  0  0  0
  5 11  1  0  0  0  0
 11 12  1  0  0  0  0
 11 13  1  0  0  0  0
 11 14  1  0  0  0  0
 14 15  1  0  0  0  0
 14 16  1  0  0  0  0
 14 17  1  0  0  0  0
 17 18  1  0  0  0  0
 17 19  1  0  0  0  0
 17 20  1  0  0  0  0
M  END
> <VConfSearch Rank>
915

> <Conf_Id>
63

> <Delta U+W>
0.420

> <U+W>
-35.856

> <U>
22.625

> <W>
-58.481

> <W(PB)>
-60.400

> <W(SA)>
1.919

> <Valence>
2.404

> <Coulomb>
19.464

> <VdW>
0.757

> <VdW6>
-5.074

> <VdW12>
5.830

> <Bond>
0.172

> <Angle>
1.207

> <Pdih>
1.025

> <Idih>
0.000

> <Tether>
0.000

$$$$
VeraChem MOL file


 20 19  0  0  0  0  0  0  0  0999 V2000     
   21.0223   19.3131   21.6476 N   0  3  0  0  0  0  0  0  0  0  0  0
   21.2269   18.3149   21.7399 H   0  0  0  0  0  0  0  0  0  0  0  0
   21.7660   19.8257   22.1278 H   0  0  0  0  0  0  0  0  0  0  0  0
   21.0826   19.5468   20.6530 H   0  0  0  0  0  0  0  0  0  0  0  0
   19.6685   19.6483   22.2124 C   0  0  2  0  0  0  0  0  0  0  0  0
   18.9374   19.0645   21.6451 H   0  0  0  0  0  0  0  0  0  0  0  0
   19.3499   21.1388   22.0111 C   0  0  0  0  0  0  0  0  0  0  0  0
   19.3999   21.4066   20.9486 H   0  0  0  0  0  0  0  0  0  0  0  0
   20.0583   21.7741   22.5573 H   0  0  0  0  0  0  0  0  0  0  0  0
   18.3383   21.3724   22.3655 H   0  0  0  0  0  0  0  0  0  0  0  0
   19.5398   19.2673   23.7048 C   0  0  0  0  0  0  0  0  0  0  0  0
   20.2555   19.8559   24.2940 H   0  0  0  0  0  0  0  0  0  0  0  0
   18.5412   19.5528   24.0615 H   0  0  0  0  0  0  0  0  0  0  0  0
   19.7599   17.7614   23.9971 C   0  0  0  0  0  0  0  0  0  0  0  0
   19.6529   17.5927   25.0779 H   0  0  0  0  0  0  0  0  0  0  0  0
   20.7898   17.4723   23.7475 H   0  0  0  0  0  0  0  0  0  0  0  0
   18.7651   16.8467   23.2468 C   0  0  0  0  0  0  0  0  0  0  0  0
   17.7271   17.1169   23.4810 H   0  0  0  0  0  0  0  0  0  0  0  0
   18.9115   15.7985   23.5382 H   0  0  0  0  0  0  0  0  0  0  0  0
   18.8985   16.9091   22.1595 H   0  0  0  0  0  0  0  0  0  0  0  0
  1  2  1  0  0  0  0
  1  3  1  0  0  0  0
  1  4  1  0  0  0  0
  1  5  1  0  0  0  0
  5  6  1  0  0  0  0
  5  7  1  0  0  0  0
  7  8  1  0  0  0  0
  7  9  1  0  0  0  0
  7 10  1  0  0  0  0
  5 11  1  0  0  0  0
 11 12  1  0  0  0  0
 11 13  1  0  0  0  0
 11 14  1  0  0  0  0
 14 15  1  0  0  0  0
 14 16  1  0  0  0  0
 14 17  1  0  0  0  0
 17 18  1  0  0  0  0
 17 19  1  0  0  0  0
 17 20  1  0  0  0  0
M  END
> <VConfSearch Rank>
916

> <Conf_Id>
50

> <Delta U+W>
0.466

> <U+W>
-35.811

> <U>
22.369

> <W>
-58.180

> <W(PB)>
-60.103

> <W(SA)>
1.923

> <Valence>
2.168

> <Coulomb>
19.636

> <VdW>
0.566

> <VdW6>
-5.263

> <VdW12>
5.829

> <Bond>
0.162

> <Angle>
1.066

> <Pdih>
0.939

> <Idih>
0.000

> <Tether>
0.000

$$$$
VeraChem MOL file


 20 19  0  0  0  0  0  0  0  0999 V2000     
   20.6604   20.9612   23.1177 N   0  3  0  0  0  0  0  0  0  0  0  0
   20.0046   21.4508   23.7327 H   0  0  0  0  0  0  0  0  0  0  0  0
   20.6576   21.4466   22.2170 H   0  0  0  0  0  0  0  0  0  0  0  0
   21.5944   21.0739   23.5210 H   0  0  0  0  0  0  0  0  0  0  0  0
   20.2983   19.5087   22.9641 C   0  0  2  0  0  0  0  0  0  0  0  0
   20.3247   19.0800   23.9707 H   0  0  0  0  0  0  0  0  0  0  0  0
   21.3491   18.7929   22.0949 C   0  0  0  0  0  0  0  0  0  0  0  0
   21.3892   19.2250   21.0872 H   0  0  0  0  0  0  0  0  0  0  0  0
   21.1287   17.7248   21.9940 H   0  0  0  0  0  0  0  0  0  0  0  0
   22.3466   18.8834   22.5420 H   0  0  0  0  0  0  0  0  0  0  0  0
   18.8677   19.3259   22.4000 C   0  0  0  0  0  0  0  0  0  0  0  0
   18.3126   20.2661   22.5164 H   0  0  0  0  0  0  0  0  0  0  0  0
   18.9030   19.1357   21.3190 H   0  0  0  0  0  0  0  0  0  0  0  0
   18.0503   18.2170   23.1098 C   0  0  0  0  0  0  0  0  0  0  0  0
   17.0313   18.2143   22.6979 H   0  0  0  0  0  0  0  0  0  0  0  0
   17.9474   18.4621   24.1763 H   0  0  0  0  0  0  0  0  0  0  0  0
   18.6482   16.8000   22.9651 C   0  0  0  0  0  0  0  0  0  0  0  0
   18.8035   16.5412   21.9097 H   0  0  0  0  0  0  0  0  0  0  0  0
   17.9705   16.0521   23.3967 H   0  0  0  0  0  0  0  0  0  0  0  0
   19.6076   16.7142   23.4903 H   0  0  0  0  0  0  0  0  0  0  0  0
  1  2  1  0  0  0  0
  1  3  1  0  0  0  0
  1  4  1  0  0  0  0
  1  5  1  0  0  0  0
  5  6  1  0  0  0  0
  5  7  1  0  0  0  0
  7  8  1  0  0  0  0
  7  9  1  0  0  0  0
  7 10  1  0  0  0  0
  5 11  1  0  0  0  0
 11 12  1  0  0  0  0
 11 13  1  0  0  0  0
 11 14  1  0  0  0  0
 14 15  1  0  0  0  0
 14 16  1  0  0  0  0
 14 17  1  0  0  0  0
 17 18  1  0  0  0  0
 17 19  1  0  0  0  0
 17 20  1  0  0  0  0
M  END
> <VConfSearch Rank>
917

> <Conf_Id>
3

> <Delta U+W>
3.093

> <U+W>
-33.184

> <U>
25.256

> <W>
-58.439

> <W(PB)>
-60.337

> <W(SA)>
1.898

> <Valence>
4.963

> <Coulomb>
19.511

> <VdW>
0.782

> <VdW6>
-5.429

> <VdW12>
6.211

> <Bond>
0.174

> <Angle>
1.377

> <Pdih>
3.412

> <Idih>
0.000

> <Tether>
0.000

$$$$
VeraChem MOL file


 20 19  0  0  0  0  0  0  0  0999 V2000     
   20.5922   17.7898   24.5083 N   0  3  0  0  0  0  0  0  0  0  0  0
   21.1949   18.2278   25.2100 H   0  0  0  0  0  0  0  0  0  0  0  0
   21.1443   17.0609   24.0481 H   0  0  0  0  0  0  0  0  0  0  0  0
   19.8299   17.3264   25.0091 H   0  0  0  0  0  0  0  0  0  0  0  0
   20.0721   18.7989   23.5216 C   0  0  2  0  0  0  0  0  0  0  0  0
   20.9511   19.2406   23.0427 H   0  0  0  0  0  0  0  0  0  0  0  0
   19.3039   19.9153   24.2520 C   0  0  0  0  0  0  0  0  0  0  0  0
   19.0385   20.7291   23.5672 H   0  0  0  0  0  0  0  0  0  0  0  0
   19.9188   20.3500   25.0495 H   0  0  0  0  0  0  0  0  0  0  0  0
   18.3810   19.5319   24.7045 H   0  0  0  0  0  0  0  0  0  0  0  0
   19.2121   18.1212   22.4282 C   0  0  0  0  0  0  0  0  0  0  0  0
   19.7818   17.2856   22.0007 H   0  0  0  0  0  0  0  0  0  0  0  0
   18.3207   17.6767   22.8905 H   0  0  0  0  0  0  0  0  0  0  0  0
   18.7707   19.0529   21.2705 C   0  0  0  0  0  0  0  0  0  0  0  0
   18.0869   19.8273   21.6434 H   0  0  0  0  0  0  0  0  0  0  0  0
   18.1903   18.4638   20.5466 H   0  0  0  0  0  0  0  0  0  0  0  0
   19.9602   19.7147   20.5383 C   0  0  0  0  0  0  0  0  0  0  0  0
   20.6600   18.9590   20.1584 H   0  0  0  0  0  0  0  0  0  0  0  0
   20.5134   20.3937   21.1994 H   0  0  0  0  0  0  0  0  0  0  0  0
   19.6056   20.3031   19.6821 H   0  0  0  0  0  0  0  0  0  0  0  0
  1  2  1  0  0  0  0
  1  3  1  0  0  0  0
  1  4  1  0  0  0  0
  1  5  1  0  0  0  0
  5  6  1  0  0  0  0
  5  7  1  0  0  0  0
  7  8  1  0  0  0  0
  7  9  1  0  0  0  0
  7 10  1  0  0  0  0
  5 11  1  0  0  0  0
 11 12  1  0  0  0  0
 11 13  1  0  0  0  0
 11 14  1  0  0  0  0
 14 15  1  0  0  0  0
 14 16  1  0  0  0  0
 14 17  1  0  0  0  0
 17 18  1  0  0  0  0
 17 19  1  0  0  0  0
 17 20  1  0  0  0  0
M  END
> <VConfSearch Rank>
918

> <Conf_Id>
64

> <Delta U+W>
0.544

> <U+W>
-35.732

> <U>
22.800

> <W>
-58.532

> <W(PB)>
-60.437

> <W(SA)>
1.905

> <Valence>
2.662

> <Coulomb>
19.485

> <VdW>
0.653

> <VdW6>
-5.460

> <VdW12>
6.113

> <Bond>
0.174

> <Angle>
1.378

> <Pdih>
1.109

> <Idih>
0.000

> <Tether>
0.000

$$$$
VeraChem MOL file


 20 19  0  0  0  0  0  0  0  0999 V2000     
   19.5945   17.6521   21.0202 N   0  3  0  0  0  0  0  0  0  0  0  0
   18.7598   18.2366   20.9376 H   0  0  0  0  0  0  0  0  0  0  0  0
   19.3004   16.6798   20.8943 H   0  0  0  0  0  0  0  0  0  0  0  0
   20.2121   17.8860   20.2382 H   0  0  0  0  0  0  0  0  0  0  0  0
   20.2788   17.8528   22.3455 C   0  0  2  0  0  0  0  0  0  0  0  0
   21.1438   17.1823   22.3402 H   0  0  0  0  0  0  0  0  0  0  0  0
   19.3673   17.4173   23.5045 C   0  0  0  0  0  0  0  0  0  0  0  0
   18.4141   17.9585   23.4909 H   0  0  0  0  0  0  0  0  0  0  0  0
   19.8546   17.5914   24.4718 H   0  0  0  0  0  0  0  0  0  0  0  0
   19.1431   16.3460   23.4333 H   0  0  0  0  0  0  0  0  0  0  0  0
   20.8250   19.2930   22.5146 C   0  0  0  0  0  0  0  0  0  0  0  0
   21.4603   19.3388   23.4089 H   0  0  0  0  0  0  0  0  0  0  0  0
   21.5004   19.4886   21.6714 H   0  0  0  0  0  0  0  0  0  0  0  0
   19.7650   20.4285   22.5627 C   0  0  0  0  0  0  0  0  0  0  0  0
   18.8854   20.1693   21.9590 H   0  0  0  0  0  0  0  0  0  0  0  0
   20.1961   21.3241   22.0937 H   0  0  0  0  0  0  0  0  0  0  0  0
   19.3322   20.8096   23.9980 C   0  0  0  0  0  0  0  0  0  0  0  0
   18.8495   19.9760   24.5196 H   0  0  0  0  0  0  0  0  0  0  0  0
   18.6175   21.6425   23.9742 H   0  0  0  0  0  0  0  0  0  0  0  0
   20.1948   21.1298   24.5966 H   0  0  0  0  0  0  0  0  0  0  0  0
  1  2  1  0  0  0  0
  1  3  1  0  0  0  0
  1  4  1  0  0  0  0
  1  5  1  0  0  0  0
  5  6  1  0  0  0  0
  5  7  1  0  0  0  0
  7  8  1  0  0  0  0
  7  9  1  0  0  0  0
  7 10  1  0  0  0  0
  5 11  1  0  0  0  0
 11 12  1  0  0  0  0
 11 13  1  0  0  0  0
 11 14  1  0  0  0  0
 14 15  1  0  0  0  0
 14 16  1  0  0  0  0
 14 17  1  0  0  0  0
 17 18  1  0  0  0  0
 17 19  1  0  0  0  0
 17 20  1  0  0  0  0
M  END
> <VConfSearch Rank>
919

> <Conf_Id>
35

> <Delta U+W>
3.004

> <U+W>
-33.272

> <U>
25.367

> <W>
-58.639

> <W(PB)>
-60.512

> <W(SA)>
1.873

> <Valence>
4.943

> <Coulomb>
19.661

> <VdW>
0.764

> <VdW6>
-5.871

> <VdW12>
6.636

> <Bond>
0.230

> <Angle>
1.857

> <Pdih>
2.855

> <Idih>
0.000

> <Tether>
0.000

$$$$
VeraChem MOL file


 20 19  0  0  0  0  0  0  0  0999 V2000     
   18.2690   19.7817   22.2979 N   0  3  0  0  0  0  0  0  0  0  0  0
   17.6240   20.4522   22.7246 H   0  0  0  0  0  0  0  0  0  0  0  0
   17.7629   19.3096   21.5440 H   0  0  0  0  0  0  0  0  0  0  0  0
   19.0298   20.3128   21.8699 H   0  0  0  0  0  0  0  0  0  0  0  0
   18.7926   18.7992   23.3094 C   0  0  2  0  0  0  0  0  0  0  0  0
   17.9099   18.2714   23.6836 H   0  0  0  0  0  0  0  0  0  0  0  0
   19.4391   19.5173   24.5073 C   0  0  0  0  0  0  0  0  0  0  0  0
   20.2810   20.1468   24.1958 H   0  0  0  0  0  0  0  0  0  0  0  0
   19.8056   18.7917   25.2440 H   0  0  0  0  0  0  0  0  0  0  0  0
   18.7071   20.1609   25.0102 H   0  0  0  0  0  0  0  0  0  0  0  0
   19.7257   17.7280   22.6888 C   0  0  0  0  0  0  0  0  0  0  0  0
   19.8003   16.8980   23.4036 H   0  0  0  0  0  0  0  0  0  0  0  0
   19.2389   17.3039   21.8009 H   0  0  0  0  0  0  0  0  0  0  0  0
   21.1704   18.1681   22.3200 C   0  0  0  0  0  0  0  0  0  0  0  0
   21.7064   17.2875   21.9392 H   0  0  0  0  0  0  0  0  0  0  0  0
   21.7162   18.4776   23.2217 H   0  0  0  0  0  0  0  0  0  0  0  0
   21.2527   19.2841   21.2539 C   0  0  0  0  0  0  0  0  0  0  0  0
   20.6447   19.0393   20.3732 H   0  0  0  0  0  0  0  0  0  0  0  0
   22.2897   19.4114   20.9168 H   0  0  0  0  0  0  0  0  0  0  0  0
   20.9245   20.2501   21.6543 H   0  0  0  0  0  0  0  0  0  0  0  0
  1  2  1  0  0  0  0
  1  3  1  0  0  0  0
  1  4  1  0  0  0  0
  1  5  1  0  0  0  0
  5  6  1  0  0  0  0
  5  7  1  0  0  0  0
  7  8  1  0  0  0  0
  7  9  1  0  0  0  0
  7 10  1  0  0  0  0
  5 11  1  0  0  0  0
 11 12  1  0  0  0  0
 11 13  1  0  0  0  0
 11 14  1  0  0  0  0
 14 15  1  0  0  0  0
 14 16  1  0  0  0  0
 14 17  1  0  0  0  0
 17 18  1  0  0  0  0
 17 19  1  0  0  0  0
 17 20  1  0  0  0  0
M  END
> <VConfSearch Rank>
920

> <Conf_Id>
55

> <Delta U+W>
2.767

> <U+W>
-33.509

> <U>
24.552

> <W>
-58.061

> <W(PB)>
-59.930

> <W(SA)>
1.869

> <Valence>
3.726

> <Coulomb>
20.219

> <VdW>
0.606

> <VdW6>
-6.395

> <VdW12>
7.001

> <Bond>
0.241

> <Angle>
2.098

> <Pdih>
1.387

> <Idih>
0.000

> <Tether>
0.000

$$$$
VeraChem MOL file


 20 19  0  0  0  0  0  0  0  0999 V2000     
   19.6523   17.6122   24.1584 N   0  3  0  0  0  0  0  0  0  0  0  0
   19.5365   16.7874   23.5645 H   0  0  0  0  0  0  0  0  0  0  0  0
   19.2584   17.3856   25.0756 H   0  0  0  0  0  0  0  0  0  0  0  0
   20.6564   17.7601   24.2873 H   0  0  0  0  0  0  0  0  0  0  0  0
   18.9885   18.8219   23.5575 C   0  0  2  0  0  0  0  0  0  0  0  0
   19.1627   19.6525   24.2486 H   0  0  0  0  0  0  0  0  0  0  0  0
   17.4711   18.6033   23.4411 C   0  0  0  0  0  0  0  0  0  0  0  0
   17.0360   18.3688   24.4204 H   0  0  0  0  0  0  0  0  0  0  0  0
   17.2399   17.7767   22.7576 H   0  0  0  0  0  0  0  0  0  0  0  0
   16.9745   19.5064   23.0649 H   0  0  0  0  0  0  0  0  0  0  0  0
   19.5828   19.2042   22.1839 C   0  0  0  0  0  0  0  0  0  0  0  0
   19.4419   18.3760   21.4766 H   0  0  0  0  0  0  0  0  0  0  0  0
   19.0225   20.0584   21.7809 H   0  0  0  0  0  0  0  0  0  0  0  0
   21.0823   19.5808   22.2564 C   0  0  0  0  0  0  0  0  0  0  0  0
   21.6731   18.7226   22.6040 H   0  0  0  0  0  0  0  0  0  0  0  0
   21.2269   20.3855   22.9911 H   0  0  0  0  0  0  0  0  0  0  0  0
   21.6218   20.0387   20.8843 C   0  0  0  0  0  0  0  0  0  0  0  0
   21.5191   19.2437   20.1342 H   0  0  0  0  0  0  0  0  0  0  0  0
   22.6857   20.3003   20.9537 H   0  0  0  0  0  0  0  0  0  0  0  0
   21.0813   20.9228   20.5216 H   0  0  0  0  0  0  0  0  0  0  0  0
  1  2  1  0  0  0  0
  1  3  1  0  0  0  0
  1  4  1  0  0  0  0
  1  5  1  0  0  0  0
  5  6  1  0  0  0  0
  5  7  1  0  0  0  0
  7  8  1  0  0  0  0
  7  9  1  0  0  0  0
  7 10  1  0  0  0  0
  5 11  1  0  0  0  0
 11 12  1  0  0  0  0
 11 13  1  0  0  0  0
 11 14  1  0  0  0  0
 14 15  1  0  0  0  0
 14 16  1  0  0  0  0
 14 17  1  0  0  0  0
 17 18  1  0  0  0  0
 17 19  1  0  0  0  0
 17 20  1  0  0  0  0
M  END
> <VConfSearch Rank>
921

> <Conf_Id>
74

> <Delta U+W>
0.000

> <U+W>
-36.276

> <U>
22.080

> <W>
-58.356

> <W(PB)>
-60.289

> <W(SA)>
1.932

> <Valence>
1.885

> <Coulomb>
19.559

> <VdW>
0.637

> <VdW6>
-4.482

> <VdW12>
5.119

> <Bond>
0.136

> <Angle>
0.867

> <Pdih>
0.882

> <Idih>
0.000

> <Tether>
0.000

$$$$
VeraChem MOL file


 20 19  0  0  0  0  0  0  0  0999 V2000     
   20.1339   16.7928   23.7110 N   0  3  0  0  0  0  0  0  0  0  0  0
   20.5777   16.2850   22.9410 H   0  0  0  0  0  0  0  0  0  0  0  0
   19.1618   16.4785   23.7654 H   0  0  0  0  0  0  0  0  0  0  0  0
   20.5977   16.4977   24.5745 H   0  0  0  0  0  0  0  0  0  0  0  0
   20.2234   18.2820   23.5191 C   0  0  2  0  0  0  0  0  0  0  0  0
   21.2900   18.5235   23.4758 H   0  0  0  0  0  0  0  0  0  0  0  0
   19.6080   19.0138   24.7260 C   0  0  0  0  0  0  0  0  0  0  0  0
   20.0490   18.6522   25.6630 H   0  0  0  0  0  0  0  0  0  0  0  0
   18.5238   18.8539   24.7769 H   0  0  0  0  0  0  0  0  0  0  0  0
   19.7946   20.0926   24.6765 H   0  0  0  0  0  0  0  0  0  0  0  0
   19.5752   18.7137   22.1831 C   0  0  0  0  0  0  0  0  0  0  0  0
   19.9787   18.0816   21.3810 H   0  0  0  0  0  0  0  0  0  0  0  0
   18.4948   18.5206   22.2168 H   0  0  0  0  0  0  0  0  0  0  0  0
   19.8290   20.1961   21.8150 C   0  0  0  0  0  0  0  0  0  0  0  0
   20.9076   20.4055   21.8428 H   0  0  0  0  0  0  0  0  0  0  0  0
   19.3566   20.8583   22.5527 H   0  0  0  0  0  0  0  0  0  0  0  0
   19.2777   20.5376   20.4139 C   0  0  0  0  0  0  0  0  0  0  0  0
   19.7577   19.9252   19.6395 H   0  0  0  0  0  0  0  0  0  0  0  0
   19.4627   21.5920   20.1709 H   0  0  0  0  0  0  0  0  0  0  0  0
   18.1946   20.3655   20.3631 H   0  0  0  0  0  0  0  0  0  0  0  0
  1  2  1  0  0  0  0
  1  3  1  0  0  0  0
  1  4  1  0  0  0  0
  1  5  1  0  0  0  0
  5  6  1  0  0  0  0
  5  7  1  0  0  0  0
  7  8  1  0  0  0  0
  7  9  1  0  0  0  0
  7 10  1  0  0  0  0
  5 11  1  0  0  0  0
 11 12  1  0  0  0  0
 11 13  1  0  0  0  0
 11 14  1  0  0  0  0
 14 15  1  0  0  0  0
 14 16  1  0  0  0  0
 14 17  1  0  0  0  0
 17 18  1  0  0  0  0
 17 19  1  0  0  0  0
 17 20  1  0  0  0  0
M  END
> <VConfSearch Rank>
922

> <Conf_Id>
80

> <Delta U+W>
0.460

> <U+W>
-35.817

> <U>
22.495

> <W>
-58.311

> <W(PB)>
-60.259

> <W(SA)>
1.948

> <Valence>
2.419

> <Coulomb>
19.304

> <VdW>
0.772

> <VdW6>
-4.635

> <VdW12>
5.407

> <Bond>
0.149

> <Angle>
1.142

> <Pdih>
1.129

> <Idih>
0.000

> <Tether>
0.000

$$$$
VeraChem MOL file


 20 19  0  0  0  0  0  0  0  0999 V2000     
   21.8805   18.8882   21.6113 N   0  3  0  0  0  0  0  0  0  0  0  0
   22.5603   19.4674   22.1115 H   0  0  0  0  0  0  0  0  0  0  0  0
   21.5550   19.4257   20.8040 H   0  0  0  0  0  0  0  0  0  0  0  0
   22.3846   18.0735   21.2510 H   0  0  0  0  0  0  0  0  0  0  0  0
   20.7375   18.4797   22.4999 C   0  0  2  0  0  0  0  0  0  0  0  0
   21.1786   17.9104   23.3239 H   0  0  0  0  0  0  0  0  0  0  0  0
   19.7765   17.5512   21.7380 C   0  0  0  0  0  0  0  0  0  0  0  0
   20.3275   16.7344   21.2560 H   0  0  0  0  0  0  0  0  0  0  0  0
   19.2275   18.0972   20.9609 H   0  0  0  0  0  0  0  0  0  0  0  0
   19.0521   17.0913   22.4198 H   0  0  0  0  0  0  0  0  0  0  0  0
   20.0285   19.7193   23.0982 C   0  0  0  0  0  0  0  0  0  0  0  0
   20.7963   20.3343   23.5860 H   0  0  0  0  0  0  0  0  0  0  0  0
   19.6124   20.3427   22.2957 H   0  0  0  0  0  0  0  0  0  0  0  0
   18.9359   19.4036   24.1538 C   0  0  0  0  0  0  0  0  0  0  0  0
   18.9733   20.1733   24.9376 H   0  0  0  0  0  0  0  0  0  0  0  0
   19.1544   18.4512   24.6570 H   0  0  0  0  0  0  0  0  0  0  0  0
   17.5032   19.3887   23.5704 C   0  0  0  0  0  0  0  0  0  0  0  0
   17.2484   20.3623   23.1320 H   0  0  0  0  0  0  0  0  0  0  0  0
   16.7696   19.1777   24.3593 H   0  0  0  0  0  0  0  0  0  0  0  0
   17.3816   18.6270   22.7923 H   0  0  0  0  0  0  0  0  0  0  0  0
  1  2  1  0  0  0  0
  1  3  1  0  0  0  0
  1  4  1  0  0  0  0
  1  5  1  0  0  0  0
  5  6  1  0  0  0  0
  5  7  1  0  0  0  0
  7  8  1  0  0  0  0
  7  9  1  0  0  0  0
  7 10  1  0  0  0  0
  5 11  1  0  0  0  0
 11 12  1  0  0  0  0
 11 13  1  0  0  0  0
 11 14  1  0  0  0  0
 14 15  1  0  0  0  0
 14 16  1  0  0  0  0
 14 17  1  0  0  0  0
 17 18  1  0  0  0  0
 17 19  1  0  0  0  0
 17 20  1  0  0  0  0
M  END
> <VConfSearch Rank>
923

> <Conf_Id>
52

> <Delta U+W>
2.995

> <U+W>
-33.282

> <U>
25.224

> <W>
-58.506

> <W(PB)>
-60.411

> <W(SA)>
1.905

> <Valence>
4.945

> <Coulomb>
19.467

> <VdW>
0.813

> <VdW6>
-5.458

> <VdW12>
6.270

> <Bond>
0.200

> <Angle>
1.675

> <Pdih>
3.070

> <Idih>
0.000

> <Tether>
0.000

$$$$
VeraChem MOL file


 20 19  0  0  0  0  0  0  0  0999 V2000     
   20.6825   18.5557   23.9914 N   0  3  0  0  0  0  0  0  0  0  0  0
   20.5031   19.2521   24.7189 H   0  0  0  0  0  0  0  0  0  0  0  0
   21.5812   18.1147   24.2048 H   0  0  0  0  0  0  0  0  0  0  0  0
   19.9593   17.8376   24.0705 H   0  0  0  0  0  0  0  0  0  0  0  0
   20.6846   19.1804   22.6228 C   0  0  2  0  0  0  0  0  0  0  0  0
   20.9295   18.3889   21.9078 H   0  0  0  0  0  0  0  0  0  0  0  0
   21.7803   20.2568   22.5426 C   0  0  0  0  0  0  0  0  0  0  0  0
   21.5742   21.0854   23.2316 H   0  0  0  0  0  0  0  0  0  0  0  0
   21.8528   20.6663   21.5273 H   0  0  0  0  0  0  0  0  0  0  0  0
   22.7597   19.8344   22.7990 H   0  0  0  0  0  0  0  0  0  0  0  0
   19.3114   19.7785   22.2344 C   0  0  0  0  0  0  0  0  0  0  0  0
   18.9204   20.3864   23.0609 H   0  0  0  0  0  0  0  0  0  0  0  0
   19.4565   20.4718   21.3951 H   0  0  0  0  0  0  0  0  0  0  0  0
   18.2512   18.7373   21.7889 C   0  0  0  0  0  0  0  0  0  0  0  0
   18.6318   18.1651   20.9311 H   0  0  0  0  0  0  0  0  0  0  0  0
   17.3700   19.2820   21.4217 H   0  0  0  0  0  0  0  0  0  0  0  0
   17.7931   17.7620   22.8971 C   0  0  0  0  0  0  0  0  0  0  0  0
   16.9103   17.1998   22.5656 H   0  0  0  0  0  0  0  0  0  0  0  0
   17.5190   18.2996   23.8143 H   0  0  0  0  0  0  0  0  0  0  0  0
   18.5696   17.0255   23.1339 H   0  0  0  0  0  0  0  0  0  0  0  0
  1  2  1  0  0  0  0
  1  3  1  0  0  0  0
  1  4  1  0  0  0  0
  1  5  1  0  0  0  0
  5  6  1  0  0  0  0
  5  7  1  0  0  0  0
  7  8  1  0  0  0  0
  7  9  1  0  0  0  0
  7 10  1  0  0  0  0
  5 11  1  0  0  0  0
 11 12  1  0  0  0  0
 11 13  1  0  0  0  0
 11 14  1  0  0  0  0
 14 15  1  0  0  0  0
 14 16  1  0  0  0  0
 14 17  1  0  0  0  0
 17 18  1  0  0  0  0
 17 19  1  0  0  0  0
 17 20  1  0  0  0  0
M  END
> <VConfSearch Rank>
924

> <Conf_Id>
54

> <Delta U+W>
2.752

> <U+W>
-33.525

> <U>
24.337

> <W>
-57.862

> <W(PB)>
-59.764

> <W(SA)>
1.901

> <Valence>
3.593

> <Coulomb>
20.067

> <VdW>
0.677

> <VdW6>
-5.466

> <VdW12>
6.144

> <Bond>
0.191

> <Angle>
1.557

> <Pdih>
1.845

> <Idih>
0.000

> <Tether>
0.000

$$$$
VeraChem MOL file


 20 19  0  0  0  0  0  0  0  0999 V2000     
   20.7963   20.7395   22.7506 N   0  3  0  0  0  0  0  0  0  0  0  0
   21.0200   21.5532   23.3297 H   0  0  0  0  0  0  0  0  0  0  0  0
   20.8107   21.0481   21.7747 H   0  0  0  0  0  0  0  0  0  0  0  0
   21.5532   20.0624   22.8700 H   0  0  0  0  0  0  0  0  0  0  0  0
   19.4645   20.1472   23.1239 C   0  0  2  0  0  0  0  0  0  0  0  0
   18.7281   20.9443   22.9810 H   0  0  0  0  0  0  0  0  0  0  0  0
   19.4337   19.7486   24.6102 C   0  0  0  0  0  0  0  0  0  0  0  0
   18.4619   19.3157   24.8779 H   0  0  0  0  0  0  0  0  0  0  0  0
   19.5918   20.6280   25.2464 H   0  0  0  0  0  0  0  0  0  0  0  0
   20.2141   19.0171   24.8509 H   0  0  0  0  0  0  0  0  0  0  0  0
   19.0564   18.9757   22.1987 C   0  0  0  0  0  0  0  0  0  0  0  0
   18.0422   18.6512   22.4667 H   0  0  0  0  0  0  0  0  0  0  0  0
   18.9895   19.3531   21.1699 H   0  0  0  0  0  0  0  0  0  0  0  0
   20.0099   17.7534   22.2309 C   0  0  0  0  0  0  0  0  0  0  0  0
   20.0500   17.3291   23.2430 H   0  0  0  0  0  0  0  0  0  0  0  0
   21.0319   18.0627   21.9739 H   0  0  0  0  0  0  0  0  0  0  0  0
   19.5549   16.6542   21.2469 C   0  0  0  0  0  0  0  0  0  0  0  0
   20.2377   15.7953   21.2824 H   0  0  0  0  0  0  0  0  0  0  0  0
   19.5393   17.0288   20.2151 H   0  0  0  0  0  0  0  0  0  0  0  0
   18.5480   16.2939   21.4950 H   0  0  0  0  0  0  0  0  0  0  0  0
  1  2  1  0  0  0  0
  1  3  1  0  0  0  0
  1  4  1  0  0  0  0
  1  5  1  0  0  0  0
  5  6  1  0  0  0  0
  5  7  1  0  0  0  0
  7  8  1  0  0  0  0
  7  9  1  0  0  0  0
  7 10  1  0  0  0  0
  5 11  1  0  0  0  0
 11 12  1  0  0  0  0
 11 13  1  0  0  0  0
 11 14  1  0  0  0  0
 14 15  1  0  0  0  0
 14 16  1  0  0  0  0
 14 17  1  0  0  0  0
 17 18  1  0  0  0  0
 17 19  1  0  0  0  0
 17 20  1  0  0  0  0
M  END
> <VConfSearch Rank>
925

> <Conf_Id>
63

> <Delta U+W>
0.420

> <U+W>
-35.856

> <U>
22.625

> <W>
-58.481

> <W(PB)>
-60.400

> <W(SA)>
1.919

> <Valence>
2.404

> <Coulomb>
19.464

> <VdW>
0.757

> <VdW6>
-5.074

> <VdW12>
5.830

> <Bond>
0.172

> <Angle>
1.207

> <Pdih>
1.025

> <Idih>
0.000

> <Tether>
0.000

$$$$
VeraChem MOL file


 20 19  0  0  0  0  0  0  0  0999 V2000     
   19.0688   19.1712   24.4114 N   0  3  0  0  0  0  0  0  0  0  0  0
   19.4092   20.1325   24.3278 H   0  0  0  0  0  0  0  0  0  0  0  0
   19.6757   18.6863   25.0769 H   0  0  0  0  0  0  0  0  0  0  0  0
   18.1334   19.2129   24.8245 H   0  0  0  0  0  0  0  0  0  0  0  0
   19.0519   18.4791   23.0754 C   0  0  2  0  0  0  0  0  0  0  0  0
   18.3825   19.0562   22.4304 H   0  0  0  0  0  0  0  0  0  0  0  0
   18.4809   17.0578   23.2073 C   0  0  0  0  0  0  0  0  0  0  0  0
   17.4732   17.0827   23.6398 H   0  0  0  0  0  0  0  0  0  0  0  0
   19.1134   16.4332   23.8504 H   0  0  0  0  0  0  0  0  0  0  0  0
   18.4092   16.5739   22.2253 H   0  0  0  0  0  0  0  0  0  0  0  0
   20.4477   18.4389   22.4128 C   0  0  0  0  0  0  0  0  0  0  0  0
   21.1310   17.8491   23.0382 H   0  0  0  0  0  0  0  0  0  0  0  0
   20.3732   17.9072   21.4548 H   0  0  0  0  0  0  0  0  0  0  0  0
   21.0708   19.8351   22.1590 C   0  0  0  0  0  0  0  0  0  0  0  0
   22.0570   19.7015   21.6926 H   0  0  0  0  0  0  0  0  0  0  0  0
   21.2552   20.3480   23.1126 H   0  0  0  0  0  0  0  0  0  0  0  0
   20.2019   20.7292   21.2453 C   0  0  0  0  0  0  0  0  0  0  0  0
   20.0039   20.2368   20.2843 H   0  0  0  0  0  0  0  0  0  0  0  0
   20.7139   21.6774   21.0358 H   0  0  0  0  0  0  0  0  0  0  0  0
   19.2385   20.9701   21.7119 H   0  0  0  0  0  0  0  0  0  0  0  0
  1  2  1  0  0  0  0
  1  3  1  0  0  0  0
  1  4  1  0  0  0  0
  1  5  1  0  0  0  0
  5  6  1  0  0  0  0
  5  7  1  0  0  0  0
  7  8  1  0  0  0  0
  7  9  1  0  0  0  0
  7 10  1  0  0  0  0
  5 11  1  0  0  0  0
 11 12  1  0  0  0  0
 11 13  1  0  0  0  0
 11 14  1  0  0  0  0
 14 15  1  0  0  0  0
 14 16  1  0  0  0  0
 14 17  1  0  0  0  0
 17 18  1  0  0  0  0
 17 19  1  0  0  0  0
 17 20  1  0  0  0  0
M  END
> <VConfSearch Rank>
926

> <Conf_Id>
50

> <Delta U+W>
0.466

> <U+W>
-35.811

> <U>
22.369

> <W>
-58.180

> <W(PB)>
-60.103

> <W(SA)>
1.923

> <Valence>
2.168

> <Coulomb>
19.636

> <VdW>
0.566

> <VdW6>
-5.263

> <VdW12>
5.829

> <Bond>
0.162

> <Angle>
1.066

> <Pdih>
0.939

> <Idih>
0.000

> <Tether>
0.000

$$$$
VeraChem MOL file


 20 19  0  0  0  0  0  0  0  0999 V2000     
   21.2056   17.4861   23.7952 N   0  3  0  0  0  0  0  0  0  0  0  0
   20.9321   16.5466   23.4945 H   0  0  0  0  0  0  0  0  0  0  0  0
   21.0275   17.5508   24.8007 H   0  0  0  0  0  0  0  0  0  0  0  0
   22.2172   17.5641   23.6598 H   0  0  0  0  0  0  0  0  0  0  0  0
   20.4642   18.5508   23.0328 C   0  0  2  0  0  0  0  0  0  0  0  0
   20.7128   18.3990   21.9778 H   0  0  0  0  0  0  0  0  0  0  0  0
   20.9579   19.9455   23.4607 C   0  0  0  0  0  0  0  0  0  0  0  0
   20.7705   20.1210   24.5273 H   0  0  0  0  0  0  0  0  0  0  0  0
   20.4583   20.7404   22.8964 H   0  0  0  0  0  0  0  0  0  0  0  0
   22.0362   20.0440   23.2857 H   0  0  0  0  0  0  0  0  0  0  0  0
   18.9299   18.4128   23.1910 C   0  0  0  0  0  0  0  0  0  0  0  0
   18.6962   17.4074   23.5654 H   0  0  0  0  0  0  0  0  0  0  0  0
   18.5593   19.1068   23.9572 H   0  0  0  0  0  0  0  0  0  0  0  0
   18.1429   18.6074   21.8702 C   0  0  0  0  0  0  0  0  0  0  0  0
   17.0784   18.4149   22.0645 H   0  0  0  0  0  0  0  0  0  0  0  0
   18.4608   17.8515   21.1384 H   0  0  0  0  0  0  0  0  0  0  0  0
   18.2879   20.0144   21.2493 C   0  0  0  0  0  0  0  0  0  0  0  0
   18.0180   20.7961   21.9712 H   0  0  0  0  0  0  0  0  0  0  0  0
   17.6265   20.1196   20.3796 H   0  0  0  0  0  0  0  0  0  0  0  0
   19.3134   20.1968   20.9046 H   0  0  0  0  0  0  0  0  0  0  0  0
  1  2  1  0  0  0  0
  1  3  1  0  0  0  0
  1  4  1  0  0  0  0
  1  5  1  0  0  0  0
  5  6  1  0  0  0  0
  5  7  1  0  0  0  0
  7  8  1  0  0  0  0
  7  9  1  0  0  0  0
  7 10  1  0  0  0  0
  5 11  1  0  0  0  0
 11 12  1  0  0  0  0
 11 13  1  0  0  0  0
 11 14  1  0  0  0  0
 14 15  1  0  0  0  0
 14 16  1  0  0  0  0
 14 17  1  0  0  0  0
 17 18  1  0  0  0  0
 17 19  1  0  0  0  0
 17 20  1  0  0  0  0
M  END
> <VConfSearch Rank>
927

> <Conf_Id>
3

> <Delta U+W>
3.093

> <U+W>
-33.184

> <U>
25.256

> <W>
-58.439

> <W(PB)>
-60.337

> <W(SA)>
1.898

> <Valence>
4.963

> <Coulomb>
19.511

> <VdW>
0.782

> <VdW6>
-5.429

> <VdW12>
6.211

> <Bond>
0.174

> <Angle>
1.377

> <Pdih>
3.412

> <Idih>
0.000

> <Tether>
0.000

$$$$
VeraChem MOL file


 20 19  0  0  0  0  0  0  0  0999 V2000     
   20.5016   18.7076   24.8773 N   0  3  0  0  0  0  0  0  0  0  0  0
   21.2452   18.0465   25.1171 H   0  0  0  0  0  0  0  0  0  0  0  0
   19.6775   18.4479   25.4261 H   0  0  0  0  0  0  0  0  0  0  0  0
   20.8027   19.6321   25.1957 H   0  0  0  0  0  0  0  0  0  0  0  0
   20.2115   18.6988   23.4014 C   0  0  2  0  0  0  0  0  0  0  0  0
   19.9040   17.6780   23.1556 H   0  0  0  0  0  0  0  0  0  0  0  0
   21.4860   19.0282   22.6032 C   0  0  0  0  0  0  0  0  0  0  0  0
   21.3283   18.8900   21.5273 H   0  0  0  0  0  0  0  0  0  0  0  0
   22.3090   18.3657   22.8981 H   0  0  0  0  0  0  0  0  0  0  0  0
   21.8050   20.0639   22.7738 H   0  0  0  0  0  0  0  0  0  0  0  0
   19.0452   19.6547   23.0543 C   0  0  0  0  0  0  0  0  0  0  0  0
   18.1948   19.4236   23.7092 H   0  0  0  0  0  0  0  0  0  0  0  0
   19.3387   20.6864   23.2893 H   0  0  0  0  0  0  0  0  0  0  0  0
   18.5598   19.5891   21.5835 C   0  0  0  0  0  0  0  0  0  0  0  0
   19.3477   19.9437   20.9054 H   0  0  0  0  0  0  0  0  0  0  0  0
   17.7202   20.2871   21.4587 H   0  0  0  0  0  0  0  0  0  0  0  0
   18.1024   18.1749   21.1590 C   0  0  0  0  0  0  0  0  0  0  0  0
   17.3157   17.7977   21.8252 H   0  0  0  0  0  0  0  0  0  0  0  0
   18.9354   17.4608   21.1722 H   0  0  0  0  0  0  0  0  0  0  0  0
   17.6977   18.1918   20.1388 H   0  0  0  0  0  0  0  0  0  0  0  0
  1  2  1  0  0  0  0
  1  3  1  0  0  0  0
  1  4  1  0  0  0  0
  1  5  1  0  0  0  0
  5  6  1  0  0  0  0
  5  7  1  0  0  0  0
  7  8  1  0  0  0  0
  7  9  1  0  0  0  0
  7 10  1  0  0  0  0
  5 11  1  0  0  0  0
 11 12  1  0  0  0  0
 11 13  1  0  0  0  0
 11 14  1  0  0  0  0
 14 15  1  0  0  0  0
 14 16  1  0  0  0  0
 14 17  1  0  0  0  0
 17 18  1  0  0  0  0
 17 19  1  0  0  0  0
 17 20  1  0  0  0  0
M  END
> <VConfSearch Rank>
928

> <Conf_Id>
64

> <Delta U+W>
0.544

> <U+W>
-35.732

> <U>
22.800

> <W>
-58.532

> <W(PB)>
-60.437

> <W(SA)>
1.905

> <Valence>
2.662

> <Coulomb>
19.485

> <VdW>
0.653

> <VdW6>
-5.460

> <VdW12>
6.113

> <Bond>
0.174

> <Angle>
1.378

> <Pdih>
1.109

> <Idih>
0.000

> <Tether>
0.000

$$$$
VeraChem MOL file


 20 19  0  0  0  0  0  0  0  0999 V2000     
   17.8944   19.5742   22.0202 N   0  3  0  0  0  0  0  0  0  0  0  0
   18.5287   20.1127   21.4261 H   0  0  0  0  0  0  0  0  0  0  0  0
   17.1939   20.2240   22.3872 H   0  0  0  0  0  0  0  0  0  0  0  0
   17.4036   18.9064   21.4196 H   0  0  0  0  0  0  0  0  0  0  0  0
   18.6358   18.8796   23.1304 C   0  0  2  0  0  0  0  0  0  0  0  0
   17.8757   18.3460   23.7097 H   0  0  0  0  0  0  0  0  0  0  0  0
   19.2968   19.9006   24.0708 C   0  0  0  0  0  0  0  0  0  0  0  0
   19.9773   20.5659   23.5267 H   0  0  0  0  0  0  0  0  0  0  0  0
   19.8619   19.3940   24.8629 H   0  0  0  0  0  0  0  0  0  0  0  0
   18.5354   20.5255   24.5533 H   0  0  0  0  0  0  0  0  0  0  0  0
   19.6291   17.8151   22.6001 C   0  0  0  0  0  0  0  0  0  0  0  0
   20.0105   17.2217   23.4415 H   0  0  0  0  0  0  0  0  0  0  0  0
   19.0553   17.1084   21.9862 H   0  0  0  0  0  0  0  0  0  0  0  0
   20.8161   18.3466   21.7494 C   0  0  0  0  0  0  0  0  0  0  0  0
   20.5287   19.2513   21.1977 H   0  0  0  0  0  0  0  0  0  0  0  0
   21.0580   17.5946   20.9852 H   0  0  0  0  0  0  0  0  0  0  0  0
   22.0980   18.6105   22.5738 C   0  0  0  0  0  0  0  0  0  0  0  0
   21.9494   19.3862   23.3328 H   0  0  0  0  0  0  0  0  0  0  0  0
   22.9137   18.9419   21.9182 H   0  0  0  0  0  0  0  0  0  0  0  0
   22.4324   17.6976   23.0835 H   0  0  0  0  0  0  0  0  0  0  0  0
  1  2  1  0  0  0  0
  1  3  1  0  0  0  0
  1  4  1  0  0  0  0
  1  5  1  0  0  0  0
  5  6  1  0  0  0  0
  5  7  1  0  0  0  0
  7  8  1  0  0  0  0
  7  9  1  0  0  0  0
  7 10  1  0  0  0  0
  5 11  1  0  0  0  0
 11 12  1  0  0  0  0
 11 13  1  0  0  0  0
 11 14  1  0  0  0  0
 14 15  1  0  0  0  0
 14 16  1  0  0  0  0
 14 17  1  0  0  0  0
 17 18  1  0  0  0  0
 17 19  1  0  0  0  0
 17 20  1  0  0  0  0
M  END
> <VConfSearch Rank>
929

> <Conf_Id>
35

> <Delta U+W>
3.004

> <U+W>
-33.272

> <U>
25.367

> <W>
-58.639

> <W(PB)>
-60.512

> <W(SA)>
1.873

> <Valence>
4.943

> <Coulomb>
19.661

> <VdW>
0.764

> <VdW6>
-5.871

> <VdW12>
6.636

> <Bond>
0.230

> <Angle>
1.857

> <Pdih>
2.855

> <Idih>
0.000

> <Tether>
0.000

$$$$
VeraChem MOL file


 20 19  0  0  0  0  0  0  0  0999 V2000     
   20.2194   19.5485   21.0639 N   0  3  0  0  0  0  0  0  0  0  0  0
   19.9134   20.2719   20.4076 H   0  0  0  0  0  0  0  0  0  0  0  0
   20.7525   18.8577   20.5290 H   0  0  0  0  0  0  0  0  0  0  0  0
   20.8625   19.9841   21.7277 H   0  0  0  0  0  0  0  0  0  0  0  0
   19.0525   18.9159   21.7715 C   0  0  2  0  0  0  0  0  0  0  0  0
   18.4469   18.4613   20.9812 H   0  0  0  0  0  0  0  0  0  0  0  0
   18.1777   19.9734   22.4679 C   0  0  0  0  0  0  0  0  0  0  0  0
   18.7456   20.5405   23.2150 H   0  0  0  0  0  0  0  0  0  0  0  0
   17.3233   19.5023   22.9694 H   0  0  0  0  0  0  0  0  0  0  0  0
   17.7812   20.6870   21.7354 H   0  0  0  0  0  0  0  0  0  0  0  0
   19.4712   17.7714   22.7296 C   0  0  0  0  0  0  0  0  0  0  0  0
   18.5745   17.1769   22.9490 H   0  0  0  0  0  0  0  0  0  0  0  0
   20.1476   17.0909   22.1962 H   0  0  0  0  0  0  0  0  0  0  0  0
   20.1157   18.1761   24.0852 C   0  0  0  0  0  0  0  0  0  0  0  0
   20.3084   17.2574   24.6568 H   0  0  0  0  0  0  0  0  0  0  0  0
   19.4026   18.7540   24.6886 H   0  0  0  0  0  0  0  0  0  0  0  0
   21.4437   18.9570   23.9607 C   0  0  0  0  0  0  0  0  0  0  0  0
   22.1466   18.4434   23.2919 H   0  0  0  0  0  0  0  0  0  0  0  0
   21.9251   19.0466   24.9432 H   0  0  0  0  0  0  0  0  0  0  0  0
   21.2802   19.9751   23.5893 H   0  0  0  0  0  0  0  0  0  0  0  0
  1  2  1  0  0  0  0
  1  3  1  0  0  0  0
  1  4  1  0  0  0  0
  1  5  1  0  0  0  0
  5  6  1  0  0  0  0
  5  7  1  0  0  0  0
  7  8  1  0  0  0  0
  7  9  1  0  0  0  0
  7 10  1  0  0  0  0
  5 11  1  0  0  0  0
 11 12  1  0  0  0  0
 11 13  1  0  0  0  0
 11 14  1  0  0  0  0
 14 15  1  0  0  0  0
 14 16  1  0  0  0  0
 14 17  1  0  0  0  0
 17 18  1  0  0  0  0
 17 19  1  0  0  0  0
 17 20  1  0  0  0  0
M  END
> <VConfSearch Rank>
930

> <Conf_Id>
55

> <Delta U+W>
2.767

> <U+W>
-33.509

> <U>
24.552

> <W>
-58.061

> <W(PB)>
-59.930

> <W(SA)>
1.869

> <Valence>
3.726

> <Coulomb>
20.219

> <VdW>
0.606

> <VdW6>
-6.395

> <VdW12>
7.001

> <Bond>
0.241

> <Angle>
2.098

> <Pdih>
1.387

> <Idih>
0.000

> <Tether>
0.000

$$$$
VeraChem MOL file


 20 19  0  0  0  0  0  0  0  0999 V2000     
   19.4779   20.8994   22.9083 N   0  3  0  0  0  0  0  0  0  0  0  0
   19.6502   21.1541   21.9326 H   0  0  0  0  0  0  0  0  0  0  0  0
   19.6758   21.7258   23.4789 H   0  0  0  0  0  0  0  0  0  0  0  0
   18.4793   20.6979   23.0019 H   0  0  0  0  0  0  0  0  0  0  0  0
   20.3203   19.7253   23.3288 C   0  0  2  0  0  0  0  0  0  0  0  0
   20.0727   19.5186   24.3747 H   0  0  0  0  0  0  0  0  0  0  0  0
   21.8150   20.0767   23.2487 C   0  0  0  0  0  0  0  0  0  0  0  0
   22.0409   20.9560   23.8642 H   0  0  0  0  0  0  0  0  0  0  0  0
   22.1171   20.2951   22.2168 H   0  0  0  0  0  0  0  0  0  0  0  0
   22.4311   19.2468   23.6164 H   0  0  0  0  0  0  0  0  0  0  0  0
   20.0224   18.4548   22.5022 C   0  0  0  0  0  0  0  0  0  0  0  0
   20.2406   18.6434   21.4426 H   0  0  0  0  0  0  0  0  0  0  0  0
   20.7029   17.6552   22.8240 H   0  0  0  0  0  0  0  0  0  0  0  0
   18.5639   17.9603   22.6560 C   0  0  0  0  0  0  0  0  0  0  0  0
   17.8636   18.7220   22.2873 H   0  0  0  0  0  0  0  0  0  0  0  0
   18.3354   17.8061   23.7200 H   0  0  0  0  0  0  0  0  0  0  0  0
   18.3243   16.6438   21.8861 C   0  0  0  0  0  0  0  0  0  0  0  0
   18.5153   16.7736   20.8128 H   0  0  0  0  0  0  0  0  0  0  0  0
   17.2857   16.3087   22.0048 H   0  0  0  0  0  0  0  0  0  0  0  0
   18.9797   15.8444   22.2556 H   0  0  0  0  0  0  0  0  0  0  0  0
  1  2  1  0  0  0  0
  1  3  1  0  0  0  0
  1  4  1  0  0  0  0
  1  5  1  0  0  0  0
  5  6  1  0  0  0  0
  5  7  1  0  0  0  0
  7  8  1  0  0  0  0
  7  9  1  0  0  0  0
  7 10  1  0  0  0  0
  5 11  1  0  0  0  0
 11 12  1  0  0  0  0
 11 13  1  0  0  0  0
 11 14  1  0  0  0  0
 14 15  1  0  0  0  0
 14 16  1  0  0  0  0
 14 17  1  0  0  0  0
 17 18  1  0  0  0  0
 17 19  1  0  0  0  0
 17 20  1  0  0  0  0
M  END
> <VConfSearch Rank>
931

> <Conf_Id>
74

> <Delta U+W>
0.000

> <U+W>
-36.276

> <U>
22.080

> <W>
-58.356

> <W(PB)>
-60.289

> <W(SA)>
1.932

> <Valence>
1.885

> <Coulomb>
19.559

> <VdW>
0.637

> <VdW6>
-4.482

> <VdW12>
5.119

> <Bond>
0.136

> <Angle>
0.867

> <Pdih>
0.882

> <Idih>
0.000

> <Tether>
0.000

$$$$
VeraChem MOL file


 20 19  0  0  0  0  0  0  0  0999 V2000     
   21.0674   17.8994   21.0214 N   0  3  0  0  0  0  0  0  0  0  0  0
   21.5658   17.1813   21.5540 H   0  0  0  0  0  0  0  0  0  0  0  0
   21.7207   18.6702   20.8606 H   0  0  0  0  0  0  0  0  0  0  0  0
   20.8423   17.4962   20.1079 H   0  0  0  0  0  0  0  0  0  0  0  0
   19.8297   18.3644   21.7384 C   0  0  2  0  0  0  0  0  0  0  0  0
   19.1952   17.4812   21.8622 H   0  0  0  0  0  0  0  0  0  0  0  0
   19.0697   19.3922   20.8800 C   0  0  0  0  0  0  0  0  0  0  0  0
   18.8863   18.9952   19.8741 H   0  0  0  0  0  0  0  0  0  0  0  0
   19.6397   20.3241   20.7788 H   0  0  0  0  0  0  0  0  0  0  0  0
   18.0930   19.6321   21.3156 H   0  0  0  0  0  0  0  0  0  0  0  0
   20.1704   18.9156   23.1425 C   0  0  0  0  0  0  0  0  0  0  0  0
   20.8015   18.1811   23.6603 H   0  0  0  0  0  0  0  0  0  0  0  0
   20.7727   19.8286   23.0452 H   0  0  0  0  0  0  0  0  0  0  0  0
   18.9278   19.2014   24.0208 C   0  0  0  0  0  0  0  0  0  0  0  0
   18.2923   18.3058   24.0666 H   0  0  0  0  0  0  0  0  0  0  0  0
   18.3209   20.0003   23.5742 H   0  0  0  0  0  0  0  0  0  0  0  0
   19.3261   19.6197   25.4526 C   0  0  0  0  0  0  0  0  0  0  0  0
   19.8995   18.8274   25.9514 H   0  0  0  0  0  0  0  0  0  0  0  0
   18.4341   19.8218   26.0597 H   0  0  0  0  0  0  0  0  0  0  0  0
   19.9393   20.5303   25.4417 H   0  0  0  0  0  0  0  0  0  0  0  0
  1  2  1  0  0  0  0
  1  3  1  0  0  0  0
  1  4  1  0  0  0  0
  1  5  1  0  0  0  0
  5  6  1  0  0  0  0
  5  7  1  0  0  0  0
  7  8  1  0  0  0  0
  7  9  1  0  0  0  0
  7 10  1  0  0  0  0
  5 11  1  0  0  0  0
 11 12  1  0  0  0  0
 11 13  1  0  0  0  0
 11 14  1  0  0  0  0
 14 15  1  0  0  0  0
 14 16  1  0  0  0  0
 14 17  1  0  0  0  0
 17 18  1  0  0  0  0
 17 19  1  0  0  0  0
 17 20  1  0  0  0  0
M  END
> <VConfSearch Rank>
932

> <Conf_Id>
80

> <Delta U+W>
0.460

> <U+W>
-35.817

> <U>
22.495

> <W>
-58.311

> <W(PB)>
-60.259

> <W(SA)>
1.948

> <Valence>
2.419

> <Coulomb>
19.304

> <VdW>
0.772

> <VdW6>
-4.635

> <VdW12>
5.407

> <Bond>
0.149

> <Angle>
1.142

> <Pdih>
1.129

> <Idih>
0.000

> <Tether>
0.000

$$$$
VeraChem MOL file


 20 19  0  0  0  0  0  0  0  0999 V2000     
   19.9659   20.5600   21.0199 N   0  3  0  0  0  0  0  0  0  0  0  0
   20.3803   21.4185   21.3928 H   0  0  0  0  0  0  0  0  0  0  0  0
   18.9595   20.7200   20.9285 H   0  0  0  0  0  0  0  0  0  0  0  0
   20.3399   20.4291   20.0762 H   0  0  0  0  0  0  0  0  0  0  0  0
   20.2589   19.3743   21.8979 C   0  0  2  0  0  0  0  0  0  0  0  0
   21.3488   19.2794   21.9306 H   0  0  0  0  0  0  0  0  0  0  0  0
   19.6862   18.0923   21.2697 C   0  0  0  0  0  0  0  0  0  0  0  0
   19.9951   18.0031   20.2210 H   0  0  0  0  0  0  0  0  0  0  0  0
   18.5897   18.0877   21.3037 H   0  0  0  0  0  0  0  0  0  0  0  0
   20.0555   17.2013   21.7900 H   0  0  0  0  0  0  0  0  0  0  0  0
   19.7544   19.6139   23.3420 C   0  0  0  0  0  0  0  0  0  0  0  0
   20.1850   20.5630   23.6879 H   0  0  0  0  0  0  0  0  0  0  0  0
   18.6663   19.7617   23.3441 H   0  0  0  0  0  0  0  0  0  0  0  0
   20.1490   18.5160   24.3649 C   0  0  0  0  0  0  0  0  0  0  0  0
   20.3678   18.9974   25.3285 H   0  0  0  0  0  0  0  0  0  0  0  0
   21.0818   18.0235   24.0562 H   0  0  0  0  0  0  0  0  0  0  0  0
   19.0374   17.4662   24.5997 C   0  0  0  0  0  0  0  0  0  0  0  0
   18.1240   17.9411   24.9810 H   0  0  0  0  0  0  0  0  0  0  0  0
   19.3603   16.7243   25.3416 H   0  0  0  0  0  0  0  0  0  0  0  0
   18.7782   16.9262   23.6822 H   0  0  0  0  0  0  0  0  0  0  0  0
  1  2  1  0  0  0  0
  1  3  1  0  0  0  0
  1  4  1  0  0  0  0
  1  5  1  0  0  0  0
  5  6  1  0  0  0  0
  5  7  1  0  0  0  0
  7  8  1  0  0  0  0
  7  9  1  0  0  0  0
  7 10  1  0  0  0  0
  5 11  1  0  0  0  0
 11 12  1  0  0  0  0
 11 13  1  0  0  0  0
 11 14  1  0  0  0  0
 14 15  1  0  0  0  0
 14 16  1  0  0  0  0
 14 17  1  0  0  0  0
 17 18  1  0  0  0  0
 17 19  1  0  0  0  0
 17 20  1  0  0  0  0
M  END
> <VConfSearch Rank>
933

> <Conf_Id>
52

> <Delta U+W>
2.995

> <U+W>
-33.282

> <U>
25.224

> <W>
-58.506

> <W(PB)>
-60.411

> <W(SA)>
1.905

> <Valence>
4.945

> <Coulomb>
19.467

> <VdW>
0.813

> <VdW6>
-5.458

> <VdW12>
6.270

> <Bond>
0.200

> <Angle>
1.675

> <Pdih>
3.070

> <Idih>
0.000

> <Tether>
0.000

$$$$
VeraChem MOL file


 20 19  0  0  0  0  0  0  0  0999 V2000     
   19.5987   17.5755   23.4789 N   0  3  0  0  0  0  0  0  0  0  0  0
   18.7078   17.6325   23.9785 H   0  0  0  0  0  0  0  0  0  0  0  0
   20.1509   16.8361   23.9215 H   0  0  0  0  0  0  0  0  0  0  0  0
   19.3945   17.2783   22.5224 H   0  0  0  0  0  0  0  0  0  0  0  0
   20.3237   18.8936   23.4983 C   0  0  2  0  0  0  0  0  0  0  0  0
   21.2815   18.7420   22.9910 H   0  0  0  0  0  0  0  0  0  0  0  0
   20.6097   19.3101   24.9510 C   0  0  0  0  0  0  0  0  0  0  0  0
   19.6788   19.4910   25.5029 H   0  0  0  0  0  0  0  0  0  0  0  0
   21.2104   20.2276   24.9839 H   0  0  0  0  0  0  0  0  0  0  0  0
   21.1720   18.5282   25.4762 H   0  0  0  0  0  0  0  0  0  0  0  0
   19.5533   20.0128   22.7579 C   0  0  0  0  0  0  0  0  0  0  0  0
   18.5018   20.0158   23.0739 H   0  0  0  0  0  0  0  0  0  0  0  0
   19.9623   20.9835   23.0685 H   0  0  0  0  0  0  0  0  0  0  0  0
   19.6460   19.9520   21.2105 C   0  0  0  0  0  0  0  0  0  0  0  0
   20.6996   19.9971   20.9007 H   0  0  0  0  0  0  0  0  0  0  0  0
   19.1724   20.8565   20.8037 H   0  0  0  0  0  0  0  0  0  0  0  0
   18.9717   18.7187   20.5675 C   0  0  0  0  0  0  0  0  0  0  0  0
   18.9025   18.8491   19.4796 H   0  0  0  0  0  0  0  0  0  0  0  0
   17.9526   18.5756   20.9501 H   0  0  0  0  0  0  0  0  0  0  0  0
   19.5501   17.8043   20.7428 H   0  0  0  0  0  0  0  0  0  0  0  0
  1  2  1  0  0  0  0
  1  3  1  0  0  0  0
  1  4  1  0  0  0  0
  1  5  1  0  0  0  0
  5  6  1  0  0  0  0
  5  7  1  0  0  0  0
  7  8  1  0  0  0  0
  7  9  1  0  0  0  0
  7 10  1  0  0  0  0
  5 11  1  0  0  0  0
 11 12  1  0  0  0  0
 11 13  1  0  0  0  0
 11 14  1  0  0  0  0
 14 15  1  0  0  0  0
 14 16  1  0  0  0  0
 14 17  1  0  0  0  0
 17 18  1  0  0  0  0
 17 19  1  0  0  0  0
 17 20  1  0  0  0  0
M  END
> <VConfSearch Rank>
934

> <Conf_Id>
54

> <Delta U+W>
2.752

> <U+W>
-33.525

> <U>
24.337

> <W>
-57.862

> <W(PB)>
-59.764

> <W(SA)>
1.901

> <Valence>
3.593

> <Coulomb>
20.067

> <VdW>
0.677

> <VdW6>
-5.466

> <VdW12>
6.144

> <Bond>
0.191

> <Angle>
1.557

> <Pdih>
1.845

> <Idih>
0.000

> <Tether>
0.000

$$$$
VeraChem MOL file


 20 19  0  0  0  0  0  0  0  0999 V2000     
   21.1743   17.7805   21.7595 N   0  3  0  0  0  0  0  0  0  0  0  0
   21.5237   16.8241   21.6561 H   0  0  0  0  0  0  0  0  0  0  0  0
   21.9698   18.4106   21.6255 H   0  0  0  0  0  0  0  0  0  0  0  0
   20.5163   17.9495   20.9953 H   0  0  0  0  0  0  0  0  0  0  0  0
   20.5245   17.9874   23.1007 C   0  0  2  0  0  0  0  0  0  0  0  0
   21.2946   17.7686   23.8471 H   0  0  0  0  0  0  0  0  0  0  0  0
   19.3727   16.9897   23.3169 C   0  0  0  0  0  0  0  0  0  0  0  0
   18.9005   17.1449   24.2949 H   0  0  0  0  0  0  0  0  0  0  0  0
   19.7477   15.9593   23.2893 H   0  0  0  0  0  0  0  0  0  0  0  0
   18.6016   17.0856   22.5435 H   0  0  0  0  0  0  0  0  0  0  0  0
   20.0752   19.4517   23.3222 C   0  0  0  0  0  0  0  0  0  0  0  0
   19.6947   19.5528   24.3473 H   0  0  0  0  0  0  0  0  0  0  0  0
   20.9603   20.0987   23.2647 H   0  0  0  0  0  0  0  0  0  0  0  0
   19.0040   19.9656   22.3259 C   0  0  0  0  0  0  0  0  0  0  0  0
   18.0901   19.3618   22.4055 H   0  0  0  0  0  0  0  0  0  0  0  0
   19.3654   19.8626   21.2939 H   0  0  0  0  0  0  0  0  0  0  0  0
   18.6490   21.4448   22.5890 C   0  0  0  0  0  0  0  0  0  0  0  0
   17.8887   21.7935   21.8781 H   0  0  0  0  0  0  0  0  0  0  0  0
   19.5315   22.0886   22.4802 H   0  0  0  0  0  0  0  0  0  0  0  0
   18.2495   21.5810   23.6024 H   0  0  0  0  0  0  0  0  0  0  0  0
  1  2  1  0  0  0  0
  1  3  1  0  0  0  0
  1  4  1  0  0  0  0
  1  5  1  0  0  0  0
  5  6  1  0  0  0  0
  5  7  1  0  0  0  0
  7  8  1  0  0  0  0
  7  9  1  0  0  0  0
  7 10  1  0  0  0  0
  5 11  1  0  0  0  0
 11 12  1  0  0  0  0
 11 13  1  0  0  0  0
 11 14  1  0  0  0  0
 14 15  1  0  0  0  0
 14 16  1  0  0  0  0
 14 17  1  0  0  0  0
 17 18  1  0  0  0  0
 17 19  1  0  0  0  0
 17 20  1  0  0  0  0
M  END
> <VConfSearch Rank>
935

> <Conf_Id>
63

> <Delta U+W>
0.420

> <U+W>
-35.856

> <U>
22.625

> <W>
-58.481

> <W(PB)>
-60.400

> <W(SA)>
1.919

> <Valence>
2.404

> <Coulomb>
19.464

> <VdW>
0.757

> <VdW6>
-5.074

> <VdW12>
5.830

> <Bond>
0.172

> <Angle>
1.207

> <Pdih>
1.025

> <Idih>
0.000

> <Tether>
0.000

$$$$
VeraChem MOL file


 20 19  0  0  0  0  0  0  0  0999 V2000     
   20.9498   19.8385   21.8660 N   0  3  0  0  0  0  0  0  0  0  0  0
   20.9562   20.4743   22.6676 H   0  0  0  0  0  0  0  0  0  0  0  0
   20.5453   20.3448   21.0745 H   0  0  0  0  0  0  0  0  0  0  0  0
   21.9245   19.6324   21.6314 H   0  0  0  0  0  0  0  0  0  0  0  0
   20.1778   18.5832   22.1699 C   0  0  2  0  0  0  0  0  0  0  0  0
   20.6751   18.1059   23.0196 H   0  0  0  0  0  0  0  0  0  0  0  0
   20.2290   17.6124   20.9789 C   0  0  0  0  0  0  0  0  0  0  0  0
   21.2670   17.3715   20.7186 H   0  0  0  0  0  0  0  0  0  0  0  0
   19.7459   18.0437   20.0933 H   0  0  0  0  0  0  0  0  0  0  0  0
   19.7202   16.6711   21.2213 H   0  0  0  0  0  0  0  0  0  0  0  0
   18.7120   18.8720   22.5661 C   0  0  0  0  0  0  0  0  0  0  0  0
   18.1906   19.3372   21.7190 H   0  0  0  0  0  0  0  0  0  0  0  0
   18.1991   17.9198   22.7561 H   0  0  0  0  0  0  0  0  0  0  0  0
   18.5581   19.7770   23.8147 C   0  0  0  0  0  0  0  0  0  0  0  0
   17.4872   19.9266   24.0118 H   0  0  0  0  0  0  0  0  0  0  0  0
   18.9699   20.7753   23.6137 H   0  0  0  0  0  0  0  0  0  0  0  0
   19.2217   19.1838   25.0785 C   0  0  0  0  0  0  0  0  0  0  0  0
   18.8252   18.1843   25.3000 H   0  0  0  0  0  0  0  0  0  0  0  0
   19.0267   19.8216   25.9505 H   0  0  0  0  0  0  0  0  0  0  0  0
   20.3100   19.1034   24.9648 H   0  0  0  0  0  0  0  0  0  0  0  0
  1  2  1  0  0  0  0
  1  3  1  0  0  0  0
  1  4  1  0  0  0  0
  1  5  1  0  0  0  0
  5  6  1  0  0  0  0
  5  7  1  0  0  0  0
  7  8  1  0  0  0  0
  7  9  1  0  0  0  0
  7 10  1  0  0  0  0
  5 11  1  0  0  0  0
 11 12  1  0  0  0  0
 11 13  1  0  0  0  0
 11 14  1  0  0  0  0
 14 15  1  0  0  0  0
 14 16  1  0  0  0  0
 14 17  1  0  0  0  0
 17 18  1  0  0  0  0
 17 19  1  0  0  0  0
 17 20  1  0  0  0  0
M  END
> <VConfSearch Rank>
936

> <Conf_Id>
50

> <Delta U+W>
0.466

> <U+W>
-35.811

> <U>
22.369

> <W>
-58.180

> <W(PB)>
-60.103

> <W(SA)>
1.923

> <Valence>
2.168

> <Coulomb>
19.636

> <VdW>
0.566

> <VdW6>
-5.263

> <VdW12>
5.829

> <Bond>
0.162

> <Angle>
1.066

> <Pdih>
0.939

> <Idih>
0.000

> <Tether>
0.000

$$$$
VeraChem MOL file


 20 19  0  0  0  0  0  0  0  0999 V2000     
   20.9299   18.3522   24.6359 N   0  3  0  0  0  0  0  0  0  0  0  0
   21.7488   18.9650   24.5926 H   0  0  0  0  0  0  0  0  0  0  0  0
   21.2577   17.3918   24.5050 H   0  0  0  0  0  0  0  0  0  0  0  0
   20.5530   18.4183   25.5853 H   0  0  0  0  0  0  0  0  0  0  0  0
   19.8991   18.7297   23.6066 C   0  0  2  0  0  0  0  0  0  0  0  0
   19.6152   19.7639   23.8247 H   0  0  0  0  0  0  0  0  0  0  0  0
   18.6546   17.8344   23.7544 C   0  0  0  0  0  0  0  0  0  0  0  0
   18.9052   16.7791   23.5900 H   0  0  0  0  0  0  0  0  0  0  0  0
   17.8728   18.1098   23.0384 H   0  0  0  0  0  0  0  0  0  0  0  0
   18.2286   17.9284   24.7608 H   0  0  0  0  0  0  0  0  0  0  0  0
   20.4726   18.6804   22.1689 C   0  0  0  0  0  0  0  0  0  0  0  0
   21.5694   18.6803   22.2193 H   0  0  0  0  0  0  0  0  0  0  0  0
   20.1993   17.7363   21.6790 H   0  0  0  0  0  0  0  0  0  0  0  0
   20.0519   19.8812   21.2841 C   0  0  0  0  0  0  0  0  0  0  0  0
   20.5660   19.8007   20.3160 H   0  0  0  0  0  0  0  0  0  0  0  0
   20.4064   20.8160   21.7408 H   0  0  0  0  0  0  0  0  0  0  0  0
   18.5309   19.9787   21.0322 C   0  0  0  0  0  0  0  0  0  0  0  0
   18.1375   19.0427   20.6148 H   0  0  0  0  0  0  0  0  0  0  0  0
   18.3116   20.7821   20.3170 H   0  0  0  0  0  0  0  0  0  0  0  0
   17.9851   20.2052   21.9565 H   0  0  0  0  0  0  0  0  0  0  0  0
  1  2  1  0  0  0  0
  1  3  1  0  0  0  0
  1  4  1  0  0  0  0
  1  5  1  0  0  0  0
  5  6  1  0  0  0  0
  5  7  1  0  0  0  0
  7  8  1  0  0  0  0
  7  9  1  0  0  0  0
  7 10  1  0  0  0  0
  5 11  1  0  0  0  0
 11 12  1  0  0  0  0
 11 13  1  0  0  0  0
 11 14  1  0  0  0  0
 14 15  1  0  0  0  0
 14 16  1  0  0  0  0
 14 17  1  0  0  0  0
 17 18  1  0  0  0  0
 17 19  1  0  0  0  0
 17 20  1  0  0  0  0
M  END
> <VConfSearch Rank>
937

> <Conf_Id>
3

> <Delta U+W>
3.093

> <U+W>
-33.184

> <U>
25.256

> <W>
-58.439

> <W(PB)>
-60.337

> <W(SA)>
1.898

> <Valence>
4.963

> <Coulomb>
19.511

> <VdW>
0.782

> <VdW6>
-5.429

> <VdW12>
6.211

> <Bond>
0.174

> <Angle>
1.377

> <Pdih>
3.412

> <Idih>
0.000

> <Tether>
0.000

$$$$
VeraChem MOL file


 20 19  0  0  0  0  0  0  0  0999 V2000     
   19.8882   21.2094   22.7565 N   0  3  0  0  0  0  0  0  0  0  0  0
   20.3651   21.7232   22.0108 H   0  0  0  0  0  0  0  0  0  0  0  0
   20.3914   21.4029   23.6267 H   0  0  0  0  0  0  0  0  0  0  0  0
   18.9509   21.6088   22.8494 H   0  0  0  0  0  0  0  0  0  0  0  0
   19.8340   19.7353   22.4623 C   0  0  2  0  0  0  0  0  0  0  0  0
   20.8724   19.4013   22.3770 H   0  0  0  0  0  0  0  0  0  0  0  0
   19.1302   19.4835   21.1164 C   0  0  0  0  0  0  0  0  0  0  0  0
   19.2046   18.4309   20.8196 H   0  0  0  0  0  0  0  0  0  0  0  0
   19.5938   20.0786   20.3202 H   0  0  0  0  0  0  0  0  0  0  0  0
   18.0677   19.7521   21.1675 H   0  0  0  0  0  0  0  0  0  0  0  0
   19.1668   18.9571   23.6215 C   0  0  0  0  0  0  0  0  0  0  0  0
   19.6585   19.2381   24.5621 H   0  0  0  0  0  0  0  0  0  0  0  0
   18.1204   19.2755   23.7181 H   0  0  0  0  0  0  0  0  0  0  0  0
   19.2160   17.4134   23.4881 C   0  0  0  0  0  0  0  0  0  0  0  0
   18.6184   17.0855   22.6268 H   0  0  0  0  0  0  0  0  0  0  0  0
   18.7375   16.9685   24.3718 H   0  0  0  0  0  0  0  0  0  0  0  0
   20.6545   16.8612   23.3665 C   0  0  0  0  0  0  0  0  0  0  0  0
   21.2726   17.1788   24.2164 H   0  0  0  0  0  0  0  0  0  0  0  0
   21.1400   17.2006   22.4428 H   0  0  0  0  0  0  0  0  0  0  0  0
   20.6452   15.7637   23.3509 H   0  0  0  0  0  0  0  0  0  0  0  0
  1  2  1  0  0  0  0
  1  3  1  0  0  0  0
  1  4  1  0  0  0  0
  1  5  1  0  0  0  0
  5  6  1  0  0  0  0
  5  7  1  0  0  0  0
  7  8  1  0  0  0  0
  7  9  1  0  0  0  0
  7 10  1  0  0  0  0
  5 11  1  0  0  0  0
 11 12  1  0  0  0  0
 11 13  1  0  0  0  0
 11 14  1  0  0  0  0
 14 15  1  0  0  0  0
 14 16  1  0  0  0  0
 14 17  1  0  0  0  0
 17 18  1  0  0  0  0
 17 19  1  0  0  0  0
 17 20  1  0  0  0  0
M  END
> <VConfSearch Rank>
938

> <Conf_Id>
64

> <Delta U+W>
0.544

> <U+W>
-35.732

> <U>
22.800

> <W>
-58.532

> <W(PB)>
-60.437

> <W(SA)>
1.905

> <Valence>
2.662

> <Coulomb>
19.485

> <VdW>
0.653

> <VdW6>
-5.460

> <VdW12>
6.113

> <Bond>
0.174

> <Angle>
1.378

> <Pdih>
1.109

> <Idih>
0.000

> <Tether>
0.000

$$$$
VeraChem MOL file


 20 19  0  0  0  0  0  0  0  0999 V2000     
   17.9500   19.6561   23.4430 N   0  3  0  0  0  0  0  0  0  0  0  0
   17.6646   19.2416   22.5531 H   0  0  0  0  0  0  0  0  0  0  0  0
   17.5273   20.5867   23.4964 H   0  0  0  0  0  0  0  0  0  0  0  0
   17.5375   19.0921   24.1910 H   0  0  0  0  0  0  0  0  0  0  0  0
   19.4486   19.7247   23.5635 C   0  0  2  0  0  0  0  0  0  0  0  0
   19.6498   20.1885   24.5342 H   0  0  0  0  0  0  0  0  0  0  0  0
   20.0438   20.6431   22.4837 C   0  0  0  0  0  0  0  0  0  0  0  0
   19.7650   20.3119   21.4766 H   0  0  0  0  0  0  0  0  0  0  0  0
   21.1382   20.6696   22.5528 H   0  0  0  0  0  0  0  0  0  0  0  0
   19.6778   21.6693   22.6098 H   0  0  0  0  0  0  0  0  0  0  0  0
   20.1027   18.3203   23.5899 C   0  0  0  0  0  0  0  0  0  0  0  0
   21.1642   18.4178   23.8529 H   0  0  0  0  0  0  0  0  0  0  0  0
   19.6503   17.7635   24.4210 H   0  0  0  0  0  0  0  0  0  0  0  0
   19.9561   17.4698   22.2974 C   0  0  0  0  0  0  0  0  0  0  0  0
   19.0168   17.7032   21.7792 H   0  0  0  0  0  0  0  0  0  0  0  0
   19.8834   16.4118   22.5859 H   0  0  0  0  0  0  0  0  0  0  0  0
   21.1505   17.6125   21.3249 C   0  0  0  0  0  0  0  0  0  0  0  0
   21.2626   18.6374   20.9549 H   0  0  0  0  0  0  0  0  0  0  0  0
   21.0147   16.9596   20.4529 H   0  0  0  0  0  0  0  0  0  0  0  0
   22.0908   17.3236   21.8122 H   0  0  0  0  0  0  0  0  0  0  0  0
  1  2  1  0  0  0  0
  1  3  1  0  0  0  0
  1  4  1  0  0  0  0
  1  5  1  0  0  0  0
  5  6  1  0  0  0  0
  5  7  1  0  0  0  0
  7  8  1  0  0  0  0
  7  9  1  0  0  0  0
  7 10  1  0  0  0  0
  5 11  1  0  0  0  0
 11 12  1  0  0  0  0
 11 13  1  0  0  0  0
 11 14  1  0  0  0  0
 14 15  1  0  0  0  0
 14 16  1  0  0  0  0
 14 17  1  0  0  0  0
 17 18  1  0  0  0  0
 17 19  1  0  0  0  0
 17 20  1  0  0  0  0
M  END
> <VConfSearch Rank>
939

> <Conf_Id>
35

> <Delta U+W>
3.004

> <U+W>
-33.272

> <U>
25.367

> <W>
-58.639

> <W(PB)>
-60.512

> <W(SA)>
1.873

> <Valence>
4.943

> <Coulomb>
19.661

> <VdW>
0.764

> <VdW6>
-5.871

> <VdW12>
6.636

> <Bond>
0.230

> <Angle>
1.857

> <Pdih>
2.855

> <Idih>
0.000

> <Tether>
0.000

$$$$
VeraChem MOL file


 20 19  0  0  0  0  0  0  0  0999 V2000     
   20.3319   20.6072   22.2317 N   0  3  0  0  0  0  0  0  0  0  0  0
   19.9135   21.4811   21.9017 H   0  0  0  0  0  0  0  0  0  0  0  0
   21.3322   20.6491   22.0191 H   0  0  0  0  0  0  0  0  0  0  0  0
   20.2361   20.5822   23.2486 H   0  0  0  0  0  0  0  0  0  0  0  0
   19.6831   19.4093   21.5940 C   0  0  2  0  0  0  0  0  0  0  0  0
   19.8640   19.5198   20.5203 H   0  0  0  0  0  0  0  0  0  0  0  0
   18.1586   19.4177   21.8049 C   0  0  0  0  0  0  0  0  0  0  0  0
   17.8971   19.4040   22.8697 H   0  0  0  0  0  0  0  0  0  0  0  0
   17.6949   18.5470   21.3251 H   0  0  0  0  0  0  0  0  0  0  0  0
   17.7144   20.3174   21.3620 H   0  0  0  0  0  0  0  0  0  0  0  0
   20.3315   18.0678   22.0220 C   0  0  0  0  0  0  0  0  0  0  0  0
   20.0244   17.3037   21.2958 H   0  0  0  0  0  0  0  0  0  0  0  0
   21.4210   18.1494   21.9148 H   0  0  0  0  0  0  0  0  0  0  0  0
   19.9950   17.5345   23.4429 C   0  0  0  0  0  0  0  0  0  0  0  0
   20.4936   16.5631   23.5675 H   0  0  0  0  0  0  0  0  0  0  0  0
   18.9198   17.3262   23.5269 H   0  0  0  0  0  0  0  0  0  0  0  0
   20.4375   18.4583   24.6005 C   0  0  0  0  0  0  0  0  0  0  0  0
   21.4896   18.7532   24.4948 H   0  0  0  0  0  0  0  0  0  0  0  0
   20.3328   17.9389   25.5620 H   0  0  0  0  0  0  0  0  0  0  0  0
   19.8195   19.3618   24.6547 H   0  0  0  0  0  0  0  0  0  0  0  0
  1  2  1  0  0  0  0
  1  3  1  0  0  0  0
  1  4  1  0  0  0  0
  1  5  1  0  0  0  0
  5  6  1  0  0  0  0
  5  7  1  0  0  0  0
  7  8  1  0  0  0  0
  7  9  1  0  0  0  0
  7 10  1  0  0  0  0
  5 11  1  0  0  0  0
 11 12  1  0  0  0  0
 11 13  1  0  0  0  0
 11 14  1  0  0  0  0
 14 15  1  0  0  0  0
 14 16  1  0  0  0  0
 14 17  1  0  0  0  0
 17 18  1  0  0  0  0
 17 19  1  0  0  0  0
 17 20  1  0  0  0  0
M  END
> <VConfSearch Rank>
940

> <Conf_Id>
55

> <Delta U+W>
2.767

> <U+W>
-33.509

> <U>
24.552

> <W>
-58.061

> <W(PB)>
-59.930

> <W(SA)>
1.869

> <Valence>
3.726

> <Coulomb>
20.219

> <VdW>
0.606

> <VdW6>
-6.395

> <VdW12>
7.001

> <Bond>
0.241

> <Angle>
2.098

> <Pdih>
1.387

> <Idih>
0.000

> <Tether>
0.000

$$$$
VeraChem MOL file


 20 19  0  0  0  0  0  0  0  0999 V2000     
   19.6776   20.5393   23.8903 N   0  3  0  0  0  0  0  0  0  0  0  0
   19.8329   20.0552   24.7780 H   0  0  0  0  0  0  0  0  0  0  0  0
   19.1858   21.4120   24.1005 H   0  0  0  0  0  0  0  0  0  0  0  0
   20.5944   20.7909   23.5126 H   0  0  0  0  0  0  0  0  0  0  0  0
   18.8981   19.6862   22.9261 C   0  0  2  0  0  0  0  0  0  0  0  0
   18.7814   20.2731   22.0097 H   0  0  0  0  0  0  0  0  0  0  0  0
   17.4981   19.3820   23.4841 C   0  0  0  0  0  0  0  0  0  0  0  0
   16.9575   20.3107   23.7045 H   0  0  0  0  0  0  0  0  0  0  0  0
   17.5577   18.7938   24.4083 H   0  0  0  0  0  0  0  0  0  0  0  0
   16.9027   18.8160   22.7568 H   0  0  0  0  0  0  0  0  0  0  0  0
   19.6304   18.3739   22.5687 C   0  0  0  0  0  0  0  0  0  0  0  0
   19.7815   17.7755   23.4771 H   0  0  0  0  0  0  0  0  0  0  0  0
   18.9879   17.7791   21.9057 H   0  0  0  0  0  0  0  0  0  0  0  0
   20.9890   18.6104   21.8661 C   0  0  0  0  0  0  0  0  0  0  0  0
   21.6712   19.1559   22.5320 H   0  0  0  0  0  0  0  0  0  0  0  0
   20.8414   19.2394   20.9768 H   0  0  0  0  0  0  0  0  0  0  0  0
   21.6530   17.2811   21.4472 C   0  0  0  0  0  0  0  0  0  0  0  0
   21.8416   16.6417   22.3195 H   0  0  0  0  0  0  0  0  0  0  0  0
   22.6150   17.4673   20.9522 H   0  0  0  0  0  0  0  0  0  0  0  0
   21.0168   16.7245   20.7467 H   0  0  0  0  0  0  0  0  0  0  0  0
  1  2  1  0  0  0  0
  1  3  1  0  0  0  0
  1  4  1  0  0  0  0
  1  5  1  0  0  0  0
  5  6  1  0  0  0  0
  5  7  1  0  0  0  0
  7  8  1  0  0  0  0
  7  9  1  0  0  0  0
  7 10  1  0  0  0  0
  5 11  1  0  0  0  0
 11 12  1  0  0  0  0
 11 13  1  0  0  0  0
 11 14  1  0  0  0  0
 14 15  1  0  0  0  0
 14 16  1  0  0  0  0
 14 17  1  0  0  0  0
 17 18  1  0  0  0  0
 17 19  1  0  0  0  0
 17 20  1  0  0  0  0
M  END
> <VConfSearch Rank>
941

> <Conf_Id>
74

> <Delta U+W>
0.000

> <U+W>
-36.276

> <U>
22.080

> <W>
-58.356

> <W(PB)>
-60.289

> <W(SA)>
1.932

> <Valence>
1.885

> <Coulomb>
19.559

> <VdW>
0.637

> <VdW6>
-4.482

> <VdW12>
5.119

> <Bond>
0.136

> <Angle>
0.867

> <Pdih>
0.882

> <Idih>
0.000

> <Tether>
0.000

$$$$
VeraChem MOL file


 20 19  0  0  0  0  0  0  0  0999 V2000     
   19.7044   17.8714   24.8628 N   0  3  0  0  0  0  0  0  0  0  0  0
   20.7027   17.8031   25.0784 H   0  0  0  0  0  0  0  0  0  0  0  0
   19.3926   16.9456   24.5590 H   0  0  0  0  0  0  0  0  0  0  0  0
   19.2199   18.0831   25.7392 H   0  0  0  0  0  0  0  0  0  0  0  0
   19.4322   18.9172   23.8165 C   0  0  2  0  0  0  0  0  0  0  0  0
   19.7930   19.8653   24.2273 H   0  0  0  0  0  0  0  0  0  0  0  0
   17.9179   19.0407   23.5664 C   0  0  0  0  0  0  0  0  0  0  0  0
   17.3819   19.1967   24.5107 H   0  0  0  0  0  0  0  0  0  0  0  0
   17.5180   18.1347   23.0944 H   0  0  0  0  0  0  0  0  0  0  0  0
   17.6883   19.8953   22.9197 H   0  0  0  0  0  0  0  0  0  0  0  0
   20.2158   18.6244   22.5158 C   0  0  0  0  0  0  0  0  0  0  0  0
   21.2664   18.4409   22.7772 H   0  0  0  0  0  0  0  0  0  0  0  0
   19.8428   17.6976   22.0600 H   0  0  0  0  0  0  0  0  0  0  0  0
   20.1608   19.7740   21.4802 C   0  0  0  0  0  0  0  0  0  0  0  0
   20.4743   20.7150   21.9539 H   0  0  0  0  0  0  0  0  0  0  0  0
   19.1309   19.9217   21.1290 H   0  0  0  0  0  0  0  0  0  0  0  0
   21.0661   19.4879   20.2628 C   0  0  0  0  0  0  0  0  0  0  0  0
   22.1151   19.3763   20.5669 H   0  0  0  0  0  0  0  0  0  0  0  0
   21.0122   20.3104   19.5377 H   0  0  0  0  0  0  0  0  0  0  0  0
   20.7591   18.5669   19.7502 H   0  0  0  0  0  0  0  0  0  0  0  0
  1  2  1  0  0  0  0
  1  3  1  0  0  0  0
  1  4  1  0  0  0  0
  1  5  1  0  0  0  0
  5  6  1  0  0  0  0
  5  7  1  0  0  0  0
  7  8  1  0  0  0  0
  7  9  1  0  0  0  0
  7 10  1  0  0  0  0
  5 11  1  0  0  0  0
 11 12  1  0  0  0  0
 11 13  1  0  0  0  0
 11 14  1  0  0  0  0
 14 15  1  0  0  0  0
 14 16  1  0  0  0  0
 14 17  1  0  0  0  0
 17 18  1  0  0  0  0
 17 19  1  0  0  0  0
 17 20  1  0  0  0  0
M  END
> <VConfSearch Rank>
942

> <Conf_Id>
80

> <Delta U+W>
0.460

> <U+W>
-35.817

> <U>
22.495

> <W>
-58.311

> <W(PB)>
-60.259

> <W(SA)>
1.948

> <Valence>
2.419

> <Coulomb>
19.304

> <VdW>
0.772

> <VdW6>
-4.635

> <VdW12>
5.407

> <Bond>
0.149

> <Angle>
1.142

> <Pdih>
1.129

> <Idih>
0.000

> <Tether>
0.000

$$$$
VeraChem MOL file


 20 19  0  0  0  0  0  0  0  0999 V2000     
   21.0890   16.9032   22.9715 N   0  3  0  0  0  0  0  0  0  0  0  0
   21.1464   16.6139   23.9516 H   0  0  0  0  0  0  0  0  0  0  0  0
   21.9721   17.3625   22.7352 H   0  0  0  0  0  0  0  0  0  0  0  0
   21.0291   16.0510   22.4078 H   0  0  0  0  0  0  0  0  0  0  0  0
   19.9130   17.8089   22.7271 C   0  0  2  0  0  0  0  0  0  0  0  0
   19.0223   17.2344   22.9997 H   0  0  0  0  0  0  0  0  0  0  0  0
   19.8149   18.1626   21.2333 C   0  0  0  0  0  0  0  0  0  0  0  0
   19.8614   17.2567   20.6167 H   0  0  0  0  0  0  0  0  0  0  0  0
   20.6329   18.8261   20.9266 H   0  0  0  0  0  0  0  0  0  0  0  0
   18.8622   18.6554   21.0084 H   0  0  0  0  0  0  0  0  0  0  0  0
   19.9756   19.0590   23.6385 C   0  0  0  0  0  0  0  0  0  0  0  0
   20.0809   18.7071   24.6733 H   0  0  0  0  0  0  0  0  0  0  0  0
   20.8841   19.6380   23.4265 H   0  0  0  0  0  0  0  0  0  0  0  0
   18.7268   19.9780   23.5774 C   0  0  0  0  0  0  0  0  0  0  0  0
   18.5308   20.3700   24.5853 H   0  0  0  0  0  0  0  0  0  0  0  0
   17.8364   19.3951   23.3030 H   0  0  0  0  0  0  0  0  0  0  0  0
   18.8968   21.1837   22.6233 C   0  0  0  0  0  0  0  0  0  0  0  0
   19.7395   21.8144   22.9350 H   0  0  0  0  0  0  0  0  0  0  0  0
   17.9943   21.8087   22.6297 H   0  0  0  0  0  0  0  0  0  0  0  0
   19.0755   20.8703   21.5887 H   0  0  0  0  0  0  0  0  0  0  0  0
  1  2  1  0  0  0  0
  1  3  1  0  0  0  0
  1  4  1  0  0  0  0
  1  5  1  0  0  0  0
  5  6  1  0  0  0  0
  5  7  1  0  0  0  0
  7  8  1  0  0  0  0
  7  9  1  0  0  0  0
  7 10  1  0  0  0  0
  5 11  1  0  0  0  0
 11 12  1  0  0  0  0
 11 13  1  0  0  0  0
 11 14  1  0  0  0  0
 14 15  1  0  0  0  0
 14 16  1  0  0  0  0
 14 17  1  0  0  0  0
 17 18  1  0  0  0  0
 17 19  1  0  0  0  0
 17 20  1  0  0  0  0
M  END
> <VConfSearch Rank>
943

> <Conf_Id>
52

> <Delta U+W>
2.995

> <U+W>
-33.282

> <U>
25.224

> <W>
-58.506

> <W(PB)>
-60.411

> <W(SA)>
1.905

> <Valence>
4.945

> <Coulomb>
19.467

> <VdW>
0.813

> <VdW6>
-5.458

> <VdW12>
6.270

> <Bond>
0.200

> <Angle>
1.675

> <Pdih>
3.070

> <Idih>
0.000

> <Tether>
0.000

$$$$
VeraChem MOL file


 20 19  0  0  0  0  0  0  0  0999 V2000     
   20.7257   19.7794   21.6939 N   0  3  0  0  0  0  0  0  0  0  0  0
   21.6710   19.4923   21.9594 H   0  0  0  0  0  0  0  0  0  0  0  0
   20.8083   20.6500   21.1621 H   0  0  0  0  0  0  0  0  0  0  0  0
   20.3551   19.0657   21.0629 H   0  0  0  0  0  0  0  0  0  0  0  0
   19.8452   19.9510   22.9016 C   0  0  2  0  0  0  0  0  0  0  0  0
   18.8727   20.3032   22.5439 H   0  0  0  0  0  0  0  0  0  0  0  0
   20.4351   21.0274   23.8285 C   0  0  0  0  0  0  0  0  0  0  0  0
   21.4080   20.7165   24.2294 H   0  0  0  0  0  0  0  0  0  0  0  0
   19.7646   21.2260   24.6738 H   0  0  0  0  0  0  0  0  0  0  0  0
   20.5740   21.9720   23.2882 H   0  0  0  0  0  0  0  0  0  0  0  0
   19.6283   18.6304   23.6783 C   0  0  0  0  0  0  0  0  0  0  0  0
   20.5899   18.1222   23.8286 H   0  0  0  0  0  0  0  0  0  0  0  0
   19.2569   18.8723   24.6831 H   0  0  0  0  0  0  0  0  0  0  0  0
   18.6049   17.6581   23.0348 C   0  0  0  0  0  0  0  0  0  0  0  0
   17.6324   18.1596   22.9312 H   0  0  0  0  0  0  0  0  0  0  0  0
   18.4418   16.8233   23.7308 H   0  0  0  0  0  0  0  0  0  0  0  0
   19.0330   17.0756   21.6685 C   0  0  0  0  0  0  0  0  0  0  0  0
   18.3631   16.2552   21.3799 H   0  0  0  0  0  0  0  0  0  0  0  0
   20.0534   16.6726   21.7079 H   0  0  0  0  0  0  0  0  0  0  0  0
   18.9771   17.8276   20.8730 H   0  0  0  0  0  0  0  0  0  0  0  0
  1  2  1  0  0  0  0
  1  3  1  0  0  0  0
  1  4  1  0  0  0  0
  1  5  1  0  0  0  0
  5  6  1  0  0  0  0
  5  7  1  0  0  0  0
  7  8  1  0  0  0  0
  7  9  1  0  0  0  0
  7 10  1  0  0  0  0
  5 11  1  0  0  0  0
 11 12  1  0  0  0  0
 11 13  1  0  0  0  0
 11 14  1  0  0  0  0
 14 15  1  0  0  0  0
 14 16  1  0  0  0  0
 14 17  1  0  0  0  0
 17 18  1  0  0  0  0
 17 19  1  0  0  0  0
 17 20  1  0  0  0  0
M  END
> <VConfSearch Rank>
944

> <Conf_Id>
54

> <Delta U+W>
2.752

> <U+W>
-33.525

> <U>
24.337

> <W>
-57.862

> <W(PB)>
-59.764

> <W(SA)>
1.901

> <Valence>
3.593

> <Coulomb>
20.067

> <VdW>
0.677

> <VdW6>
-5.466

> <VdW12>
6.144

> <Bond>
0.191

> <Angle>
1.557

> <Pdih>
1.845

> <Idih>
0.000

> <Tether>
0.000

$$$$
VeraChem MOL file


 20 19  0  0  0  0  0  0  0  0999 V2000     
   18.1835   18.0700   23.7016 N   0  3  0  0  0  0  0  0  0  0  0  0
   17.1706   17.9229   23.6937 H   0  0  0  0  0  0  0  0  0  0  0  0
   18.4829   18.0691   24.6804 H   0  0  0  0  0  0  0  0  0  0  0  0
   18.6130   17.2604   23.2481 H   0  0  0  0  0  0  0  0  0  0  0  0
   18.5593   19.3519   23.0093 C   0  0  2  0  0  0  0  0  0  0  0  0
   18.0431   20.1509   23.5508 H   0  0  0  0  0  0  0  0  0  0  0  0
   18.0455   19.3681   21.5586 C   0  0  0  0  0  0  0  0  0  0  0  0
   18.3229   20.3034   21.0569 H   0  0  0  0  0  0  0  0  0  0  0  0
   16.9514   19.2927   21.5385 H   0  0  0  0  0  0  0  0  0  0  0  0
   18.4490   18.5321   20.9753 H   0  0  0  0  0  0  0  0  0  0  0  0
   20.0759   19.6482   23.0927 C   0  0  0  0  0  0  0  0  0  0  0  0
   20.2676   20.6349   22.6506 H   0  0  0  0  0  0  0  0  0  0  0  0
   20.3551   19.7335   24.1511 H   0  0  0  0  0  0  0  0  0  0  0  0
   20.9871   18.5958   22.4097 C   0  0  0  0  0  0  0  0  0  0  0  0
   20.7578   18.5331   21.3376 H   0  0  0  0  0  0  0  0  0  0  0  0
   20.8010   17.6002   22.8344 H   0  0  0  0  0  0  0  0  0  0  0  0
   22.4813   18.9440   22.5807 C   0  0  0  0  0  0  0  0  0  0  0  0
   23.1133   18.1920   22.0907 H   0  0  0  0  0  0  0  0  0  0  0  0
   22.7606   18.9779   23.6419 H   0  0  0  0  0  0  0  0  0  0  0  0
   22.7131   19.9202   22.1350 H   0  0  0  0  0  0  0  0  0  0  0  0
  1  2  1  0  0  0  0
  1  3  1  0  0  0  0
  1  4  1  0  0  0  0
  1  5  1  0  0  0  0
  5  6  1  0  0  0  0
  5  7  1  0  0  0  0
  7  8  1  0  0  0  0
  7  9  1  0  0  0  0
  7 10  1  0  0  0  0
  5 11  1  0  0  0  0
 11 12  1  0  0  0  0
 11 13  1  0  0  0  0
 11 14  1  0  0  0  0
 14 15  1  0  0  0  0
 14 16  1  0  0  0  0
 14 17  1  0  0  0  0
 17 18  1  0  0  0  0
 17 19  1  0  0  0  0
 17 20  1  0  0  0  0
M  END
> <VConfSearch Rank>
945

> <Conf_Id>
63

> <Delta U+W>
0.420

> <U+W>
-35.856

> <U>
22.625

> <W>
-58.481

> <W(PB)>
-60.400

> <W(SA)>
1.919

> <Valence>
2.404

> <Coulomb>
19.464

> <VdW>
0.757

> <VdW6>
-5.074

> <VdW12>
5.830

> <Bond>
0.172

> <Angle>
1.207

> <Pdih>
1.025

> <Idih>
0.000

> <Tether>
0.000

$$$$
VeraChem MOL file


 20 19  0  0  0  0  0  0  0  0999 V2000     
   20.1428   17.7060   21.6163 N   0  3  0  0  0  0  0  0  0  0  0  0
   19.8270   17.0631   22.3470 H   0  0  0  0  0  0  0  0  0  0  0  0
   21.1612   17.6292   21.5577 H   0  0  0  0  0  0  0  0  0  0  0  0
   19.7591   17.3717   20.7283 H   0  0  0  0  0  0  0  0  0  0  0  0
   19.7124   19.1182   21.9071 C   0  0  2  0  0  0  0  0  0  0  0  0
   18.6191   19.1115   21.9498 H   0  0  0  0  0  0  0  0  0  0  0  0
   20.1407   20.0613   20.7710 C   0  0  0  0  0  0  0  0  0  0  0  0
   19.7302   19.7245   19.8111 H   0  0  0  0  0  0  0  0  0  0  0  0
   21.2332   20.1032   20.6795 H   0  0  0  0  0  0  0  0  0  0  0  0
   19.7737   21.0794   20.9504 H   0  0  0  0  0  0  0  0  0  0  0  0
   20.2473   19.6318   23.2632 C   0  0  0  0  0  0  0  0  0  0  0  0
   21.3446   19.6614   23.2344 H   0  0  0  0  0  0  0  0  0  0  0  0
   19.9164   20.6689   23.4080 H   0  0  0  0  0  0  0  0  0  0  0  0
   19.7949   18.7910   24.4840 C   0  0  0  0  0  0  0  0  0  0  0  0
   20.2270   19.2302   25.3941 H   0  0  0  0  0  0  0  0  0  0  0  0
   20.2032   17.7735   24.4170 H   0  0  0  0  0  0  0  0  0  0  0  0
   18.2583   18.7272   24.6398 C   0  0  0  0  0  0  0  0  0  0  0  0
   17.8266   19.7342   24.7089 H   0  0  0  0  0  0  0  0  0  0  0  0
   17.9868   18.1835   25.5540 H   0  0  0  0  0  0  0  0  0  0  0  0
   17.7867   18.2094   23.7951 H   0  0  0  0  0  0  0  0  0  0  0  0
  1  2  1  0  0  0  0
  1  3  1  0  0  0  0
  1  4  1  0  0  0  0
  1  5  1  0  0  0  0
  5  6  1  0  0  0  0
  5  7  1  0  0  0  0
  7  8  1  0  0  0  0
  7  9  1  0  0  0  0
  7 10  1  0  0  0  0
  5 11  1  0  0  0  0
 11 12  1  0  0  0  0
 11 13  1  0  0  0  0
 11 14  1  0  0  0  0
 14 15  1  0  0  0  0
 14 16  1  0  0  0  0
 14 17  1  0  0  0  0
 17 18  1  0  0  0  0
 17 19  1  0  0  0  0
 17 20  1  0  0  0  0
M  END
> <VConfSearch Rank>
946

> <Conf_Id>
50

> <Delta U+W>
0.466

> <U+W>
-35.811

> <U>
22.369

> <W>
-58.180

> <W(PB)>
-60.103

> <W(SA)>
1.923

> <Valence>
2.168

> <Coulomb>
19.636

> <VdW>
0.566

> <VdW6>
-5.263

> <VdW12>
5.829

> <Bond>
0.162

> <Angle>
1.066

> <Pdih>
0.939

> <Idih>
0.000

> <Tether>
0.000

$$$$
VeraChem MOL file


 20 19  0  0  0  0  0  0  0  0999 V2000     
   20.5511   20.4723   21.3090 N   0  3  0  0  0  0  0  0  0  0  0  0
   19.8077   20.6219   20.6212 H   0  0  0  0  0  0  0  0  0  0  0  0
   21.3352   20.0301   20.8226 H   0  0  0  0  0  0  0  0  0  0  0  0
   20.8668   21.3956   21.6183 H   0  0  0  0  0  0  0  0  0  0  0  0
   20.0762   19.6363   22.4666 C   0  0  2  0  0  0  0  0  0  0  0  0
   19.2429   20.1846   22.9168 H   0  0  0  0  0  0  0  0  0  0  0  0
   21.1986   19.4982   23.5121 C   0  0  0  0  0  0  0  0  0  0  0  0
   22.0752   18.9941   23.0867 H   0  0  0  0  0  0  0  0  0  0  0  0
   20.8692   18.9216   24.3832 H   0  0  0  0  0  0  0  0  0  0  0  0
   21.5163   20.4851   23.8703 H   0  0  0  0  0  0  0  0  0  0  0  0
   19.5505   18.2548   22.0048 C   0  0  0  0  0  0  0  0  0  0  0  0
   19.3505   18.2887   20.9257 H   0  0  0  0  0  0  0  0  0  0  0  0
   20.3235   17.4861   22.1379 H   0  0  0  0  0  0  0  0  0  0  0  0
   18.2381   17.8173   22.7034 C   0  0  0  0  0  0  0  0  0  0  0  0
   17.9028   16.8700   22.2584 H   0  0  0  0  0  0  0  0  0  0  0  0
   17.4472   18.5505   22.4915 H   0  0  0  0  0  0  0  0  0  0  0  0
   18.3673   17.6301   24.2313 C   0  0  0  0  0  0  0  0  0  0  0  0
   19.1795   16.9341   24.4781 H   0  0  0  0  0  0  0  0  0  0  0  0
   17.4377   17.2203   24.6472 H   0  0  0  0  0  0  0  0  0  0  0  0
   18.5595   18.5844   24.7373 H   0  0  0  0  0  0  0  0  0  0  0  0
  1  2  1  0  0  0  0
  1  3  1  0  0  0  0
  1  4  1  0  0  0  0
  1  5  1  0  0  0  0
  5  6  1  0  0  0  0
  5  7  1  0  0  0  0
  7  8  1  0  0  0  0
  7  9  1  0  0  0  0
  7 10  1  0  0  0  0
  5 11  1  0  0  0  0
 11 12  1  0  0  0  0
 11 13  1  0  0  0  0
 11 14  1  0  0  0  0
 14 15  1  0  0  0  0
 14 16  1  0  0  0  0
 14 17  1  0  0  0  0
 17 18  1  0  0  0  0
 17 19  1  0  0  0  0
 17 20  1  0  0  0  0
M  END
> <VConfSearch Rank>
947

> <Conf_Id>
3

> <Delta U+W>
3.093

> <U+W>
-33.184

> <U>
25.256

> <W>
-58.439

> <W(PB)>
-60.337

> <W(SA)>
1.898

> <Valence>
4.963

> <Coulomb>
19.511

> <VdW>
0.782

> <VdW6>
-5.429

> <VdW12>
6.211

> <Bond>
0.174

> <Angle>
1.377

> <Pdih>
3.412

> <Idih>
0.000

> <Tether>
0.000

$$$$
VeraChem MOL file


 20 19  0  0  0  0  0  0  0  0999 V2000     
   18.5920   17.8372   24.4409 N   0  3  0  0  0  0  0  0  0  0  0  0
   17.9221   17.0822   24.2712 H   0  0  0  0  0  0  0  0  0  0  0  0
   18.0889   18.5840   24.9278 H   0  0  0  0  0  0  0  0  0  0  0  0
   19.3009   17.4757   25.0840 H   0  0  0  0  0  0  0  0  0  0  0  0
   19.2073   18.3265   23.1585 C   0  0  2  0  0  0  0  0  0  0  0  0
   18.3801   18.6866   22.5395 H   0  0  0  0  0  0  0  0  0  0  0  0
   19.8983   17.1662   22.4194 C   0  0  0  0  0  0  0  0  0  0  0  0
   20.2301   17.4725   21.4206 H   0  0  0  0  0  0  0  0  0  0  0  0
   19.2068   16.3250   22.2877 H   0  0  0  0  0  0  0  0  0  0  0  0
   20.7718   16.8048   22.9762 H   0  0  0  0  0  0  0  0  0  0  0  0
   20.1723   19.5084   23.4156 C   0  0  0  0  0  0  0  0  0  0  0  0
   19.6484   20.2662   24.0130 H   0  0  0  0  0  0  0  0  0  0  0  0
   21.0134   19.1635   24.0315 H   0  0  0  0  0  0  0  0  0  0  0  0
   20.7263   20.1916   22.1391 C   0  0  0  0  0  0  0  0  0  0  0  0
   21.3691   19.4964   21.5826 H   0  0  0  0  0  0  0  0  0  0  0  0
   21.3762   21.0252   22.4401 H   0  0  0  0  0  0  0  0  0  0  0  0
   19.6153   20.7330   21.2109 C   0  0  0  0  0  0  0  0  0  0  0  0
   18.9572   21.4292   21.7469 H   0  0  0  0  0  0  0  0  0  0  0  0
   18.9986   19.9215   20.8042 H   0  0  0  0  0  0  0  0  0  0  0  0
   20.0531   21.2729   20.3614 H   0  0  0  0  0  0  0  0  0  0  0  0
  1  2  1  0  0  0  0
  1  3  1  0  0  0  0
  1  4  1  0  0  0  0
  1  5  1  0  0  0  0
  5  6  1  0  0  0  0
  5  7  1  0  0  0  0
  7  8  1  0  0  0  0
  7  9  1  0  0  0  0
  7 10  1  0  0  0  0
  5 11  1  0  0  0  0
 11 12  1  0  0  0  0
 11 13  1  0  0  0  0
 11 14  1  0  0  0  0
 14 15  1  0  0  0  0
 14 16  1  0  0  0  0
 14 17  1  0  0  0  0
 17 18  1  0  0  0  0
 17 19  1  0  0  0  0
 17 20  1  0  0  0  0
M  END
> <VConfSearch Rank>
948

> <Conf_Id>
64

> <Delta U+W>
0.544

> <U+W>
-35.732

> <U>
22.800

> <W>
-58.532

> <W(PB)>
-60.437

> <W(SA)>
1.905

> <Valence>
2.662

> <Coulomb>
19.485

> <VdW>
0.653

> <VdW6>
-5.460

> <VdW12>
6.113

> <Bond>
0.174

> <Angle>
1.378

> <Pdih>
1.109

> <Idih>
0.000

> <Tether>
0.000

$$$$
VeraChem MOL file


 20 19  0  0  0  0  0  0  0  0999 V2000     
   17.7150   19.3357   22.7710 N   0  3  0  0  0  0  0  0  0  0  0  0
   18.0389   20.0032   22.0675 H   0  0  0  0  0  0  0  0  0  0  0  0
   17.1156   19.8470   23.4244 H   0  0  0  0  0  0  0  0  0  0  0  0
   17.1262   18.6478   22.2937 H   0  0  0  0  0  0  0  0  0  0  0  0
   18.8687   18.6797   23.4805 C   0  0  2  0  0  0  0  0  0  0  0  0
   18.4221   17.9996   24.2125 H   0  0  0  0  0  0  0  0  0  0  0  0
   19.6934   19.7166   24.2606 C   0  0  0  0  0  0  0  0  0  0  0  0
   20.0631   20.5123   23.6035 H   0  0  0  0  0  0  0  0  0  0  0  0
   20.5515   19.2430   24.7534 H   0  0  0  0  0  0  0  0  0  0  0  0
   19.0801   20.1860   25.0394 H   0  0  0  0  0  0  0  0  0  0  0  0
   19.7314   17.8142   22.5278 C   0  0  0  0  0  0  0  0  0  0  0  0
   20.4453   17.2245   23.1178 H   0  0  0  0  0  0  0  0  0  0  0  0
   19.0652   17.0768   22.0612 H   0  0  0  0  0  0  0  0  0  0  0  0
   20.4820   18.5748   21.3994 C   0  0  0  0  0  0  0  0  0  0  0  0
   19.9205   19.4646   21.0859 H   0  0  0  0  0  0  0  0  0  0  0  0
   20.5285   17.9237   20.5151 H   0  0  0  0  0  0  0  0  0  0  0  0
   21.9311   18.9646   21.7747 C   0  0  0  0  0  0  0  0  0  0  0  0
   21.9670   19.6532   22.6259 H   0  0  0  0  0  0  0  0  0  0  0  0
   22.4262   19.4590   20.9288 H   0  0  0  0  0  0  0  0  0  0  0  0
   22.5228   18.0766   22.0323 H   0  0  0  0  0  0  0  0  0  0  0  0
  1  2  1  0  0  0  0
  1  3  1  0  0  0  0
  1  4  1  0  0  0  0
  1  5  1  0  0  0  0
  5  6  1  0  0  0  0
  5  7  1  0  0  0  0
  7  8  1  0  0  0  0
  7  9  1  0  0  0  0
  7 10  1  0  0  0  0
  5 11  1  0  0  0  0
 11 12  1  0  0  0  0
 11 13  1  0  0  0  0
 11 14  1  0  0  0  0
 14 15  1  0  0  0  0
 14 16  1  0  0  0  0
 14 17  1  0  0  0  0
 17 18  1  0  0  0  0
 17 19  1  0  0  0  0
 17 20  1  0  0  0  0
M  END
> <VConfSearch Rank>
949

> <Conf_Id>
35

> <Delta U+W>
3.004

> <U+W>
-33.272

> <U>
25.367

> <W>
-58.639

> <W(PB)>
-60.512

> <W(SA)>
1.873

> <Valence>
4.943

> <Coulomb>
19.661

> <VdW>
0.764

> <VdW6>
-5.871

> <VdW12>
6.636

> <Bond>
0.230

> <Angle>
1.857

> <Pdih>
2.855

> <Idih>
0.000

> <Tether>
0.000

$$$$
VeraChem MOL file


 20 19  0  0  0  0  0  0  0  0999 V2000     
   18.2829   18.5701   23.5361 N   0  3  0  0  0  0  0  0  0  0  0  0
   17.4361   18.0212   23.3649 H   0  0  0  0  0  0  0  0  0  0  0  0
   18.0756   19.2200   24.2991 H   0  0  0  0  0  0  0  0  0  0  0  0
   19.0060   17.9290   23.8682 H   0  0  0  0  0  0  0  0  0  0  0  0
   18.7282   19.2986   22.2978 C   0  0  2  0  0  0  0  0  0  0  0  0
   17.9016   19.9696   22.0441 H   0  0  0  0  0  0  0  0  0  0  0  0
   18.9139   18.3326   21.1142 C   0  0  0  0  0  0  0  0  0  0  0  0
   19.6668   17.5657   21.3317 H   0  0  0  0  0  0  0  0  0  0  0  0
   19.2260   18.8762   20.2139 H   0  0  0  0  0  0  0  0  0  0  0  0
   17.9712   17.8214   20.8839 H   0  0  0  0  0  0  0  0  0  0  0  0
   19.9738   20.1910   22.5332 C   0  0  0  0  0  0  0  0  0  0  0  0
   20.0341   20.9038   21.7002 H   0  0  0  0  0  0  0  0  0  0  0  0
   19.8078   20.8040   23.4287 H   0  0  0  0  0  0  0  0  0  0  0  0
   21.3504   19.4780   22.6482 C   0  0  0  0  0  0  0  0  0  0  0  0
   22.1235   20.2502   22.7661 H   0  0  0  0  0  0  0  0  0  0  0  0
   21.5915   18.9614   21.7093 H   0  0  0  0  0  0  0  0  0  0  0  0
   21.4684   18.4896   23.8305 C   0  0  0  0  0  0  0  0  0  0  0  0
   21.1505   18.9553   24.7724 H   0  0  0  0  0  0  0  0  0  0  0  0
   22.5107   18.1679   23.9540 H   0  0  0  0  0  0  0  0  0  0  0  0
   20.8714   17.5859   23.6624 H   0  0  0  0  0  0  0  0  0  0  0  0
  1  2  1  0  0  0  0
  1  3  1  0  0  0  0
  1  4  1  0  0  0  0
  1  5  1  0  0  0  0
  5  6  1  0  0  0  0
  5  7  1  0  0  0  0
  7  8  1  0  0  0  0
  7  9  1  0  0  0  0
  7 10  1  0  0  0  0
  5 11  1  0  0  0  0
 11 12  1  0  0  0  0
 11 13  1  0  0  0  0
 11 14  1  0  0  0  0
 14 15  1  0  0  0  0
 14 16  1  0  0  0  0
 14 17  1  0  0  0  0
 17 18  1  0  0  0  0
 17 19  1  0  0  0  0
 17 20  1  0  0  0  0
M  END
> <VConfSearch Rank>
950

> <Conf_Id>
55

> <Delta U+W>
2.767

> <U+W>
-33.509

> <U>
24.552

> <W>
-58.061

> <W(PB)>
-59.930

> <W(SA)>
1.869

> <Valence>
3.726

> <Coulomb>
20.219

> <VdW>
0.606

> <VdW6>
-6.395

> <VdW12>
7.001

> <Bond>
0.241

> <Angle>
2.098

> <Pdih>
1.387

> <Idih>
0.000

> <Tether>
0.000

$$$$
VeraChem MOL file


 20 19  0  0  0  0  0  0  0  0999 V2000     
   19.7634   17.5213   24.0710 N   0  3  0  0  0  0  0  0  0  0  0  0
   20.7602   17.2979   24.0158 H   0  0  0  0  0  0  0  0  0  0  0  0
   19.2833   16.6890   24.4236 H   0  0  0  0  0  0  0  0  0  0  0  0
   19.6514   18.2568   24.7732 H   0  0  0  0  0  0  0  0  0  0  0  0
   19.2188   17.9465   22.7340 C   0  0  2  0  0  0  0  0  0  0  0  0
   18.1575   18.1688   22.8827 H   0  0  0  0  0  0  0  0  0  0  0  0
   19.3321   16.8004   21.7154 C   0  0  0  0  0  0  0  0  0  0  0  0
   18.8127   15.9051   22.0786 H   0  0  0  0  0  0  0  0  0  0  0  0
   20.3806   16.5356   21.5301 H   0  0  0  0  0  0  0  0  0  0  0  0
   18.8769   17.0828   20.7580 H   0  0  0  0  0  0  0  0  0  0  0  0
   19.9067   19.2182   22.1901 C   0  0  0  0  0  0  0  0  0  0  0  0
   20.9798   19.0287   22.0541 H   0  0  0  0  0  0  0  0  0  0  0  0
   19.5002   19.4426   21.1949 H   0  0  0  0  0  0  0  0  0  0  0  0
   19.7048   20.4529   23.1013 C   0  0  0  0  0  0  0  0  0  0  0  0
   20.1539   20.2745   24.0876 H   0  0  0  0  0  0  0  0  0  0  0  0
   18.6309   20.6200   23.2659 H   0  0  0  0  0  0  0  0  0  0  0  0
   20.3313   21.7231   22.4869 C   0  0  0  0  0  0  0  0  0  0  0  0
   21.4118   21.5982   22.3381 H   0  0  0  0  0  0  0  0  0  0  0  0
   20.1802   22.5877   23.1462 H   0  0  0  0  0  0  0  0  0  0  0  0
   19.8775   21.9579   21.5153 H   0  0  0  0  0  0  0  0  0  0  0  0
  1  2  1  0  0  0  0
  1  3  1  0  0  0  0
  1  4  1  0  0  0  0
  1  5  1  0  0  0  0
  5  6  1  0  0  0  0
  5  7  1  0  0  0  0
  7  8  1  0  0  0  0
  7  9  1  0  0  0  0
  7 10  1  0  0  0  0
  5 11  1  0  0  0  0
 11 12  1  0  0  0  0
 11 13  1  0  0  0  0
 11 14  1  0  0  0  0
 14 15  1  0  0  0  0
 14 16  1  0  0  0  0
 14 17  1  0  0  0  0
 17 18  1  0  0  0  0
 17 19  1  0  0  0  0
 17 20  1  0  0  0  0
M  END
> <VConfSearch Rank>
951

> <Conf_Id>
74

> <Delta U+W>
0.000

> <U+W>
-36.276

> <U>
22.080

> <W>
-58.356

> <W(PB)>
-60.289

> <W(SA)>
1.932

> <Valence>
1.885

> <Coulomb>
19.559

> <VdW>
0.637

> <VdW6>
-4.482

> <VdW12>
5.119

> <Bond>
0.136

> <Angle>
0.867

> <Pdih>
0.882

> <Idih>
0.000

> <Tether>
0.000

$$$$
VeraChem MOL file


 20 19  0  0  0  0  0  0  0  0999 V2000     
   21.1638   19.2589   20.8270 N   0  3  0  0  0  0  0  0  0  0  0  0
   21.3945   18.2950   20.5712 H   0  0  0  0  0  0  0  0  0  0  0  0
   21.9719   19.6468   21.3201 H   0  0  0  0  0  0  0  0  0  0  0  0
   21.0577   19.7855   19.9557 H   0  0  0  0  0  0  0  0  0  0  0  0
   19.9182   19.3278   21.6674 C   0  0  2  0  0  0  0  0  0  0  0  0
   19.1141   18.8975   21.0623 H   0  0  0  0  0  0  0  0  0  0  0  0
   19.5629   20.7939   21.9762 C   0  0  0  0  0  0  0  0  0  0  0  0
   19.5171   21.3831   21.0521 H   0  0  0  0  0  0  0  0  0  0  0  0
   20.3099   21.2532   22.6354 H   0  0  0  0  0  0  0  0  0  0  0  0
   18.5824   20.8739   22.4592 H   0  0  0  0  0  0  0  0  0  0  0  0
   20.0629   18.4799   22.9525 C   0  0  0  0  0  0  0  0  0  0  0  0
   20.4209   17.4808   22.6710 H   0  0  0  0  0  0  0  0  0  0  0  0
   20.8365   18.9163   23.5983 H   0  0  0  0  0  0  0  0  0  0  0  0
   18.7451   18.3229   23.7500 C   0  0  0  0  0  0  0  0  0  0  0  0
   17.9536   17.9454   23.0874 H   0  0  0  0  0  0  0  0  0  0  0  0
   18.4082   19.2984   24.1253 H   0  0  0  0  0  0  0  0  0  0  0  0
   18.9138   17.3605   24.9454 C   0  0  0  0  0  0  0  0  0  0  0  0
   19.2093   16.3584   24.6082 H   0  0  0  0  0  0  0  0  0  0  0  0
   17.9721   17.2638   25.5012 H   0  0  0  0  0  0  0  0  0  0  0  0
   19.6796   17.7263   25.6418 H   0  0  0  0  0  0  0  0  0  0  0  0
  1  2  1  0  0  0  0
  1  3  1  0  0  0  0
  1  4  1  0  0  0  0
  1  5  1  0  0  0  0
  5  6  1  0  0  0  0
  5  7  1  0  0  0  0
  7  8  1  0  0  0  0
  7  9  1  0  0  0  0
  7 10  1  0  0  0  0
  5 11  1  0  0  0  0
 11 12  1  0  0  0  0
 11 13  1  0  0  0  0
 11 14  1  0  0  0  0
 14 15  1  0  0  0  0
 14 16  1  0  0  0  0
 14 17  1  0  0  0  0
 17 18  1  0  0  0  0
 17 19  1  0  0  0  0
 17 20  1  0  0  0  0
M  END
> <VConfSearch Rank>
952

> <Conf_Id>
80

> <Delta U+W>
0.460

> <U+W>
-35.817

> <U>
22.495

> <W>
-58.311

> <W(PB)>
-60.259

> <W(SA)>
1.948

> <Valence>
2.419

> <Coulomb>
19.304

> <VdW>
0.772

> <VdW6>
-4.635

> <VdW12>
5.407

> <Bond>
0.149

> <Angle>
1.142

> <Pdih>
1.129

> <Idih>
0.000

> <Tether>
0.000

$$$$
VeraChem MOL file


 20 19  0  0  0  0  0  0  0  0999 V2000     
   21.2505   17.2023   23.5634 N   0  3  0  0  0  0  0  0  0  0  0  0
   22.2194   17.5324   23.5567 H   0  0  0  0  0  0  0  0  0  0  0  0
   21.1345   16.5762   22.7627 H   0  0  0  0  0  0  0  0  0  0  0  0
   21.1288   16.6396   24.4096 H   0  0  0  0  0  0  0  0  0  0  0  0
   20.2735   18.3452   23.5167 C   0  0  2  0  0  0  0  0  0  0  0  0
   20.4679   18.9508   24.4073 H   0  0  0  0  0  0  0  0  0  0  0  0
   18.8315   17.8166   23.6035 C   0  0  0  0  0  0  0  0  0  0  0  0
   18.7227   17.1241   24.4472 H   0  0  0  0  0  0  0  0  0  0  0  0
   18.5463   17.2850   22.6872 H   0  0  0  0  0  0  0  0  0  0  0  0
   18.1223   18.6359   23.7672 H   0  0  0  0  0  0  0  0  0  0  0  0
   20.5151   19.2322   22.2708 C   0  0  0  0  0  0  0  0  0  0  0  0
   21.5725   19.5280   22.2773 H   0  0  0  0  0  0  0  0  0  0  0  0
   20.3754   18.6446   21.3538 H   0  0  0  0  0  0  0  0  0  0  0  0
   19.6630   20.5277   22.2133 C   0  0  0  0  0  0  0  0  0  0  0  0
   20.2770   21.3320   21.7841 H   0  0  0  0  0  0  0  0  0  0  0  0
   19.4011   20.8583   23.2282 H   0  0  0  0  0  0  0  0  0  0  0  0
   18.3894   20.3880   21.3464 C   0  0  0  0  0  0  0  0  0  0  0  0
   18.6466   20.1315   20.3105 H   0  0  0  0  0  0  0  0  0  0  0  0
   17.8333   21.3342   21.3258 H   0  0  0  0  0  0  0  0  0  0  0  0
   17.7132   19.6143   21.7268 H   0  0  0  0  0  0  0  0  0  0  0  0
  1  2  1  0  0  0  0
  1  3  1  0  0  0  0
  1  4  1  0  0  0  0
  1  5  1  0  0  0  0
  5  6  1  0  0  0  0
  5  7  1  0  0  0  0
  7  8  1  0  0  0  0
  7  9  1  0  0  0  0
  7 10  1  0  0  0  0
  5 11  1  0  0  0  0
 11 12  1  0  0  0  0
 11 13  1  0  0  0  0
 11 14  1  0  0  0  0
 14 15  1  0  0  0  0
 14 16  1  0  0  0  0
 14 17  1  0  0  0  0
 17 18  1  0  0  0  0
 17 19  1  0  0  0  0
 17 20  1  0  0  0  0
M  END
> <VConfSearch Rank>
953

> <Conf_Id>
52

> <Delta U+W>
2.995

> <U+W>
-33.282

> <U>
25.224

> <W>
-58.506

> <W(PB)>
-60.411

> <W(SA)>
1.905

> <Valence>
4.945

> <Coulomb>
19.467

> <VdW>
0.813

> <VdW6>
-5.458

> <VdW12>
6.270

> <Bond>
0.200

> <Angle>
1.675

> <Pdih>
3.070

> <Idih>
0.000

> <Tether>
0.000

$$$$
VeraChem MOL file


 20 19  0  0  0  0  0  0  0  0999 V2000     
   19.7078   19.1152   24.3623 N   0  3  0  0  0  0  0  0  0  0  0  0
   18.7136   19.1894   24.5912 H   0  0  0  0  0  0  0  0  0  0  0  0
   20.2337   19.4837   25.1594 H   0  0  0  0  0  0  0  0  0  0  0  0
   19.9291   18.1207   24.2792 H   0  0  0  0  0  0  0  0  0  0  0  0
   20.0354   19.8555   23.0943 C   0  0  2  0  0  0  0  0  0  0  0  0
   21.1160   19.7721   22.9424 H   0  0  0  0  0  0  0  0  0  0  0  0
   19.6860   21.3448   23.2548 C   0  0  0  0  0  0  0  0  0  0  0  0
   18.6070   21.4867   23.3947 H   0  0  0  0  0  0  0  0  0  0  0  0
   19.9942   21.9164   22.3705 H   0  0  0  0  0  0  0  0  0  0  0  0
   20.2026   21.7741   24.1220 H   0  0  0  0  0  0  0  0  0  0  0  0
   19.3233   19.2650   21.8539 C   0  0  0  0  0  0  0  0  0  0  0  0
   18.2608   19.0990   22.0758 H   0  0  0  0  0  0  0  0  0  0  0  0
   19.3481   20.0107   21.0481 H   0  0  0  0  0  0  0  0  0  0  0  0
   19.9615   17.9664   21.2945 C   0  0  0  0  0  0  0  0  0  0  0  0
   21.0119   18.1540   21.0308 H   0  0  0  0  0  0  0  0  0  0  0  0
   19.4540   17.7140   20.3528 H   0  0  0  0  0  0  0  0  0  0  0  0
   19.8765   16.7433   22.2358 C   0  0  0  0  0  0  0  0  0  0  0  0
   20.1613   15.8302   21.6970 H   0  0  0  0  0  0  0  0  0  0  0  0
   18.8559   16.6005   22.6144 H   0  0  0  0  0  0  0  0  0  0  0  0
   20.5620   16.8388   23.0858 H   0  0  0  0  0  0  0  0  0  0  0  0
  1  2  1  0  0  0  0
  1  3  1  0  0  0  0
  1  4  1  0  0  0  0
  1  5  1  0  0  0  0
  5  6  1  0  0  0  0
  5  7  1  0  0  0  0
  7  8  1  0  0  0  0
  7  9  1  0  0  0  0
  7 10  1  0  0  0  0
  5 11  1  0  0  0  0
 11 12  1  0  0  0  0
 11 13  1  0  0  0  0
 11 14  1  0  0  0  0
 14 15  1  0  0  0  0
 14 16  1  0  0  0  0
 14 17  1  0  0  0  0
 17 18  1  0  0  0  0
 17 19  1  0  0  0  0
 17 20  1  0  0  0  0
M  END
> <VConfSearch Rank>
954

> <Conf_Id>
54

> <Delta U+W>
2.752

> <U+W>
-33.525

> <U>
24.337

> <W>
-57.862

> <W(PB)>
-59.764

> <W(SA)>
1.901

> <Valence>
3.593

> <Coulomb>
20.067

> <VdW>
0.677

> <VdW6>
-5.466

> <VdW12>
6.144

> <Bond>
0.191

> <Angle>
1.557

> <Pdih>
1.845

> <Idih>
0.000

> <Tether>
0.000

$$$$
VeraChem MOL file


 20 19  0  0  0  0  0  0  0  0999 V2000     
   19.4419   20.2806   24.2499 N   0  3  0  0  0  0  0  0  0  0  0  0
   19.8647   20.7001   25.0823 H   0  0  0  0  0  0  0  0  0  0  0  0
   18.4317   20.2404   24.4099 H   0  0  0  0  0  0  0  0  0  0  0  0
   19.6043   20.9207   23.4693 H   0  0  0  0  0  0  0  0  0  0  0  0
   20.0124   18.9166   23.9705 C   0  0  2  0  0  0  0  0  0  0  0  0
   19.8064   18.3142   24.8608 H   0  0  0  0  0  0  0  0  0  0  0  0
   21.5405   18.9811   23.7979 C   0  0  0  0  0  0  0  0  0  0  0  0
   21.9523   17.9852   23.5926 H   0  0  0  0  0  0  0  0  0  0  0  0
   22.0144   19.3537   24.7142 H   0  0  0  0  0  0  0  0  0  0  0  0
   21.8288   19.6484   22.9771 H   0  0  0  0  0  0  0  0  0  0  0  0
   19.3208   18.2182   22.7751 C   0  0  0  0  0  0  0  0  0  0  0  0
   19.7193   17.1991   22.6831 H   0  0  0  0  0  0  0  0  0  0  0  0
   18.2543   18.1043   23.0095 H   0  0  0  0  0  0  0  0  0  0  0  0
   19.4673   18.9495   21.4156 C   0  0  0  0  0  0  0  0  0  0  0  0
   20.5270   19.0274   21.1382 H   0  0  0  0  0  0  0  0  0  0  0  0
   19.0816   19.9748   21.4930 H   0  0  0  0  0  0  0  0  0  0  0  0
   18.7103   18.2110   20.2909 C   0  0  0  0  0  0  0  0  0  0  0  0
   18.8249   18.7387   19.3351 H   0  0  0  0  0  0  0  0  0  0  0  0
   17.6371   18.1465   20.5128 H   0  0  0  0  0  0  0  0  0  0  0  0
   19.0942   17.1908   20.1600 H   0  0  0  0  0  0  0  0  0  0  0  0
  1  2  1  0  0  0  0
  1  3  1  0  0  0  0
  1  4  1  0  0  0  0
  1  5  1  0  0  0  0
  5  6  1  0  0  0  0
  5  7  1  0  0  0  0
  7  8  1  0  0  0  0
  7  9  1  0  0  0  0
  7 10  1  0  0  0  0
  5 11  1  0  0  0  0
 11 12  1  0  0  0  0
 11 13  1  0  0  0  0
 11 14  1  0  0  0  0
 14 15  1  0  0  0  0
 14 16  1  0  0  0  0
 14 17  1  0  0  0  0
 17 18  1  0  0  0  0
 17 19  1  0  0  0  0
 17 20  1  0  0  0  0
M  END
> <VConfSearch Rank>
955

> <Conf_Id>
63

> <Delta U+W>
0.420

> <U+W>
-35.856

> <U>
22.625

> <W>
-58.481

> <W(PB)>
-60.400

> <W(SA)>
1.919

> <Valence>
2.404

> <Coulomb>
19.464

> <VdW>
0.757

> <VdW6>
-5.074

> <VdW12>
5.830

> <Bond>
0.172

> <Angle>
1.207

> <Pdih>
1.025

> <Idih>
0.000

> <Tether>
0.000

$$$$
VeraChem MOL file


 20 19  0  0  0  0  0  0  0  0999 V2000     
   20.7318   19.8317   23.9082 N   0  3  0  0  0  0  0  0  0  0  0  0
   20.7456   18.9427   24.4145 H   0  0  0  0  0  0  0  0  0  0  0  0
   20.1860   20.4944   24.4643 H   0  0  0  0  0  0  0  0  0  0  0  0
   21.6938   20.1796   23.8750 H   0  0  0  0  0  0  0  0  0  0  0  0
   20.1568   19.6658   22.5276 C   0  0  2  0  0  0  0  0  0  0  0  0
   20.7968   18.9492   22.0042 H   0  0  0  0  0  0  0  0  0  0  0  0
   20.1995   20.9960   21.7581 C   0  0  0  0  0  0  0  0  0  0  0  0
   21.2254   21.3802   21.7033 H   0  0  0  0  0  0  0  0  0  0  0  0
   19.5753   21.7565   22.2437 H   0  0  0  0  0  0  0  0  0  0  0  0
   19.8389   20.8635   20.7305 H   0  0  0  0  0  0  0  0  0  0  0  0
   18.7173   19.1033   22.5506 C   0  0  0  0  0  0  0  0  0  0  0  0
   18.0553   19.8172   23.0584 H   0  0  0  0  0  0  0  0  0  0  0  0
   18.3485   19.0236   21.5193 H   0  0  0  0  0  0  0  0  0  0  0  0
   18.5875   17.7179   23.2331 C   0  0  0  0  0  0  0  0  0  0  0  0
   17.5336   17.4076   23.2032 H   0  0  0  0  0  0  0  0  0  0  0  0
   18.8498   17.7924   24.2971 H   0  0  0  0  0  0  0  0  0  0  0  0
   19.4500   16.6269   22.5584 C   0  0  0  0  0  0  0  0  0  0  0  0
   19.2053   16.5339   21.4923 H   0  0  0  0  0  0  0  0  0  0  0  0
   19.2724   15.6510   23.0286 H   0  0  0  0  0  0  0  0  0  0  0  0
   20.5216   16.8458   22.6463 H   0  0  0  0  0  0  0  0  0  0  0  0
  1  2  1  0  0  0  0
  1  3  1  0  0  0  0
  1  4  1  0  0  0  0
  1  5  1  0  0  0  0
  5  6  1  0  0  0  0
  5  7  1  0  0  0  0
  7  8  1  0  0  0  0
  7  9  1  0  0  0  0
  7 10  1  0  0  0  0
  5 11  1  0  0  0  0
 11 12  1  0  0  0  0
 11 13  1  0  0  0  0
 11 14  1  0  0  0  0
 14 15  1  0  0  0  0
 14 16  1  0  0  0  0
 14 17  1  0  0  0  0
 17 18  1  0  0  0  0
 17 19  1  0  0  0  0
 17 20  1  0  0  0  0
M  END
> <VConfSearch Rank>
956

> <Conf_Id>
50

> <Delta U+W>
0.466

> <U+W>
-35.811

> <U>
22.369

> <W>
-58.180

> <W(PB)>
-60.103

> <W(SA)>
1.923

> <Valence>
2.168

> <Coulomb>
19.636

> <VdW>
0.566

> <VdW6>
-5.263

> <VdW12>
5.829

> <Bond>
0.162

> <Angle>
1.066

> <Pdih>
0.939

> <Idih>
0.000

> <Tether>
0.000

$$$$
VeraChem MOL file


 20 19  0  0  0  0  0  0  0  0999 V2000     
   18.6356   20.9168   22.4157 N   0  3  0  0  0  0  0  0  0  0  0  0
   19.1035   21.3180   21.5983 H   0  0  0  0  0  0  0  0  0  0  0  0
   18.8611   21.5081   23.2197 H   0  0  0  0  0  0  0  0  0  0  0  0
   17.6277   20.9936   22.2548 H   0  0  0  0  0  0  0  0  0  0  0  0
   19.0492   19.4885   22.6466 C   0  0  2  0  0  0  0  0  0  0  0  0
   18.7728   18.9409   21.7402 H   0  0  0  0  0  0  0  0  0  0  0  0
   18.2685   18.8997   23.8365 C   0  0  0  0  0  0  0  0  0  0  0  0
   18.4808   19.4518   24.7605 H   0  0  0  0  0  0  0  0  0  0  0  0
   18.5253   17.8485   24.0064 H   0  0  0  0  0  0  0  0  0  0  0  0
   17.1883   18.9502   23.6526 H   0  0  0  0  0  0  0  0  0  0  0  0
   20.5794   19.3541   22.8428 C   0  0  0  0  0  0  0  0  0  0  0  0
   21.0703   20.2647   22.4746 H   0  0  0  0  0  0  0  0  0  0  0  0
   20.8257   19.2974   23.9115 H   0  0  0  0  0  0  0  0  0  0  0  0
   21.2061   18.1549   22.0872 C   0  0  0  0  0  0  0  0  0  0  0  0
   22.2965   18.1869   22.2211 H   0  0  0  0  0  0  0  0  0  0  0  0
   21.0279   18.2668   21.0084 H   0  0  0  0  0  0  0  0  0  0  0  0
   20.6890   16.7752   22.5514 C   0  0  0  0  0  0  0  0  0  0  0  0
   20.8138   16.6491   23.6347 H   0  0  0  0  0  0  0  0  0  0  0  0
   21.2458   15.9702   22.0546 H   0  0  0  0  0  0  0  0  0  0  0  0
   19.6286   16.6406   22.3043 H   0  0  0  0  0  0  0  0  0  0  0  0
  1  2  1  0  0  0  0
  1  3  1  0  0  0  0
  1  4  1  0  0  0  0
  1  5  1  0  0  0  0
  5  6  1  0  0  0  0
  5  7  1  0  0  0  0
  7  8  1  0  0  0  0
  7  9  1  0  0  0  0
  7 10  1  0  0  0  0
  5 11  1  0  0  0  0
 11 12  1  0  0  0  0
 11 13  1  0  0  0  0
 11 14  1  0  0  0  0
 14 15  1  0  0  0  0
 14 16  1  0  0  0  0
 14 17  1  0  0  0  0
 17 18  1  0  0  0  0
 17 19  1  0  0  0  0
 17 20  1  0  0  0  0
M  END
> <VConfSearch Rank>
957

> <Conf_Id>
3

> <Delta U+W>
3.093

> <U+W>
-33.184

> <U>
25.256

> <W>
-58.439

> <W(PB)>
-60.337

> <W(SA)>
1.898

> <Valence>
4.963

> <Coulomb>
19.511

> <VdW>
0.782

> <VdW6>
-5.429

> <VdW12>
6.211

> <Bond>
0.174

> <Angle>
1.377

> <Pdih>
3.412

> <Idih>
0.000

> <Tether>
0.000

$$$$
VeraChem MOL file


 20 19  0  0  0  0  0  0  0  0999 V2000     
   20.2301   16.7894   22.2371 N   0  3  0  0  0  0  0  0  0  0  0  0
   20.7433   16.1733   22.8732 H   0  0  0  0  0  0  0  0  0  0  0  0
   20.7981   16.8917   21.3916 H   0  0  0  0  0  0  0  0  0  0  0  0
   19.3700   16.3034   21.9714 H   0  0  0  0  0  0  0  0  0  0  0  0
   19.9386   18.1202   22.8746 C   0  0  2  0  0  0  0  0  0  0  0  0
   20.9089   18.5590   23.1256 H   0  0  0  0  0  0  0  0  0  0  0  0
   19.1410   17.9266   24.1771 C   0  0  0  0  0  0  0  0  0  0  0  0
   19.0404   18.8703   24.7257 H   0  0  0  0  0  0  0  0  0  0  0  0
   19.6510   17.2181   24.8412 H   0  0  0  0  0  0  0  0  0  0  0  0
   18.1354   17.5385   23.9731 H   0  0  0  0  0  0  0  0  0  0  0  0
   19.2173   19.0682   21.8870 C   0  0  0  0  0  0  0  0  0  0  0  0
   19.7905   19.1028   20.9511 H   0  0  0  0  0  0  0  0  0  0  0  0
   18.2372   18.6460   21.6281 H   0  0  0  0  0  0  0  0  0  0  0  0
   19.0249   20.5202   22.3947 C   0  0  0  0  0  0  0  0  0  0  0  0
   18.3439   20.5362   23.2562 H   0  0  0  0  0  0  0  0  0  0  0  0
   18.5273   21.1048   21.6083 H   0  0  0  0  0  0  0  0  0  0  0  0
   20.3554   21.2130   22.7674 C   0  0  0  0  0  0  0  0  0  0  0  0
   21.0546   21.2068   21.9211 H   0  0  0  0  0  0  0  0  0  0  0  0
   20.8420   20.7204   23.6186 H   0  0  0  0  0  0  0  0  0  0  0  0
   20.1787   22.2595   23.0481 H   0  0  0  0  0  0  0  0  0  0  0  0
  1  2  1  0  0  0  0
  1  3  1  0  0  0  0
  1  4  1  0  0  0  0
  1  5  1  0  0  0  0
  5  6  1  0  0  0  0
  5  7  1  0  0  0  0
  7  8  1  0  0  0  0
  7  9  1  0  0  0  0
  7 10  1  0  0  0  0
  5 11  1  0  0  0  0
 11 12  1  0  0  0  0
 11 13  1  0  0  0  0
 11 14  1  0  0  0  0
 14 15  1  0  0  0  0
 14 16  1  0  0  0  0
 14 17  1  0  0  0  0
 17 18  1  0  0  0  0
 17 19  1  0  0  0  0
 17 20  1  0  0  0  0
M  END
> <VConfSearch Rank>
958

> <Conf_Id>
64

> <Delta U+W>
0.544

> <U+W>
-35.732

> <U>
22.800

> <W>
-58.532

> <W(PB)>
-60.437

> <W(SA)>
1.905

> <Valence>
2.662

> <Coulomb>
19.485

> <VdW>
0.653

> <VdW6>
-5.460

> <VdW12>
6.113

> <Bond>
0.174

> <Angle>
1.378

> <Pdih>
1.109

> <Idih>
0.000

> <Tether>
0.000

$$$$
VeraChem MOL file


 20 19  0  0  0  0  0  0  0  0999 V2000     
   20.2628   20.7888   21.8378 N   0  3  0  0  0  0  0  0  0  0  0  0
   20.8917   20.7616   22.6434 H   0  0  0  0  0  0  0  0  0  0  0  0
   19.8092   21.7063   21.8349 H   0  0  0  0  0  0  0  0  0  0  0  0
   20.8407   20.7333   20.9948 H   0  0  0  0  0  0  0  0  0  0  0  0
   19.2518   19.6753   21.8902 C   0  0  2  0  0  0  0  0  0  0  0  0
   18.6260   19.7973   21.0006 H   0  0  0  0  0  0  0  0  0  0  0  0
   18.3380   19.8220   23.1179 C   0  0  0  0  0  0  0  0  0  0  0  0
   18.9167   19.8449   24.0487 H   0  0  0  0  0  0  0  0  0  0  0  0
   17.6205   18.9940   23.1724 H   0  0  0  0  0  0  0  0  0  0  0  0
   17.7649   20.7553   23.0592 H   0  0  0  0  0  0  0  0  0  0  0  0
   19.9101   18.2762   21.7907 C   0  0  0  0  0  0  0  0  0  0  0  0
   19.1300   17.5152   21.6573 H   0  0  0  0  0  0  0  0  0  0  0  0
   20.4952   18.2545   20.8619 H   0  0  0  0  0  0  0  0  0  0  0  0
   20.8452   17.8719   22.9643 C   0  0  0  0  0  0  0  0  0  0  0  0
   21.3340   18.7543   23.3978 H   0  0  0  0  0  0  0  0  0  0  0  0
   21.6560   17.2486   22.5618 H   0  0  0  0  0  0  0  0  0  0  0  0
   20.1320   17.0607   24.0716 C   0  0  0  0  0  0  0  0  0  0  0  0
   19.3339   17.6341   24.5556 H   0  0  0  0  0  0  0  0  0  0  0  0
   20.8464   16.7660   24.8512 H   0  0  0  0  0  0  0  0  0  0  0  0
   19.6896   16.1428   23.6631 H   0  0  0  0  0  0  0  0  0  0  0  0
  1  2  1  0  0  0  0
  1  3  1  0  0  0  0
  1  4  1  0  0  0  0
  1  5  1  0  0  0  0
  5  6  1  0  0  0  0
  5  7  1  0  0  0  0
  7  8  1  0  0  0  0
  7  9  1  0  0  0  0
  7 10  1  0  0  0  0
  5 11  1  0  0  0  0
 11 12  1  0  0  0  0
 11 13  1  0  0  0  0
 11 14  1  0  0  0  0
 14 15  1  0  0  0  0
 14 16  1  0  0  0  0
 14 17  1  0  0  0  0
 17 18  1  0  0  0  0
 17 19  1  0  0  0  0
 17 20  1  0  0  0  0
M  END
> <VConfSearch Rank>
959

> <Conf_Id>
35

> <Delta U+W>
3.004

> <U+W>
-33.272

> <U>
25.367

> <W>
-58.639

> <W(PB)>
-60.512

> <W(SA)>
1.873

> <Valence>
4.943

> <Coulomb>
19.661

> <VdW>
0.764

> <VdW6>
-5.871

> <VdW12>
6.636

> <Bond>
0.230

> <Angle>
1.857

> <Pdih>
2.855

> <Idih>
0.000

> <Tether>
0.000

$$$$
VeraChem MOL file


 20 19  0  0  0  0  0  0  0  0999 V2000     
   19.4545   19.2398   24.4247 N   0  3  0  0  0  0  0  0  0  0  0  0
   18.7055   19.6320   25.0016 H   0  0  0  0  0  0  0  0  0  0  0  0
   20.2974   19.2025   25.0041 H   0  0  0  0  0  0  0  0  0  0  0  0
   19.1979   18.2777   24.1957 H   0  0  0  0  0  0  0  0  0  0  0  0
   19.6772   20.0549   23.1803 C   0  0  2  0  0  0  0  0  0  0  0  0
   19.9691   21.0487   23.5339 H   0  0  0  0  0  0  0  0  0  0  0  0
   18.3753   20.2189   22.3761 C   0  0  0  0  0  0  0  0  0  0  0  0
   17.9670   19.2502   22.0646 H   0  0  0  0  0  0  0  0  0  0  0  0
   18.5467   20.8254   21.4782 H   0  0  0  0  0  0  0  0  0  0  0  0
   17.6124   20.7261   22.9793 H   0  0  0  0  0  0  0  0  0  0  0  0
   20.8467   19.5274   22.3101 C   0  0  0  0  0  0  0  0  0  0  0  0
   21.1368   20.3313   21.6208 H   0  0  0  0  0  0  0  0  0  0  0  0
   21.7223   19.3651   22.9522 H   0  0  0  0  0  0  0  0  0  0  0  0
   20.5866   18.2486   21.4654 C   0  0  0  0  0  0  0  0  0  0  0  0
   21.4924   18.0394   20.8791 H   0  0  0  0  0  0  0  0  0  0  0  0
   19.7947   18.4343   20.7272 H   0  0  0  0  0  0  0  0  0  0  0  0
   20.2422   16.9885   22.2914 C   0  0  0  0  0  0  0  0  0  0  0  0
   20.9730   16.8266   23.0944 H   0  0  0  0  0  0  0  0  0  0  0  0
   20.2522   16.0986   21.6486 H   0  0  0  0  0  0  0  0  0  0  0  0
   19.2406   17.0554   22.7314 H   0  0  0  0  0  0  0  0  0  0  0  0
  1  2  1  0  0  0  0
  1  3  1  0  0  0  0
  1  4  1  0  0  0  0
  1  5  1  0  0  0  0
  5  6  1  0  0  0  0
  5  7  1  0  0  0  0
  7  8  1  0  0  0  0
  7  9  1  0  0  0  0
  7 10  1  0  0  0  0
  5 11  1  0  0  0  0
 11 12  1  0  0  0  0
 11 13  1  0  0  0  0
 11 14  1  0  0  0  0
 14 15  1  0  0  0  0
 14 16  1  0  0  0  0
 14 17  1  0  0  0  0
 17 18  1  0  0  0  0
 17 19  1  0  0  0  0
 17 20  1  0  0  0  0
M  END
> <VConfSearch Rank>
960

> <Conf_Id>
55

> <Delta U+W>
2.767

> <U+W>
-33.509

> <U>
24.552

> <W>
-58.061

> <W(PB)>
-59.930

> <W(SA)>
1.869

> <Valence>
3.726

> <Coulomb>
20.219

> <VdW>
0.606

> <VdW6>
-6.395

> <VdW12>
7.001

> <Bond>
0.241

> <Angle>
2.098

> <Pdih>
1.387

> <Idih>
0.000

> <Tether>
0.000

$$$$
VeraChem MOL file


 20 19  0  0  0  0  0  0  0  0999 V2000     
   18.8026   20.6672   22.4585 N   0  3  0  0  0  0  0  0  0  0  0  0
   18.8074   20.6685   21.4355 H   0  0  0  0  0  0  0  0  0  0  0  0
   18.7229   21.6407   22.7645 H   0  0  0  0  0  0  0  0  0  0  0  0
   17.9538   20.1832   22.7615 H   0  0  0  0  0  0  0  0  0  0  0  0
   20.0392   20.0144   23.0149 C   0  0  2  0  0  0  0  0  0  0  0  0
   19.9515   20.0517   24.1052 H   0  0  0  0  0  0  0  0  0  0  0  0
   21.2955   20.8009   22.6061 C   0  0  0  0  0  0  0  0  0  0  0  0
   21.2255   21.8443   22.9373 H   0  0  0  0  0  0  0  0  0  0  0  0
   21.4306   20.7963   21.5173 H   0  0  0  0  0  0  0  0  0  0  0  0
   22.1935   20.3670   23.0634 H   0  0  0  0  0  0  0  0  0  0  0  0
   20.1709   18.5347   22.5916 C   0  0  0  0  0  0  0  0  0  0  0  0
   20.2369   18.4674   21.4975 H   0  0  0  0  0  0  0  0  0  0  0  0
   21.1147   18.1359   22.9870 H   0  0  0  0  0  0  0  0  0  0  0  0
   19.0049   17.6531   23.1005 C   0  0  0  0  0  0  0  0  0  0  0  0
   18.0536   17.9978   22.6731 H   0  0  0  0  0  0  0  0  0  0  0  0
   18.9170   17.7492   24.1919 H   0  0  0  0  0  0  0  0  0  0  0  0
   19.2111   16.1679   22.7333 C   0  0  0  0  0  0  0  0  0  0  0  0
   19.2725   16.0348   21.6453 H   0  0  0  0  0  0  0  0  0  0  0  0
   18.3753   15.5581   23.1002 H   0  0  0  0  0  0  0  0  0  0  0  0
   20.1346   15.7748   23.1782 H   0  0  0  0  0  0  0  0  0  0  0  0
  1  2  1  0  0  0  0
  1  3  1  0  0  0  0
  1  4  1  0  0  0  0
  1  5  1  0  0  0  0
  5  6  1  0  0  0  0
  5  7  1  0  0  0  0
  7  8  1  0  0  0  0
  7  9  1  0  0  0  0
  7 10  1  0  0  0  0
  5 11  1  0  0  0  0
 11 12  1  0  0  0  0
 11 13  1  0  0  0  0
 11 14  1  0  0  0  0
 14 15  1  0  0  0  0
 14 16  1  0  0  0  0
 14 17  1  0  0  0  0
 17 18  1  0  0  0  0
 17 19  1  0  0  0  0
 17 20  1  0  0  0  0
M  END
> <VConfSearch Rank>
961

> <Conf_Id>
74

> <Delta U+W>
0.000

> <U+W>
-36.276

> <U>
22.080

> <W>
-58.356

> <W(PB)>
-60.289

> <W(SA)>
1.932

> <Valence>
1.885

> <Coulomb>
19.559

> <VdW>
0.637

> <VdW6>
-4.482

> <VdW12>
5.119

> <Bond>
0.136

> <Angle>
0.867

> <Pdih>
0.882

> <Idih>
0.000

> <Tether>
0.000

$$$$
VeraChem MOL file


 20 19  0  0  0  0  0  0  0  0999 V2000     
   20.2829   19.6050   24.9503 N   0  3  0  0  0  0  0  0  0  0  0  0
   19.8342   20.5233   25.0069 H   0  0  0  0  0  0  0  0  0  0  0  0
   21.2846   19.7615   24.8132 H   0  0  0  0  0  0  0  0  0  0  0  0
   20.1674   19.1556   25.8627 H   0  0  0  0  0  0  0  0  0  0  0  0
   19.6980   18.7678   23.8460 C   0  0  2  0  0  0  0  0  0  0  0  0
   18.6346   18.6521   24.0774 H   0  0  0  0  0  0  0  0  0  0  0  0
   20.3475   17.3718   23.8332 C   0  0  0  0  0  0  0  0  0  0  0  0
   20.2918   16.9107   24.8270 H   0  0  0  0  0  0  0  0  0  0  0  0
   21.4041   17.4279   23.5434 H   0  0  0  0  0  0  0  0  0  0  0  0
   19.8348   16.6993   23.1360 H   0  0  0  0  0  0  0  0  0  0  0  0
   19.8206   19.4804   22.4790 C   0  0  0  0  0  0  0  0  0  0  0  0
   19.4386   20.5043   22.5855 H   0  0  0  0  0  0  0  0  0  0  0  0
   20.8796   19.5713   22.2031 H   0  0  0  0  0  0  0  0  0  0  0  0
   19.0421   18.7818   21.3375 C   0  0  0  0  0  0  0  0  0  0  0  0
   17.9956   18.6339   21.6390 H   0  0  0  0  0  0  0  0  0  0  0  0
   19.4619   17.7857   21.1438 H   0  0  0  0  0  0  0  0  0  0  0  0
   19.0868   19.6038   20.0314 C   0  0  0  0  0  0  0  0  0  0  0  0
   18.6355   20.5947   20.1715 H   0  0  0  0  0  0  0  0  0  0  0  0
   18.5337   19.0928   19.2326 H   0  0  0  0  0  0  0  0  0  0  0  0
   20.1202   19.7443   19.6884 H   0  0  0  0  0  0  0  0  0  0  0  0
  1  2  1  0  0  0  0
  1  3  1  0  0  0  0
  1  4  1  0  0  0  0
  1  5  1  0  0  0  0
  5  6  1  0  0  0  0
  5  7  1  0  0  0  0
  7  8  1  0  0  0  0
  7  9  1  0  0  0  0
  7 10  1  0  0  0  0
  5 11  1  0  0  0  0
 11 12  1  0  0  0  0
 11 13  1  0  0  0  0
 11 14  1  0  0  0  0
 14 15  1  0  0  0  0
 14 16  1  0  0  0  0
 14 17  1  0  0  0  0
 17 18  1  0  0  0  0
 17 19  1  0  0  0  0
 17 20  1  0  0  0  0
M  END
> <VConfSearch Rank>
962

> <Conf_Id>
80

> <Delta U+W>
0.460

> <U+W>
-35.817

> <U>
22.495

> <W>
-58.311

> <W(PB)>
-60.259

> <W(SA)>
1.948

> <Valence>
2.419

> <Coulomb>
19.304

> <VdW>
0.772

> <VdW6>
-4.635

> <VdW12>
5.407

> <Bond>
0.149

> <Angle>
1.142

> <Pdih>
1.129

> <Idih>
0.000

> <Tether>
0.000

$$$$
VeraChem MOL file


 20 19  0  0  0  0  0  0  0  0999 V2000     
   18.1979   17.1548   23.3217 N   0  3  0  0  0  0  0  0  0  0  0  0
   17.7184   17.3736   24.1993 H   0  0  0  0  0  0  0  0  0  0  0  0
   18.9169   16.4578   23.5309 H   0  0  0  0  0  0  0  0  0  0  0  0
   17.5125   16.7094   22.7058 H   0  0  0  0  0  0  0  0  0  0  0  0
   18.7889   18.3851   22.6894 C   0  0  2  0  0  0  0  0  0  0  0  0
   17.9516   19.0636   22.4985 H   0  0  0  0  0  0  0  0  0  0  0  0
   19.4350   18.0315   21.3390 C   0  0  0  0  0  0  0  0  0  0  0  0
   18.7397   17.4562   20.7155 H   0  0  0  0  0  0  0  0  0  0  0  0
   20.3441   17.4332   21.4770 H   0  0  0  0  0  0  0  0  0  0  0  0
   19.6944   18.9371   20.7788 H   0  0  0  0  0  0  0  0  0  0  0  0
   19.7682   19.0920   23.6582 C   0  0  0  0  0  0  0  0  0  0  0  0
   19.2305   19.2687   24.5991 H   0  0  0  0  0  0  0  0  0  0  0  0
   20.6007   18.4223   23.9117 H   0  0  0  0  0  0  0  0  0  0  0  0
   20.3106   20.4581   23.1609 C   0  0  0  0  0  0  0  0  0  0  0  0
   20.3955   21.1357   24.0221 H   0  0  0  0  0  0  0  0  0  0  0  0
   19.5904   20.9293   22.4774 H   0  0  0  0  0  0  0  0  0  0  0  0
   21.7028   20.3609   22.4936 C   0  0  0  0  0  0  0  0  0  0  0  0
   22.4465   19.9610   23.1950 H   0  0  0  0  0  0  0  0  0  0  0  0
   22.0465   21.3539   22.1759 H   0  0  0  0  0  0  0  0  0  0  0  0
   21.6930   19.7148   21.6088 H   0  0  0  0  0  0  0  0  0  0  0  0
  1  2  1  0  0  0  0
  1  3  1  0  0  0  0
  1  4  1  0  0  0  0
  1  5  1  0  0  0  0
  5  6  1  0  0  0  0
  5  7  1  0  0  0  0
  7  8  1  0  0  0  0
  7  9  1  0  0  0  0
  7 10  1  0  0  0  0
  5 11  1  0  0  0  0
 11 12  1  0  0  0  0
 11 13  1  0  0  0  0
 11 14  1  0  0  0  0
 14 15  1  0  0  0  0
 14 16  1  0  0  0  0
 14 17  1  0  0  0  0
 17 18  1  0  0  0  0
 17 19  1  0  0  0  0
 17 20  1  0  0  0  0
M  END
> <VConfSearch Rank>
963

> <Conf_Id>
52

> <Delta U+W>
2.995

> <U+W>
-33.282

> <U>
25.224

> <W>
-58.506

> <W(PB)>
-60.411

> <W(SA)>
1.905

> <Valence>
4.945

> <Coulomb>
19.467

> <VdW>
0.813

> <VdW6>
-5.458

> <VdW12>
6.270

> <Bond>
0.200

> <Angle>
1.675

> <Pdih>
3.070

> <Idih>
0.000

> <Tether>
0.000

$$$$
VeraChem MOL file


 20 19  0  0  0  0  0  0  0  0999 V2000     
   18.3891   18.5761   21.9782 N   0  3  0  0  0  0  0  0  0  0  0  0
   18.1804   17.6400   22.3339 H   0  0  0  0  0  0  0  0  0  0  0  0
   17.8991   18.6805   21.0856 H   0  0  0  0  0  0  0  0  0  0  0  0
   17.9851   19.2492   22.6330 H   0  0  0  0  0  0  0  0  0  0  0  0
   19.8706   18.7864   21.8233 C   0  0  2  0  0  0  0  0  0  0  0  0
   20.0116   19.7840   21.3959 H   0  0  0  0  0  0  0  0  0  0  0  0
   20.4433   17.7552   20.8361 C   0  0  0  0  0  0  0  0  0  0  0  0
   20.3414   16.7342   21.2248 H   0  0  0  0  0  0  0  0  0  0  0  0
   21.5072   17.9442   20.6464 H   0  0  0  0  0  0  0  0  0  0  0  0
   19.9215   17.8079   19.8726 H   0  0  0  0  0  0  0  0  0  0  0  0
   20.6295   18.7230   23.1702 C   0  0  0  0  0  0  0  0  0  0  0  0
   20.3064   17.8424   23.7410 H   0  0  0  0  0  0  0  0  0  0  0  0
   21.6973   18.5707   22.9635 H   0  0  0  0  0  0  0  0  0  0  0  0
   20.5108   19.9992   24.0442 C   0  0  0  0  0  0  0  0  0  0  0  0
   20.8803   20.8684   23.4822 H   0  0  0  0  0  0  0  0  0  0  0  0
   21.1843   19.8877   24.9056 H   0  0  0  0  0  0  0  0  0  0  0  0
   19.0888   20.2938   24.5736 C   0  0  0  0  0  0  0  0  0  0  0  0
   19.1245   21.0825   25.3365 H   0  0  0  0  0  0  0  0  0  0  0  0
   18.6425   19.4041   25.0367 H   0  0  0  0  0  0  0  0  0  0  0  0
   18.4266   20.6511   23.7766 H   0  0  0  0  0  0  0  0  0  0  0  0
  1  2  1  0  0  0  0
  1  3  1  0  0  0  0
  1  4  1  0  0  0  0
  1  5  1  0  0  0  0
  5  6  1  0  0  0  0
  5  7  1  0  0  0  0
  7  8  1  0  0  0  0
  7  9  1  0  0  0  0
  7 10  1  0  0  0  0
  5 11  1  0  0  0  0
 11 12  1  0  0  0  0
 11 13  1  0  0  0  0
 11 14  1  0  0  0  0
 14 15  1  0  0  0  0
 14 16  1  0  0  0  0
 14 17  1  0  0  0  0
 17 18  1  0  0  0  0
 17 19  1  0  0  0  0
 17 20  1  0  0  0  0
M  END
> <VConfSearch Rank>
964

> <Conf_Id>
54

> <Delta U+W>
2.752

> <U+W>
-33.525

> <U>
24.337

> <W>
-57.862

> <W(PB)>
-59.764

> <W(SA)>
1.901

> <Valence>
3.593

> <Coulomb>
20.067

> <VdW>
0.677

> <VdW6>
-5.466

> <VdW12>
6.144

> <Bond>
0.191

> <Angle>
1.557

> <Pdih>
1.845

> <Idih>
0.000

> <Tether>
0.000

$$$$
VeraChem MOL file


 20 19  0  0  0  0  0  0  0  0999 V2000     
   18.8681   20.7670   22.2552 N   0  3  0  0  0  0  0  0  0  0  0  0
   19.0286   21.7755   22.1849 H   0  0  0  0  0  0  0  0  0  0  0  0
   17.8876   20.6331   22.5165 H   0  0  0  0  0  0  0  0  0  0  0  0
   18.9939   20.3719   21.3206 H   0  0  0  0  0  0  0  0  0  0  0  0
   19.7981   20.1296   23.2516 C   0  0  2  0  0  0  0  0  0  0  0  0
   19.6029   20.6252   24.2078 H   0  0  0  0  0  0  0  0  0  0  0  0
   21.2688   20.3949   22.8836 C   0  0  0  0  0  0  0  0  0  0  0  0
   21.9435   19.9272   23.6113 H   0  0  0  0  0  0  0  0  0  0  0  0
   21.4758   21.4721   22.8838 H   0  0  0  0  0  0  0  0  0  0  0  0
   21.5148   20.0074   21.8880 H   0  0  0  0  0  0  0  0  0  0  0  0
   19.5109   18.6219   23.4504 C   0  0  0  0  0  0  0  0  0  0  0  0
   20.1598   18.2416   24.2504 H   0  0  0  0  0  0  0  0  0  0  0  0
   18.4826   18.5102   23.8183 H   0  0  0  0  0  0  0  0  0  0  0  0
   19.6954   17.7478   22.1830 C   0  0  0  0  0  0  0  0  0  0  0  0
   20.7334   17.8057   21.8291 H   0  0  0  0  0  0  0  0  0  0  0  0
   19.0595   18.1209   21.3690 H   0  0  0  0  0  0  0  0  0  0  0  0
   19.3440   16.2699   22.4584 C   0  0  0  0  0  0  0  0  0  0  0  0
   19.4814   15.6636   21.5536 H   0  0  0  0  0  0  0  0  0  0  0  0
   18.2991   16.1648   22.7781 H   0  0  0  0  0  0  0  0  0  0  0  0
   19.9857   15.8510   23.2445 H   0  0  0  0  0  0  0  0  0  0  0  0
  1  2  1  0  0  0  0
  1  3  1  0  0  0  0
  1  4  1  0  0  0  0
  1  5  1  0  0  0  0
  5  6  1  0  0  0  0
  5  7  1  0  0  0  0
  7  8  1  0  0  0  0
  7  9  1  0  0  0  0
  7 10  1  0  0  0  0
  5 11  1  0  0  0  0
 11 12  1  0  0  0  0
 11 13  1  0  0  0  0
 11 14  1  0  0  0  0
 14 15  1  0  0  0  0
 14 16  1  0  0  0  0
 14 17  1  0  0  0  0
 17 18  1  0  0  0  0
 17 19  1  0  0  0  0
 17 20  1  0  0  0  0
M  END
> <VConfSearch Rank>
965

> <Conf_Id>
63

> <Delta U+W>
0.420

> <U+W>
-35.856

> <U>
22.625

> <W>
-58.481

> <W(PB)>
-60.400

> <W(SA)>
1.919

> <Valence>
2.404

> <Coulomb>
19.464

> <VdW>
0.757

> <VdW6>
-5.074

> <VdW12>
5.830

> <Bond>
0.172

> <Angle>
1.207

> <Pdih>
1.025

> <Idih>
0.000

> <Tether>
0.000

$$$$
VeraChem MOL file


 20 19  0  0  0  0  0  0  0  0999 V2000     
   19.5179   20.7063   23.1198 N   0  3  0  0  0  0  0  0  0  0  0  0
   19.4164   20.4005   24.0909 H   0  0  0  0  0  0  0  0  0  0  0  0
   18.6059   21.0488   22.8077 H   0  0  0  0  0  0  0  0  0  0  0  0
   20.1615   21.5022   23.1155 H   0  0  0  0  0  0  0  0  0  0  0  0
   20.0162   19.5888   22.2439 C   0  0  2  0  0  0  0  0  0  0  0  0
   20.9892   19.2864   22.6426 H   0  0  0  0  0  0  0  0  0  0  0  0
   20.2221   20.0798   20.8017 C   0  0  0  0  0  0  0  0  0  0  0  0
   20.9176   20.9276   20.7755 H   0  0  0  0  0  0  0  0  0  0  0  0
   19.2744   20.4013   20.3520 H   0  0  0  0  0  0  0  0  0  0  0  0
   20.6445   19.2840   20.1757 H   0  0  0  0  0  0  0  0  0  0  0  0
   19.0802   18.3589   22.2652 C   0  0  0  0  0  0  0  0  0  0  0  0
   18.1017   18.6386   21.8528 H   0  0  0  0  0  0  0  0  0  0  0  0
   19.4864   17.5893   21.5954 H   0  0  0  0  0  0  0  0  0  0  0  0
   18.8791   17.7382   23.6710 C   0  0  0  0  0  0  0  0  0  0  0  0
   18.1995   16.8789   23.5829 H   0  0  0  0  0  0  0  0  0  0  0  0
   18.3752   18.4543   24.3341 H   0  0  0  0  0  0  0  0  0  0  0  0
   20.2005   17.2670   24.3200 C   0  0  0  0  0  0  0  0  0  0  0  0
   20.7230   16.5491   23.6744 H   0  0  0  0  0  0  0  0  0  0  0  0
   20.0024   16.7714   25.2793 H   0  0  0  0  0  0  0  0  0  0  0  0
   20.8778   18.1076   24.5161 H   0  0  0  0  0  0  0  0  0  0  0  0
  1  2  1  0  0  0  0
  1  3  1  0  0  0  0
  1  4  1  0  0  0  0
  1  5  1  0  0  0  0
  5  6  1  0  0  0  0
  5  7  1  0  0  0  0
  7  8  1  0  0  0  0
  7  9  1  0  0  0  0
  7 10  1  0  0  0  0
  5 11  1  0  0  0  0
 11 12  1  0  0  0  0
 11 13  1  0  0  0  0
 11 14  1  0  0  0  0
 14 15  1  0  0  0  0
 14 16  1  0  0  0  0
 14 17  1  0  0  0  0
 17 18  1  0  0  0  0
 17 19  1  0  0  0  0
 17 20  1  0  0  0  0
M  END
> <VConfSearch Rank>
966

> <Conf_Id>
50

> <Delta U+W>
0.466

> <U+W>
-35.811

> <U>
22.369

> <W>
-58.180

> <W(PB)>
-60.103

> <W(SA)>
1.923

> <Valence>
2.168

> <Coulomb>
19.636

> <VdW>
0.566

> <VdW6>
-5.263

> <VdW12>
5.829

> <Bond>
0.162

> <Angle>
1.066

> <Pdih>
0.939

> <Idih>
0.000

> <Tether>
0.000

$$$$
VeraChem MOL file


 20 19  0  0  0  0  0  0  0  0999 V2000     
   19.7300   20.9278   21.6677 N   0  3  0  0  0  0  0  0  0  0  0  0
   18.7592   21.0861   21.3839 H   0  0  0  0  0  0  0  0  0  0  0  0
   20.2812   20.7945   20.8160 H   0  0  0  0  0  0  0  0  0  0  0  0
   20.0594   21.7893   22.1116 H   0  0  0  0  0  0  0  0  0  0  0  0
   19.8519   19.7490   22.5952 C   0  0  2  0  0  0  0  0  0  0  0  0
   19.2314   19.9813   23.4663 H   0  0  0  0  0  0  0  0  0  0  0  0
   21.3125   19.5911   23.0573 C   0  0  0  0  0  0  0  0  0  0  0  0
   21.9783   19.4033   22.2058 H   0  0  0  0  0  0  0  0  0  0  0  0
   21.4247   18.7595   23.7614 H   0  0  0  0  0  0  0  0  0  0  0  0
   21.6581   20.5009   23.5631 H   0  0  0  0  0  0  0  0  0  0  0  0
   19.3110   18.4485   21.9515 C   0  0  0  0  0  0  0  0  0  0  0  0
   18.6824   18.7086   21.0895 H   0  0  0  0  0  0  0  0  0  0  0  0
   20.1367   17.8495   21.5448 H   0  0  0  0  0  0  0  0  0  0  0  0
   18.4481   17.5867   22.9079 C   0  0  0  0  0  0  0  0  0  0  0  0
   18.0473   16.7323   22.3447 H   0  0  0  0  0  0  0  0  0  0  0  0
   17.5769   18.1682   23.2410 H   0  0  0  0  0  0  0  0  0  0  0  0
   19.2110   17.0548   24.1413 C   0  0  0  0  0  0  0  0  0  0  0  0
   20.1126   16.5043   23.8427 H   0  0  0  0  0  0  0  0  0  0  0  0
   18.5765   16.3697   24.7183 H   0  0  0  0  0  0  0  0  0  0  0  0
   19.5066   17.8708   24.8125 H   0  0  0  0  0  0  0  0  0  0  0  0
  1  2  1  0  0  0  0
  1  3  1  0  0  0  0
  1  4  1  0  0  0  0
  1  5  1  0  0  0  0
  5  6  1  0  0  0  0
  5  7  1  0  0  0  0
  7  8  1  0  0  0  0
  7  9  1  0  0  0  0
  7 10  1  0  0  0  0
  5 11  1  0  0  0  0
 11 12  1  0  0  0  0
 11 13  1  0  0  0  0
 11 14  1  0  0  0  0
 14 15  1  0  0  0  0
 14 16  1  0  0  0  0
 14 17  1  0  0  0  0
 17 18  1  0  0  0  0
 17 19  1  0  0  0  0
 17 20  1  0  0  0  0
M  END
> <VConfSearch Rank>
967

> <Conf_Id>
3

> <Delta U+W>
3.093

> <U+W>
-33.184

> <U>
25.256

> <W>
-58.439

> <W(PB)>
-60.337

> <W(SA)>
1.898

> <Valence>
4.963

> <Coulomb>
19.511

> <VdW>
0.782

> <VdW6>
-5.429

> <VdW12>
6.211

> <Bond>
0.174

> <Angle>
1.377

> <Pdih>
3.412

> <Idih>
0.000

> <Tether>
0.000

$$$$
VeraChem MOL file


 20 19  0  0  0  0  0  0  0  0999 V2000     
   20.5042   19.8497   20.8435 N   0  3  0  0  0  0  0  0  0  0  0  0
   20.0153   20.5770   20.3148 H   0  0  0  0  0  0  0  0  0  0  0  0
   20.6063   19.0419   20.2230 H   0  0  0  0  0  0  0  0  0  0  0  0
   21.4435   20.2008   21.0463 H   0  0  0  0  0  0  0  0  0  0  0  0
   19.7639   19.4923   22.1031 C   0  0  2  0  0  0  0  0  0  0  0  0
   18.7790   19.1342   21.7887 H   0  0  0  0  0  0  0  0  0  0  0  0
   19.5693   20.7410   22.9824 C   0  0  0  0  0  0  0  0  0  0  0  0
   18.9132   20.5289   23.8346 H   0  0  0  0  0  0  0  0  0  0  0  0
   19.1027   21.5501   22.4073 H   0  0  0  0  0  0  0  0  0  0  0  0
   20.5281   21.1076   23.3693 H   0  0  0  0  0  0  0  0  0  0  0  0
   20.4757   18.3496   22.8660 C   0  0  0  0  0  0  0  0  0  0  0  0
   20.6578   17.5216   22.1684 H   0  0  0  0  0  0  0  0  0  0  0  0
   21.4652   18.6936   23.1950 H   0  0  0  0  0  0  0  0  0  0  0  0
   19.7002   17.7954   24.0885 C   0  0  0  0  0  0  0  0  0  0  0  0
   19.6160   18.5647   24.8678 H   0  0  0  0  0  0  0  0  0  0  0  0
   20.2846   16.9788   24.5352 H   0  0  0  0  0  0  0  0  0  0  0  0
   18.2950   17.2642   23.7245 C   0  0  0  0  0  0  0  0  0  0  0  0
   18.3536   16.4945   22.9439 H   0  0  0  0  0  0  0  0  0  0  0  0
   17.6404   18.0684   23.3656 H   0  0  0  0  0  0  0  0  0  0  0  0
   17.8145   16.8142   24.6030 H   0  0  0  0  0  0  0  0  0  0  0  0
  1  2  1  0  0  0  0
  1  3  1  0  0  0  0
  1  4  1  0  0  0  0
  1  5  1  0  0  0  0
  5  6  1  0  0  0  0
  5  7  1  0  0  0  0
  7  8  1  0  0  0  0
  7  9  1  0  0  0  0
  7 10  1  0  0  0  0
  5 11  1  0  0  0  0
 11 12  1  0  0  0  0
 11 13  1  0  0  0  0
 11 14  1  0  0  0  0
 14 15  1  0  0  0  0
 14 16  1  0  0  0  0
 14 17  1  0  0  0  0
 17 18  1  0  0  0  0
 17 19  1  0  0  0  0
 17 20  1  0  0  0  0
M  END
> <VConfSearch Rank>
968

> <Conf_Id>
64

> <Delta U+W>
0.544

> <U+W>
-35.732

> <U>
22.800

> <W>
-58.532

> <W(PB)>
-60.437

> <W(SA)>
1.905

> <Valence>
2.662

> <Coulomb>
19.485

> <VdW>
0.653

> <VdW6>
-5.460

> <VdW12>
6.113

> <Bond>
0.174

> <Angle>
1.378

> <Pdih>
1.109

> <Idih>
0.000

> <Tether>
0.000

$$$$
VeraChem MOL file


 20 19  0  0  0  0  0  0  0  0999 V2000     
   19.8860   21.0290   22.6358 N   0  3  0  0  0  0  0  0  0  0  0  0
   19.4049   20.8683   23.5235 H   0  0  0  0  0  0  0  0  0  0  0  0
   19.3637   21.7504   22.1314 H   0  0  0  0  0  0  0  0  0  0  0  0
   20.8081   21.4172   22.8520 H   0  0  0  0  0  0  0  0  0  0  0  0
   19.9934   19.7626   21.8300 C   0  0  2  0  0  0  0  0  0  0  0  0
   20.5075   20.0397   20.9043 H   0  0  0  0  0  0  0  0  0  0  0  0
   18.6006   19.2395   21.4427 C   0  0  0  0  0  0  0  0  0  0  0  0
   17.9761   19.0674   22.3271 H   0  0  0  0  0  0  0  0  0  0  0  0
   18.6778   18.3005   20.8809 H   0  0  0  0  0  0  0  0  0  0  0  0
   18.0823   19.9664   20.8055 H   0  0  0  0  0  0  0  0  0  0  0  0
   20.8683   18.6916   22.5290 C   0  0  0  0  0  0  0  0  0  0  0  0
   21.0584   17.8650   21.8318 H   0  0  0  0  0  0  0  0  0  0  0  0
   21.8517   19.1426   22.7159 H   0  0  0  0  0  0  0  0  0  0  0  0
   20.3258   18.1324   23.8737 C   0  0  0  0  0  0  0  0  0  0  0  0
   19.7383   18.8922   24.4056 H   0  0  0  0  0  0  0  0  0  0  0  0
   21.1819   17.9066   24.5250 H   0  0  0  0  0  0  0  0  0  0  0  0
   19.4989   16.8348   23.7149 C   0  0  0  0  0  0  0  0  0  0  0  0
   18.5981   16.9896   23.1111 H   0  0  0  0  0  0  0  0  0  0  0  0
   19.1785   16.4621   24.6965 H   0  0  0  0  0  0  0  0  0  0  0  0
   20.0943   16.0452   23.2386 H   0  0  0  0  0  0  0  0  0  0  0  0
  1  2  1  0  0  0  0
  1  3  1  0  0  0  0
  1  4  1  0  0  0  0
  1  5  1  0  0  0  0
  5  6  1  0  0  0  0
  5  7  1  0  0  0  0
  7  8  1  0  0  0  0
  7  9  1  0  0  0  0
  7 10  1  0  0  0  0
  5 11  1  0  0  0  0
 11 12  1  0  0  0  0
 11 13  1  0  0  0  0
 11 14  1  0  0  0  0
 14 15  1  0  0  0  0
 14 16  1  0  0  0  0
 14 17  1  0  0  0  0
 17 18  1  0  0  0  0
 17 19  1  0  0  0  0
 17 20  1  0  0  0  0
M  END
> <VConfSearch Rank>
969

> <Conf_Id>
35

> <Delta U+W>
3.004

> <U+W>
-33.272

> <U>
25.367

> <W>
-58.639

> <W(PB)>
-60.512

> <W(SA)>
1.873

> <Valence>
4.943

> <Coulomb>
19.661

> <VdW>
0.764

> <VdW6>
-5.871

> <VdW12>
6.636

> <Bond>
0.230

> <Angle>
1.857

> <Pdih>
2.855

> <Idih>
0.000

> <Tether>
0.000

$$$$
VeraChem MOL file


 20 19  0  0  0  0  0  0  0  0999 V2000     
   19.0122   19.4824   24.2101 N   0  3  0  0  0  0  0  0  0  0  0  0
   18.2743   19.1520   24.8377 H   0  0  0  0  0  0  0  0  0  0  0  0
   19.1623   20.4745   24.4121 H   0  0  0  0  0  0  0  0  0  0  0  0
   19.8718   18.9870   24.4544 H   0  0  0  0  0  0  0  0  0  0  0  0
   18.6487   19.2630   22.7671 C   0  0  2  0  0  0  0  0  0  0  0  0
   17.7396   19.8506   22.6053 H   0  0  0  0  0  0  0  0  0  0  0  0
   18.2965   17.7899   22.4945 C   0  0  0  0  0  0  0  0  0  0  0  0
   19.1358   17.1233   22.7259 H   0  0  0  0  0  0  0  0  0  0  0  0
   18.0208   17.6442   21.4428 H   0  0  0  0  0  0  0  0  0  0  0  0
   17.4423   17.4791   23.1083 H   0  0  0  0  0  0  0  0  0  0  0  0
   19.7154   19.8075   21.7827 C   0  0  0  0  0  0  0  0  0  0  0  0
   19.2430   19.8937   20.7953 H   0  0  0  0  0  0  0  0  0  0  0  0
   19.9744   20.8345   22.0715 H   0  0  0  0  0  0  0  0  0  0  0  0
   21.0195   18.9783   21.6142 C   0  0  0  0  0  0  0  0  0  0  0  0
   21.6408   19.4738   20.8551 H   0  0  0  0  0  0  0  0  0  0  0  0
   20.7894   17.9856   21.2038 H   0  0  0  0  0  0  0  0  0  0  0  0
   21.8585   18.8260   22.9032 C   0  0  0  0  0  0  0  0  0  0  0  0
   22.0315   19.7981   23.3831 H   0  0  0  0  0  0  0  0  0  0  0  0
   22.8392   18.3919   22.6689 H   0  0  0  0  0  0  0  0  0  0  0  0
   21.3746   18.1561   23.6232 H   0  0  0  0  0  0  0  0  0  0  0  0
  1  2  1  0  0  0  0
  1  3  1  0  0  0  0
  1  4  1  0  0  0  0
  1  5  1  0  0  0  0
  5  6  1  0  0  0  0
  5  7  1  0  0  0  0
  7  8  1  0  0  0  0
  7  9  1  0  0  0  0
  7 10  1  0  0  0  0
  5 11  1  0  0  0  0
 11 12  1  0  0  0  0
 11 13  1  0  0  0  0
 11 14  1  0  0  0  0
 14 15  1  0  0  0  0
 14 16  1  0  0  0  0
 14 17  1  0  0  0  0
 17 18  1  0  0  0  0
 17 19  1  0  0  0  0
 17 20  1  0  0  0  0
M  END
> <VConfSearch Rank>
970

> <Conf_Id>
55

> <Delta U+W>
2.767

> <U+W>
-33.509

> <U>
24.552

> <W>
-58.061

> <W(PB)>
-59.930

> <W(SA)>
1.869

> <Valence>
3.726

> <Coulomb>
20.219

> <VdW>
0.606

> <VdW6>
-6.395

> <VdW12>
7.001

> <Bond>
0.241

> <Angle>
2.098

> <Pdih>
1.387

> <Idih>
0.000

> <Tether>
0.000

$$$$
VeraChem MOL file


 20 19  0  0  0  0  0  0  0  0999 V2000     
   17.9333   18.3999   22.1760 N   0  3  0  0  0  0  0  0  0  0  0  0
   18.1215   17.3982   22.0874 H   0  0  0  0  0  0  0  0  0  0  0  0
   17.1292   18.6132   21.5797 H   0  0  0  0  0  0  0  0  0  0  0  0
   17.6492   18.5751   23.1431 H   0  0  0  0  0  0  0  0  0  0  0  0
   19.1348   19.2225   21.7955 C   0  0  2  0  0  0  0  0  0  0  0  0
   18.8507   20.2719   21.9218 H   0  0  0  0  0  0  0  0  0  0  0  0
   19.4980   18.9969   20.3187 C   0  0  0  0  0  0  0  0  0  0  0  0
   18.6460   19.2315   19.6688 H   0  0  0  0  0  0  0  0  0  0  0  0
   19.7906   17.9553   20.1359 H   0  0  0  0  0  0  0  0  0  0  0  0
   20.3321   19.6434   20.0189 H   0  0  0  0  0  0  0  0  0  0  0  0
   20.3566   18.9413   22.6979 C   0  0  0  0  0  0  0  0  0  0  0  0
   20.6481   17.8864   22.6076 H   0  0  0  0  0  0  0  0  0  0  0  0
   21.2079   19.5331   22.3359 H   0  0  0  0  0  0  0  0  0  0  0  0
   20.1041   19.2887   24.1849 C   0  0  0  0  0  0  0  0  0  0  0  0
   19.2921   18.6682   24.5874 H   0  0  0  0  0  0  0  0  0  0  0  0
   19.7778   20.3349   24.2704 H   0  0  0  0  0  0  0  0  0  0  0  0
   21.3701   19.0767   25.0426 C   0  0  0  0  0  0  0  0  0  0  0  0
   21.7042   18.0317   25.0019 H   0  0  0  0  0  0  0  0  0  0  0  0
   21.1729   19.3262   26.0932 H   0  0  0  0  0  0  0  0  0  0  0  0
   22.1946   19.7129   24.6951 H   0  0  0  0  0  0  0  0  0  0  0  0
  1  2  1  0  0  0  0
  1  3  1  0  0  0  0
  1  4  1  0  0  0  0
  1  5  1  0  0  0  0
  5  6  1  0  0  0  0
  5  7  1  0  0  0  0
  7  8  1  0  0  0  0
  7  9  1  0  0  0  0
  7 10  1  0  0  0  0
  5 11  1  0  0  0  0
 11 12  1  0  0  0  0
 11 13  1  0  0  0  0
 11 14  1  0  0  0  0
 14 15  1  0  0  0  0
 14 16  1  0  0  0  0
 14 17  1  0  0  0  0
 17 18  1  0  0  0  0
 17 19  1  0  0  0  0
 17 20  1  0  0  0  0
M  END
> <VConfSearch Rank>
971

> <Conf_Id>
74

> <Delta U+W>
0.000

> <U+W>
-36.276

> <U>
22.080

> <W>
-58.356

> <W(PB)>
-60.289

> <W(SA)>
1.932

> <Valence>
1.885

> <Coulomb>
19.559

> <VdW>
0.637

> <VdW6>
-4.482

> <VdW12>
5.119

> <Bond>
0.136

> <Angle>
0.867

> <Pdih>
0.882

> <Idih>
0.000

> <Tether>
0.000

$$$$
VeraChem MOL file


 20 19  0  0  0  0  0  0  0  0999 V2000     
   17.6677   19.0970   23.9030 N   0  3  0  0  0  0  0  0  0  0  0  0
   17.1989   19.8546   23.3990 H   0  0  0  0  0  0  0  0  0  0  0  0
   18.0309   19.4884   24.7757 H   0  0  0  0  0  0  0  0  0  0  0  0
   16.9501   18.4111   24.1528 H   0  0  0  0  0  0  0  0  0  0  0  0
   18.7613   18.4747   23.0790 C   0  0  2  0  0  0  0  0  0  0  0  0
   18.2823   18.0843   22.1757 H   0  0  0  0  0  0  0  0  0  0  0  0
   19.3983   17.2969   23.8392 C   0  0  0  0  0  0  0  0  0  0  0  0
   18.6280   16.5912   24.1736 H   0  0  0  0  0  0  0  0  0  0  0  0
   19.9470   17.6449   24.7231 H   0  0  0  0  0  0  0  0  0  0  0  0
   20.0927   16.7385   23.2011 H   0  0  0  0  0  0  0  0  0  0  0  0
   19.8096   19.5289   22.6531 C   0  0  0  0  0  0  0  0  0  0  0  0
   19.2817   20.3869   22.2163 H   0  0  0  0  0  0  0  0  0  0  0  0
   20.3355   19.9066   23.5400 H   0  0  0  0  0  0  0  0  0  0  0  0
   20.8377   19.0068   21.6199 C   0  0  0  0  0  0  0  0  0  0  0  0
   20.3102   18.5712   20.7596 H   0  0  0  0  0  0  0  0  0  0  0  0
   21.4466   18.2056   22.0594 H   0  0  0  0  0  0  0  0  0  0  0  0
   21.7741   20.1320   21.1293 C   0  0  0  0  0  0  0  0  0  0  0  0
   21.2061   20.9358   20.6429 H   0  0  0  0  0  0  0  0  0  0  0  0
   22.4981   19.7440   20.4011 H   0  0  0  0  0  0  0  0  0  0  0  0
   22.3377   20.5687   21.9642 H   0  0  0  0  0  0  0  0  0  0  0  0
  1  2  1  0  0  0  0
  1  3  1  0  0  0  0
  1  4  1  0  0  0  0
  1  5  1  0  0  0  0
  5  6  1  0  0  0  0
  5  7  1  0  0  0  0
  7  8  1  0  0  0  0
  7  9  1  0  0  0  0
  7 10  1  0  0  0  0
  5 11  1  0  0  0  0
 11 12  1  0  0  0  0
 11 13  1  0  0  0  0
 11 14  1  0  0  0  0
 14 15  1  0  0  0  0
 14 16  1  0  0  0  0
 14 17  1  0  0  0  0
 17 18  1  0  0  0  0
 17 19  1  0  0  0  0
 17 20  1  0  0  0  0
M  END
> <VConfSearch Rank>
972

> <Conf_Id>
80

> <Delta U+W>
0.460

> <U+W>
-35.817

> <U>
22.495

> <W>
-58.311

> <W(PB)>
-60.259

> <W(SA)>
1.948

> <Valence>
2.419

> <Coulomb>
19.304

> <VdW>
0.772

> <VdW6>
-4.635

> <VdW12>
5.407

> <Bond>
0.149

> <Angle>
1.142

> <Pdih>
1.129

> <Idih>
0.000

> <Tether>
0.000

$$$$
VeraChem MOL file


 20 19  0  0  0  0  0  0  0  0999 V2000     
   21.3112   17.6329   24.0606 N   0  3  0  0  0  0  0  0  0  0  0  0
   22.2467   18.0469   24.0236 H   0  0  0  0  0  0  0  0  0  0  0  0
   21.3138   16.8143   23.4469 H   0  0  0  0  0  0  0  0  0  0  0  0
   21.1675   17.2960   25.0164 H   0  0  0  0  0  0  0  0  0  0  0  0
   20.2499   18.6205   23.6593 C   0  0  2  0  0  0  0  0  0  0  0  0
   20.3195   19.4502   24.3696 H   0  0  0  0  0  0  0  0  0  0  0  0
   18.8545   17.9882   23.7983 C   0  0  0  0  0  0  0  0  0  0  0  0
   18.7346   17.5272   24.7864 H   0  0  0  0  0  0  0  0  0  0  0  0
   18.6907   17.2138   23.0387 H   0  0  0  0  0  0  0  0  0  0  0  0
   18.0687   18.7457   23.7000 H   0  0  0  0  0  0  0  0  0  0  0  0
   20.5186   19.1791   22.2405 C   0  0  0  0  0  0  0  0  0  0  0  0
   21.5437   19.5725   22.2302 H   0  0  0  0  0  0  0  0  0  0  0  0
   20.5040   18.3655   21.5033 H   0  0  0  0  0  0  0  0  0  0  0  0
   19.5696   20.3234   21.7959 C   0  0  0  0  0  0  0  0  0  0  0  0
   20.1479   21.0492   21.2070 H   0  0  0  0  0  0  0  0  0  0  0  0
   19.1986   20.8742   22.6716 H   0  0  0  0  0  0  0  0  0  0  0  0
   18.3875   19.8381   20.9240 C   0  0  0  0  0  0  0  0  0  0  0  0
   18.7494   19.3526   20.0083 H   0  0  0  0  0  0  0  0  0  0  0  0
   17.7584   20.6860   20.6237 H   0  0  0  0  0  0  0  0  0  0  0  0
   17.7489   19.1229   21.4543 H   0  0  0  0  0  0  0  0  0  0  0  0
  1  2  1  0  0  0  0
  1  3  1  0  0  0  0
  1  4  1  0  0  0  0
  1  5  1  0  0  0  0
  5  6  1  0  0  0  0
  5  7  1  0  0  0  0
  7  8  1  0  0  0  0
  7  9  1  0  0  0  0
  7 10  1  0  0  0  0
  5 11  1  0  0  0  0
 11 12  1  0  0  0  0
 11 13  1  0  0  0  0
 11 14  1  0  0  0  0
 14 15  1  0  0  0  0
 14 16  1  0  0  0  0
 14 17  1  0  0  0  0
 17 18  1  0  0  0  0
 17 19  1  0  0  0  0
 17 20  1  0  0  0  0
M  END
> <VConfSearch Rank>
973

> <Conf_Id>
52

> <Delta U+W>
2.995

> <U+W>
-33.282

> <U>
25.224

> <W>
-58.506

> <W(PB)>
-60.411

> <W(SA)>
1.905

> <Valence>
4.945

> <Coulomb>
19.467

> <VdW>
0.813

> <VdW6>
-5.458

> <VdW12>
6.270

> <Bond>
0.200

> <Angle>
1.675

> <Pdih>
3.070

> <Idih>
0.000

> <Tether>
0.000

$$$$
VeraChem MOL file


 20 19  0  0  0  0  0  0  0  0999 V2000     
   18.4711   19.3565   23.6791 N   0  3  0  0  0  0  0  0  0  0  0  0
   17.7247   18.7499   23.3308 H   0  0  0  0  0  0  0  0  0  0  0  0
   18.0275   20.1290   24.1832 H   0  0  0  0  0  0  0  0  0  0  0  0
   19.0132   18.8162   24.3568 H   0  0  0  0  0  0  0  0  0  0  0  0
   19.3407   19.8555   22.5575 C   0  0  2  0  0  0  0  0  0  0  0  0
   20.0798   20.5312   22.9989 H   0  0  0  0  0  0  0  0  0  0  0  0
   18.4919   20.6587   21.5574 C   0  0  0  0  0  0  0  0  0  0  0  0
   17.7416   20.0220   21.0721 H   0  0  0  0  0  0  0  0  0  0  0  0
   19.1223   21.1008   20.7758 H   0  0  0  0  0  0  0  0  0  0  0  0
   17.9684   21.4795   22.0629 H   0  0  0  0  0  0  0  0  0  0  0  0
   20.0957   18.7166   21.8316 C   0  0  0  0  0  0  0  0  0  0  0  0
   19.4034   17.8962   21.6007 H   0  0  0  0  0  0  0  0  0  0  0  0
   20.4484   19.0929   20.8620 H   0  0  0  0  0  0  0  0  0  0  0  0
   21.3355   18.1724   22.5888 C   0  0  0  0  0  0  0  0  0  0  0  0
   22.0448   18.9911   22.7744 H   0  0  0  0  0  0  0  0  0  0  0  0
   21.8565   17.4650   21.9283 H   0  0  0  0  0  0  0  0  0  0  0  0
   21.0192   17.4524   23.9196 C   0  0  0  0  0  0  0  0  0  0  0  0
   21.9104   16.9269   24.2870 H   0  0  0  0  0  0  0  0  0  0  0  0
   20.2236   16.7069   23.7914 H   0  0  0  0  0  0  0  0  0  0  0  0
   20.7217   18.1605   24.7016 H   0  0  0  0  0  0  0  0  0  0  0  0
  1  2  1  0  0  0  0
  1  3  1  0  0  0  0
  1  4  1  0  0  0  0
  1  5  1  0  0  0  0
  5  6  1  0  0  0  0
  5  7  1  0  0  0  0
  7  8  1  0  0  0  0
  7  9  1  0  0  0  0
  7 10  1  0  0  0  0
  5 11  1  0  0  0  0
 11 12  1  0  0  0  0
 11 13  1  0  0  0  0
 11 14  1  0  0  0  0
 14 15  1  0  0  0  0
 14 16  1  0  0  0  0
 14 17  1  0  0  0  0
 17 18  1  0  0  0  0
 17 19  1  0  0  0  0
 17 20  1  0  0  0  0
M  END
> <VConfSearch Rank>
974

> <Conf_Id>
54

> <Delta U+W>
2.752

> <U+W>
-33.525

> <U>
24.337

> <W>
-57.862

> <W(PB)>
-59.764

> <W(SA)>
1.901

> <Valence>
3.593

> <Coulomb>
20.067

> <VdW>
0.677

> <VdW6>
-5.466

> <VdW12>
6.144

> <Bond>
0.191

> <Angle>
1.557

> <Pdih>
1.845

> <Idih>
0.000

> <Tether>
0.000

$$$$
VeraChem MOL file


 20 19  0  0  0  0  0  0  0  0999 V2000     
   20.3203   18.8302   20.7133 N   0  3  0  0  0  0  0  0  0  0  0  0
   20.4350   19.3638   19.8474 H   0  0  0  0  0  0  0  0  0  0  0  0
   20.0885   17.8689   20.4492 H   0  0  0  0  0  0  0  0  0  0  0  0
   21.2289   18.8097   21.1819 H   0  0  0  0  0  0  0  0  0  0  0  0
   19.2602   19.4326   21.5949 C   0  0  2  0  0  0  0  0  0  0  0  0
   18.3377   19.4270   21.0059 H   0  0  0  0  0  0  0  0  0  0  0  0
   19.5872   20.8988   21.9301 C   0  0  0  0  0  0  0  0  0  0  0  0
   18.8131   21.3337   22.5743 H   0  0  0  0  0  0  0  0  0  0  0  0
   19.6333   21.5004   21.0141 H   0  0  0  0  0  0  0  0  0  0  0  0
   20.5527   20.9931   22.4409 H   0  0  0  0  0  0  0  0  0  0  0  0
   18.9970   18.5899   22.8660 C   0  0  0  0  0  0  0  0  0  0  0  0
   18.1559   19.0332   23.4153 H   0  0  0  0  0  0  0  0  0  0  0  0
   18.6616   17.5913   22.5569 H   0  0  0  0  0  0  0  0  0  0  0  0
   20.2115   18.4460   23.8191 C   0  0  0  0  0  0  0  0  0  0  0  0
   20.5300   19.4329   24.1808 H   0  0  0  0  0  0  0  0  0  0  0  0
   21.0658   18.0122   23.2822 H   0  0  0  0  0  0  0  0  0  0  0  0
   19.8757   17.5543   25.0337 C   0  0  0  0  0  0  0  0  0  0  0  0
   20.7435   17.4635   25.6999 H   0  0  0  0  0  0  0  0  0  0  0  0
   19.5894   16.5435   24.7151 H   0  0  0  0  0  0  0  0  0  0  0  0
   19.0469   17.9764   25.6168 H   0  0  0  0  0  0  0  0  0  0  0  0
  1  2  1  0  0  0  0
  1  3  1  0  0  0  0
  1  4  1  0  0  0  0
  1  5  1  0  0  0  0
  5  6  1  0  0  0  0
  5  7  1  0  0  0  0
  7  8  1  0  0  0  0
  7  9  1  0  0  0  0
  7 10  1  0  0  0  0
  5 11  1  0  0  0  0
 11 12  1  0  0  0  0
 11 13  1  0  0  0  0
 11 14  1  0  0  0  0
 14 15  1  0  0  0  0
 14 16  1  0  0  0  0
 14 17  1  0  0  0  0
 17 18  1  0  0  0  0
 17 19  1  0  0  0  0
 17 20  1  0  0  0  0
M  END
> <VConfSearch Rank>
975

> <Conf_Id>
63

> <Delta U+W>
0.420

> <U+W>
-35.856

> <U>
22.625

> <W>
-58.481

> <W(PB)>
-60.400

> <W(SA)>
1.919

> <Valence>
2.404

> <Coulomb>
19.464

> <VdW>
0.757

> <VdW6>
-5.074

> <VdW12>
5.830

> <Bond>
0.172

> <Angle>
1.207

> <Pdih>
1.025

> <Idih>
0.000

> <Tether>
0.000

$$$$
VeraChem MOL file


 20 19  0  0  0  0  0  0  0  0999 V2000     
   20.2777   20.4425   21.9566 N   0  3  0  0  0  0  0  0  0  0  0  0
   19.3065   20.5602   21.6569 H   0  0  0  0  0  0  0  0  0  0  0  0
   20.8276   20.1968   21.1298 H   0  0  0  0  0  0  0  0  0  0  0  0
   20.6089   21.3536   22.2848 H   0  0  0  0  0  0  0  0  0  0  0  0
   20.3957   19.3933   23.0287 C   0  0  2  0  0  0  0  0  0  0  0  0
   19.7849   19.7334   23.8705 H   0  0  0  0  0  0  0  0  0  0  0  0
   21.8501   19.2715   23.5118 C   0  0  0  0  0  0  0  0  0  0  0  0
   22.2201   20.2373   23.8771 H   0  0  0  0  0  0  0  0  0  0  0  0
   22.5110   18.9363   22.7027 H   0  0  0  0  0  0  0  0  0  0  0  0
   21.9279   18.5523   24.3366 H   0  0  0  0  0  0  0  0  0  0  0  0
   19.8642   18.0165   22.5695 C   0  0  0  0  0  0  0  0  0  0  0  0
   20.4757   17.6501   21.7342 H   0  0  0  0  0  0  0  0  0  0  0  0
   19.9946   17.2930   23.3852 H   0  0  0  0  0  0  0  0  0  0  0  0
   18.3742   18.0209   22.1429 C   0  0  0  0  0  0  0  0  0  0  0  0
   18.0937   17.0050   21.8313 H   0  0  0  0  0  0  0  0  0  0  0  0
   18.2340   18.6570   21.2584 H   0  0  0  0  0  0  0  0  0  0  0  0
   17.4223   18.4793   23.2712 C   0  0  0  0  0  0  0  0  0  0  0  0
   17.5444   17.8571   24.1674 H   0  0  0  0  0  0  0  0  0  0  0  0
   16.3763   18.3986   22.9482 H   0  0  0  0  0  0  0  0  0  0  0  0
   17.6015   19.5245   23.5527 H   0  0  0  0  0  0  0  0  0  0  0  0
  1  2  1  0  0  0  0
  1  3  1  0  0  0  0
  1  4  1  0  0  0  0
  1  5  1  0  0  0  0
  5  6  1  0  0  0  0
  5  7  1  0  0  0  0
  7  8  1  0  0  0  0
  7  9  1  0  0  0  0
  7 10  1  0  0  0  0
  5 11  1  0  0  0  0
 11 12  1  0  0  0  0
 11 13  1  0  0  0  0
 11 14  1  0  0  0  0
 14 15  1  0  0  0  0
 14 16  1  0  0  0  0
 14 17  1  0  0  0  0
 17 18  1  0  0  0  0
 17 19  1  0  0  0  0
 17 20  1  0  0  0  0
M  END
> <VConfSearch Rank>
976

> <Conf_Id>
50

> <Delta U+W>
0.466

> <U+W>
-35.811

> <U>
22.369

> <W>
-58.180

> <W(PB)>
-60.103

> <W(SA)>
1.923

> <Valence>
2.168

> <Coulomb>
19.636

> <VdW>
0.566

> <VdW6>
-5.263

> <VdW12>
5.829

> <Bond>
0.162

> <Angle>
1.066

> <Pdih>
0.939

> <Idih>
0.000

> <Tether>
0.000

$$$$
VeraChem MOL file


 20 19  0  0  0  0  0  0  0  0999 V2000     
   21.0574   17.0652   22.3959 N   0  3  0  0  0  0  0  0  0  0  0  0
   21.8299   17.1816   23.0575 H   0  0  0  0  0  0  0  0  0  0  0  0
   21.4419   17.1683   21.4534 H   0  0  0  0  0  0  0  0  0  0  0  0
   20.7257   16.1010   22.4854 H   0  0  0  0  0  0  0  0  0  0  0  0
   19.9524   18.0538   22.6534 C   0  0  2  0  0  0  0  0  0  0  0  0
   19.6112   17.8696   23.6768 H   0  0  0  0  0  0  0  0  0  0  0  0
   18.7802   17.7969   21.6882 C   0  0  0  0  0  0  0  0  0  0  0  0
   19.0924   17.9249   20.6443 H   0  0  0  0  0  0  0  0  0  0  0  0
   17.9462   18.4817   21.8759 H   0  0  0  0  0  0  0  0  0  0  0  0
   18.4006   16.7745   21.8051 H   0  0  0  0  0  0  0  0  0  0  0  0
   20.4540   19.5165   22.5689 C   0  0  0  0  0  0  0  0  0  0  0  0
   21.5495   19.5256   22.6423 H   0  0  0  0  0  0  0  0  0  0  0  0
   20.2203   19.9460   21.5855 H   0  0  0  0  0  0  0  0  0  0  0  0
   19.9090   20.4328   23.6937 C   0  0  0  0  0  0  0  0  0  0  0  0
   20.3774   21.4224   23.5978 H   0  0  0  0  0  0  0  0  0  0  0  0
   20.2226   20.0405   24.6713 H   0  0  0  0  0  0  0  0  0  0  0  0
   18.3741   20.6063   23.6797 C   0  0  0  0  0  0  0  0  0  0  0  0
   18.0238   20.9573   22.7003 H   0  0  0  0  0  0  0  0  0  0  0  0
   18.0651   21.3456   24.4300 H   0  0  0  0  0  0  0  0  0  0  0  0
   17.8620   19.6655   23.9168 H   0  0  0  0  0  0  0  0  0  0  0  0
  1  2  1  0  0  0  0
  1  3  1  0  0  0  0
  1  4  1  0  0  0  0
  1  5  1  0  0  0  0
  5  6  1  0  0  0  0
  5  7  1  0  0  0  0
  7  8  1  0  0  0  0
  7  9  1  0  0  0  0
  7 10  1  0  0  0  0
  5 11  1  0  0  0  0
 11 12  1  0  0  0  0
 11 13  1  0  0  0  0
 11 14  1  0  0  0  0
 14 15  1  0  0  0  0
 14 16  1  0  0  0  0
 14 17  1  0  0  0  0
 17 18  1  0  0  0  0
 17 19  1  0  0  0  0
 17 20  1  0  0  0  0
M  END
> <VConfSearch Rank>
977

> <Conf_Id>
3

> <Delta U+W>
3.093

> <U+W>
-33.184

> <U>
25.256

> <W>
-58.439

> <W(PB)>
-60.337

> <W(SA)>
1.898

> <Valence>
4.963

> <Coulomb>
19.511

> <VdW>
0.782

> <VdW6>
-5.429

> <VdW12>
6.211

> <Bond>
0.174

> <Angle>
1.377

> <Pdih>
3.412

> <Idih>
0.000

> <Tether>
0.000

$$$$
VeraChem MOL file


 20 19  0  0  0  0  0  0  0  0999 V2000     
   17.8137   20.1016   23.3796 N   0  3  0  0  0  0  0  0  0  0  0  0
   16.9563   20.1190   22.8209 H   0  0  0  0  0  0  0  0  0  0  0  0
   18.1491   21.0662   23.4487 H   0  0  0  0  0  0  0  0  0  0  0  0
   17.5561   19.7986   24.3222 H   0  0  0  0  0  0  0  0  0  0  0  0
   18.8492   19.1958   22.7716 C   0  0  2  0  0  0  0  0  0  0  0  0
   19.0560   19.5932   21.7734 H   0  0  0  0  0  0  0  0  0  0  0  0
   18.2904   17.7692   22.6207 C   0  0  0  0  0  0  0  0  0  0  0  0
   18.9779   17.1307   22.0540 H   0  0  0  0  0  0  0  0  0  0  0  0
   17.3377   17.7824   22.0774 H   0  0  0  0  0  0  0  0  0  0  0  0
   18.1176   17.3048   23.5995 H   0  0  0  0  0  0  0  0  0  0  0  0
   20.1640   19.2216   23.5870 C   0  0  0  0  0  0  0  0  0  0  0  0
   20.4687   20.2668   23.7292 H   0  0  0  0  0  0  0  0  0  0  0  0
   19.9766   18.8199   24.5916 H   0  0  0  0  0  0  0  0  0  0  0  0
   21.3474   18.4517   22.9467 C   0  0  0  0  0  0  0  0  0  0  0  0
   21.1284   17.3760   22.9114 H   0  0  0  0  0  0  0  0  0  0  0  0
   22.2281   18.5573   23.5956 H   0  0  0  0  0  0  0  0  0  0  0  0
   21.7051   18.9589   21.5311 C   0  0  0  0  0  0  0  0  0  0  0  0
   21.9256   20.0342   21.5408 H   0  0  0  0  0  0  0  0  0  0  0  0
   20.8874   18.7822   20.8209 H   0  0  0  0  0  0  0  0  0  0  0  0
   22.5929   18.4384   21.1490 H   0  0  0  0  0  0  0  0  0  0  0  0
  1  2  1  0  0  0  0
  1  3  1  0  0  0  0
  1  4  1  0  0  0  0
  1  5  1  0  0  0  0
  5  6  1  0  0  0  0
  5  7  1  0  0  0  0
  7  8  1  0  0  0  0
  7  9  1  0  0  0  0
  7 10  1  0  0  0  0
  5 11  1  0  0  0  0
 11 12  1  0  0  0  0
 11 13  1  0  0  0  0
 11 14  1  0  0  0  0
 14 15  1  0  0  0  0
 14 16  1  0  0  0  0
 14 17  1  0  0  0  0
 17 18  1  0  0  0  0
 17 19  1  0  0  0  0
 17 20  1  0  0  0  0
M  END
> <VConfSearch Rank>
978

> <Conf_Id>
64

> <Delta U+W>
0.544

> <U+W>
-35.732

> <U>
22.800

> <W>
-58.532

> <W(PB)>
-60.437

> <W(SA)>
1.905

> <Valence>
2.662

> <Coulomb>
19.485

> <VdW>
0.653

> <VdW6>
-5.460

> <VdW12>
6.113

> <Bond>
0.174

> <Angle>
1.378

> <Pdih>
1.109

> <Idih>
0.000

> <Tether>
0.000

$$$$
VeraChem MOL file


 20 19  0  0  0  0  0  0  0  0999 V2000     
   18.0211   18.7586   21.5477 N   0  3  0  0  0  0  0  0  0  0  0  0
   18.6365   19.2774   20.9173 H   0  0  0  0  0  0  0  0  0  0  0  0
   17.1185   19.2413   21.5594 H   0  0  0  0  0  0  0  0  0  0  0  0
   17.8659   17.8351   21.1344 H   0  0  0  0  0  0  0  0  0  0  0  0
   18.6080   18.6554   22.9296 C   0  0  2  0  0  0  0  0  0  0  0  0
   17.8769   18.0990   23.5244 H   0  0  0  0  0  0  0  0  0  0  0  0
   18.7558   20.0464   23.5676 C   0  0  0  0  0  0  0  0  0  0  0  0
   19.3723   20.7086   22.9487 H   0  0  0  0  0  0  0  0  0  0  0  0
   19.2112   19.9736   24.5629 H   0  0  0  0  0  0  0  0  0  0  0  0
   17.7734   20.5198   23.6853 H   0  0  0  0  0  0  0  0  0  0  0  0
   19.9240   17.8376   22.9515 C   0  0  0  0  0  0  0  0  0  0  0  0
   20.2151   17.6438   23.9922 H   0  0  0  0  0  0  0  0  0  0  0  0
   19.7034   16.8500   22.5256 H   0  0  0  0  0  0  0  0  0  0  0  0
   21.1239   18.4461   22.1734 C   0  0  0  0  0  0  0  0  0  0  0  0
   20.7761   19.0323   21.3128 H   0  0  0  0  0  0  0  0  0  0  0  0
   21.7175   17.6220   21.7535 H   0  0  0  0  0  0  0  0  0  0  0  0
   22.0628   19.3018   23.0560 C   0  0  0  0  0  0  0  0  0  0  0  0
   21.5524   20.1743   23.4781 H   0  0  0  0  0  0  0  0  0  0  0  0
   22.9128   19.6695   22.4668 H   0  0  0  0  0  0  0  0  0  0  0  0
   22.4670   18.7105   23.8879 H   0  0  0  0  0  0  0  0  0  0  0  0
  1  2  1  0  0  0  0
  1  3  1  0  0  0  0
  1  4  1  0  0  0  0
  1  5  1  0  0  0  0
  5  6  1  0  0  0  0
  5  7  1  0  0  0  0
  7  8  1  0  0  0  0
  7  9  1  0  0  0  0
  7 10  1  0  0  0  0
  5 11  1  0  0  0  0
 11 12  1  0  0  0  0
 11 13  1  0  0  0  0
 11 14  1  0  0  0  0
 14 15  1  0  0  0  0
 14 16  1  0  0  0  0
 14 17  1  0  0  0  0
 17 18  1  0  0  0  0
 17 19  1  0  0  0  0
 17 20  1  0  0  0  0
M  END
> <VConfSearch Rank>
979

> <Conf_Id>
35

> <Delta U+W>
3.004

> <U+W>
-33.272

> <U>
25.367

> <W>
-58.639

> <W(PB)>
-60.512

> <W(SA)>
1.873

> <Valence>
4.943

> <Coulomb>
19.661

> <VdW>
0.764

> <VdW6>
-5.871

> <VdW12>
6.636

> <Bond>
0.230

> <Angle>
1.857

> <Pdih>
2.855

> <Idih>
0.000

> <Tether>
0.000

$$$$
VeraChem MOL file


 20 19  0  0  0  0  0  0  0  0999 V2000     
   18.9015   18.4229   24.1343 N   0  3  0  0  0  0  0  0  0  0  0  0
   18.9196   17.6452   24.7995 H   0  0  0  0  0  0  0  0  0  0  0  0
   17.9823   18.8667   24.2093 H   0  0  0  0  0  0  0  0  0  0  0  0
   19.5971   19.1069   24.4381 H   0  0  0  0  0  0  0  0  0  0  0  0
   19.1744   17.9554   22.7309 C   0  0  2  0  0  0  0  0  0  0  0  0
   18.3669   17.2545   22.4974 H   0  0  0  0  0  0  0  0  0  0  0  0
   20.4976   17.1740   22.6468 C   0  0  0  0  0  0  0  0  0  0  0  0
   21.3509   17.7876   22.9594 H   0  0  0  0  0  0  0  0  0  0  0  0
   20.6799   16.8271   21.6222 H   0  0  0  0  0  0  0  0  0  0  0  0
   20.4641   16.2905   23.2959 H   0  0  0  0  0  0  0  0  0  0  0  0
   19.0943   19.0962   21.6844 C   0  0  0  0  0  0  0  0  0  0  0  0
   18.9907   18.6325   20.6946 H   0  0  0  0  0  0  0  0  0  0  0  0
   18.1640   19.6576   21.8411 H   0  0  0  0  0  0  0  0  0  0  0  0
   20.2879   20.0901   21.6202 C   0  0  0  0  0  0  0  0  0  0  0  0
   20.0945   20.8001   20.8040 H   0  0  0  0  0  0  0  0  0  0  0  0
   21.2089   19.5618   21.3386 H   0  0  0  0  0  0  0  0  0  0  0  0
   20.5269   20.8961   22.9172 C   0  0  0  0  0  0  0  0  0  0  0  0
   19.6001   21.3666   23.2704 H   0  0  0  0  0  0  0  0  0  0  0  0
   21.2580   21.6953   22.7383 H   0  0  0  0  0  0  0  0  0  0  0  0
   20.9311   20.2644   23.7165 H   0  0  0  0  0  0  0  0  0  0  0  0
  1  2  1  0  0  0  0
  1  3  1  0  0  0  0
  1  4  1  0  0  0  0
  1  5  1  0  0  0  0
  5  6  1  0  0  0  0
  5  7  1  0  0  0  0
  7  8  1  0  0  0  0
  7  9  1  0  0  0  0
  7 10  1  0  0  0  0
  5 11  1  0  0  0  0
 11 12  1  0  0  0  0
 11 13  1  0  0  0  0
 11 14  1  0  0  0  0
 14 15  1  0  0  0  0
 14 16  1  0  0  0  0
 14 17  1  0  0  0  0
 17 18  1  0  0  0  0
 17 19  1  0  0  0  0
 17 20  1  0  0  0  0
M  END
> <VConfSearch Rank>
980

> <Conf_Id>
55

> <Delta U+W>
2.767

> <U+W>
-33.509

> <U>
24.552

> <W>
-58.061

> <W(PB)>
-59.930

> <W(SA)>
1.869

> <Valence>
3.726

> <Coulomb>
20.219

> <VdW>
0.606

> <VdW6>
-6.395

> <VdW12>
7.001

> <Bond>
0.241

> <Angle>
2.098

> <Pdih>
1.387

> <Idih>
0.000

> <Tether>
0.000

$$$$
VeraChem MOL file


 20 19  0  0  0  0  0  0  0  0999 V2000     
   19.2795   17.0497   22.5226 N   0  3  0  0  0  0  0  0  0  0  0  0
   18.6948   17.1402   21.6880 H   0  0  0  0  0  0  0  0  0  0  0  0
   18.9853   16.1994   23.0106 H   0  0  0  0  0  0  0  0  0  0  0  0
   20.2421   16.9023   22.2092 H   0  0  0  0  0  0  0  0  0  0  0  0
   19.1664   18.2606   23.4091 C   0  0  2  0  0  0  0  0  0  0  0  0
   19.8208   18.0840   24.2684 H   0  0  0  0  0  0  0  0  0  0  0  0
   17.7268   18.4194   23.9254 C   0  0  0  0  0  0  0  0  0  0  0  0
   17.4036   17.5170   24.4587 H   0  0  0  0  0  0  0  0  0  0  0  0
   17.0261   18.5981   23.1003 H   0  0  0  0  0  0  0  0  0  0  0  0
   17.6537   19.2621   24.6241 H   0  0  0  0  0  0  0  0  0  0  0  0
   19.6308   19.5558   22.7069 C   0  0  0  0  0  0  0  0  0  0  0  0
   19.0037   19.7437   21.8252 H   0  0  0  0  0  0  0  0  0  0  0  0
   19.4749   20.4032   23.3878 H   0  0  0  0  0  0  0  0  0  0  0  0
   21.1210   19.5181   22.2905 C   0  0  0  0  0  0  0  0  0  0  0  0
   21.2922   18.7121   21.5643 H   0  0  0  0  0  0  0  0  0  0  0  0
   21.7449   19.2944   23.1674 H   0  0  0  0  0  0  0  0  0  0  0  0
   21.5733   20.8573   21.6699 C   0  0  0  0  0  0  0  0  0  0  0  0
   20.9877   21.0943   20.7720 H   0  0  0  0  0  0  0  0  0  0  0  0
   22.6310   20.8124   21.3795 H   0  0  0  0  0  0  0  0  0  0  0  0
   21.4554   21.6837   22.3828 H   0  0  0  0  0  0  0  0  0  0  0  0
  1  2  1  0  0  0  0
  1  3  1  0  0  0  0
  1  4  1  0  0  0  0
  1  5  1  0  0  0  0
  5  6  1  0  0  0  0
  5  7  1  0  0  0  0
  7  8  1  0  0  0  0
  7  9  1  0  0  0  0
  7 10  1  0  0  0  0
  5 11  1  0  0  0  0
 11 12  1  0  0  0  0
 11 13  1  0  0  0  0
 11 14  1  0  0  0  0
 14 15  1  0  0  0  0
 14 16  1  0  0  0  0
 14 17  1  0  0  0  0
 17 18  1  0  0  0  0
 17 19  1  0  0  0  0
 17 20  1  0  0  0  0
M  END
> <VConfSearch Rank>
981

> <Conf_Id>
74

> <Delta U+W>
0.000

> <U+W>
-36.276

> <U>
22.080

> <W>
-58.356

> <W(PB)>
-60.289

> <W(SA)>
1.932

> <Valence>
1.885

> <Coulomb>
19.559

> <VdW>
0.637

> <VdW6>
-4.482

> <VdW12>
5.119

> <Bond>
0.136

> <Angle>
0.867

> <Pdih>
0.882

> <Idih>
0.000

> <Tether>
0.000

$$$$
VeraChem MOL file


 20 19  0  0  0  0  0  0  0  0999 V2000     
   20.8682   17.7517   24.4665 N   0  3  0  0  0  0  0  0  0  0  0  0
   20.3009   17.9944   25.2833 H   0  0  0  0  0  0  0  0  0  0  0  0
   21.7162   18.3230   24.5018 H   0  0  0  0  0  0  0  0  0  0  0  0
   21.1545   16.7752   24.5770 H   0  0  0  0  0  0  0  0  0  0  0  0
   20.1129   17.9623   23.1829 C   0  0  2  0  0  0  0  0  0  0  0  0
   19.2321   17.3146   23.2339 H   0  0  0  0  0  0  0  0  0  0  0  0
   20.9698   17.5239   21.9811 C   0  0  0  0  0  0  0  0  0  0  0  0
   21.3410   16.5016   22.1238 H   0  0  0  0  0  0  0  0  0  0  0  0
   21.8356   18.1844   21.8486 H   0  0  0  0  0  0  0  0  0  0  0  0
   20.3877   17.5294   21.0525 H   0  0  0  0  0  0  0  0  0  0  0  0
   19.6300   19.4255   23.0517 C   0  0  0  0  0  0  0  0  0  0  0  0
   19.1212   19.7082   23.9828 H   0  0  0  0  0  0  0  0  0  0  0  0
   20.4962   20.0937   22.9560 H   0  0  0  0  0  0  0  0  0  0  0  0
   18.6575   19.6597   21.8699 C   0  0  0  0  0  0  0  0  0  0  0  0
   17.8221   18.9480   21.9308 H   0  0  0  0  0  0  0  0  0  0  0  0
   19.1662   19.4730   20.9148 H   0  0  0  0  0  0  0  0  0  0  0  0
   18.1027   21.1005   21.8655 C   0  0  0  0  0  0  0  0  0  0  0  0
   17.5477   21.3138   22.7884 H   0  0  0  0  0  0  0  0  0  0  0  0
   17.4187   21.2500   21.0200 H   0  0  0  0  0  0  0  0  0  0  0  0
   18.9134   21.8354   21.7766 H   0  0  0  0  0  0  0  0  0  0  0  0
  1  2  1  0  0  0  0
  1  3  1  0  0  0  0
  1  4  1  0  0  0  0
  1  5  1  0  0  0  0
  5  6  1  0  0  0  0
  5  7  1  0  0  0  0
  7  8  1  0  0  0  0
  7  9  1  0  0  0  0
  7 10  1  0  0  0  0
  5 11  1  0  0  0  0
 11 12  1  0  0  0  0
 11 13  1  0  0  0  0
 11 14  1  0  0  0  0
 14 15  1  0  0  0  0
 14 16  1  0  0  0  0
 14 17  1  0  0  0  0
 17 18  1  0  0  0  0
 17 19  1  0  0  0  0
 17 20  1  0  0  0  0
M  END
> <VConfSearch Rank>
982

> <Conf_Id>
80

> <Delta U+W>
0.460

> <U+W>
-35.817

> <U>
22.495

> <W>
-58.311

> <W(PB)>
-60.259

> <W(SA)>
1.948

> <Valence>
2.419

> <Coulomb>
19.304

> <VdW>
0.772

> <VdW6>
-4.635

> <VdW12>
5.407

> <Bond>
0.149

> <Angle>
1.142

> <Pdih>
1.129

> <Idih>
0.000

> <Tether>
0.000

$$$$
VeraChem MOL file


 20 19  0  0  0  0  0  0  0  0999 V2000     
   17.4718   18.9688   21.9851 N   0  3  0  0  0  0  0  0  0  0  0  0
   17.3947   19.4379   21.0786 H   0  0  0  0  0  0  0  0  0  0  0  0
   17.1707   19.6345   22.7013 H   0  0  0  0  0  0  0  0  0  0  0  0
   16.7988   18.1977   21.9846 H   0  0  0  0  0  0  0  0  0  0  0  0
   18.8709   18.4787   22.2402 C   0  0  2  0  0  0  0  0  0  0  0  0
   19.1002   17.7744   21.4345 H   0  0  0  0  0  0  0  0  0  0  0  0
   18.9326   17.7153   23.5743 C   0  0  0  0  0  0  0  0  0  0  0  0
   18.1403   16.9584   23.6246 H   0  0  0  0  0  0  0  0  0  0  0  0
   18.8103   18.3940   24.4275 H   0  0  0  0  0  0  0  0  0  0  0  0
   19.8874   17.1883   23.6812 H   0  0  0  0  0  0  0  0  0  0  0  0
   19.8897   19.6422   22.1652 C   0  0  0  0  0  0  0  0  0  0  0  0
   19.7448   20.1450   21.1998 H   0  0  0  0  0  0  0  0  0  0  0  0
   19.6622   20.3956   22.9309 H   0  0  0  0  0  0  0  0  0  0  0  0
   21.3790   19.2165   22.2567 C   0  0  0  0  0  0  0  0  0  0  0  0
   21.9683   19.8574   21.5859 H   0  0  0  0  0  0  0  0  0  0  0  0
   21.5071   18.1911   21.8823 H   0  0  0  0  0  0  0  0  0  0  0  0
   21.9698   19.3481   23.6803 C   0  0  0  0  0  0  0  0  0  0  0  0
   21.9146   20.3862   24.0331 H   0  0  0  0  0  0  0  0  0  0  0  0
   23.0266   19.0512   23.6865 H   0  0  0  0  0  0  0  0  0  0  0  0
   21.4441   18.7176   24.4061 H   0  0  0  0  0  0  0  0  0  0  0  0
  1  2  1  0  0  0  0
  1  3  1  0  0  0  0
  1  4  1  0  0  0  0
  1  5  1  0  0  0  0
  5  6  1  0  0  0  0
  5  7  1  0  0  0  0
  7  8  1  0  0  0  0
  7  9  1  0  0  0  0
  7 10  1  0  0  0  0
  5 11  1  0  0  0  0
 11 12  1  0  0  0  0
 11 13  1  0  0  0  0
 11 14  1  0  0  0  0
 14 15  1  0  0  0  0
 14 16  1  0  0  0  0
 14 17  1  0  0  0  0
 17 18  1  0  0  0  0
 17 19  1  0  0  0  0
 17 20  1  0  0  0  0
M  END
> <VConfSearch Rank>
983

> <Conf_Id>
52

> <Delta U+W>
2.995

> <U+W>
-33.282

> <U>
25.224

> <W>
-58.506

> <W(PB)>
-60.411

> <W(SA)>
1.905

> <Valence>
4.945

> <Coulomb>
19.467

> <VdW>
0.813

> <VdW6>
-5.458

> <VdW12>
6.270

> <Bond>
0.200

> <Angle>
1.675

> <Pdih>
3.070

> <Idih>
0.000

> <Tether>
0.000

$$$$
VeraChem MOL file


 20 19  0  0  0  0  0  0  0  0999 V2000     
   19.3021   20.2961   21.8552 N   0  3  0  0  0  0  0  0  0  0  0  0
   19.6379   21.1071   22.3806 H   0  0  0  0  0  0  0  0  0  0  0  0
   18.5574   20.6216   21.2330 H   0  0  0  0  0  0  0  0  0  0  0  0
   20.0738   19.9702   21.2694 H   0  0  0  0  0  0  0  0  0  0  0  0
   18.8178   19.2088   22.7753 C   0  0  2  0  0  0  0  0  0  0  0  0
   18.4322   18.4015   22.1450 H   0  0  0  0  0  0  0  0  0  0  0  0
   17.6618   19.7358   23.6423 C   0  0  0  0  0  0  0  0  0  0  0  0
   17.9994   20.5402   24.3078 H   0  0  0  0  0  0  0  0  0  0  0  0
   17.2403   18.9342   24.2615 H   0  0  0  0  0  0  0  0  0  0  0  0
   16.8526   20.1285   23.0145 H   0  0  0  0  0  0  0  0  0  0  0  0
   19.9429   18.6333   23.6681 C   0  0  0  0  0  0  0  0  0  0  0  0
   20.5176   19.4522   24.1207 H   0  0  0  0  0  0  0  0  0  0  0  0
   19.4827   18.0918   24.5054 H   0  0  0  0  0  0  0  0  0  0  0  0
   20.8979   17.6420   22.9527 C   0  0  0  0  0  0  0  0  0  0  0  0
   20.3201   16.8014   22.5434 H   0  0  0  0  0  0  0  0  0  0  0  0
   21.5689   17.2084   23.7075 H   0  0  0  0  0  0  0  0  0  0  0  0
   21.7629   18.2663   21.8341 C   0  0  0  0  0  0  0  0  0  0  0  0
   22.5437   17.5610   21.5209 H   0  0  0  0  0  0  0  0  0  0  0  0
   22.2615   19.1818   22.1785 H   0  0  0  0  0  0  0  0  0  0  0  0
   21.1670   18.4981   20.9439 H   0  0  0  0  0  0  0  0  0  0  0  0
  1  2  1  0  0  0  0
  1  3  1  0  0  0  0
  1  4  1  0  0  0  0
  1  5  1  0  0  0  0
  5  6  1  0  0  0  0
  5  7  1  0  0  0  0
  7  8  1  0  0  0  0
  7  9  1  0  0  0  0
  7 10  1  0  0  0  0
  5 11  1  0  0  0  0
 11 12  1  0  0  0  0
 11 13  1  0  0  0  0
 11 14  1  0  0  0  0
 14 15  1  0  0  0  0
 14 16  1  0  0  0  0
 14 17  1  0  0  0  0
 17 18  1  0  0  0  0
 17 19  1  0  0  0  0
 17 20  1  0  0  0  0
M  END
> <VConfSearch Rank>
984

> <Conf_Id>
54

> <Delta U+W>
2.752

> <U+W>
-33.525

> <U>
24.337

> <W>
-57.862

> <W(PB)>
-59.764

> <W(SA)>
1.901

> <Valence>
3.593

> <Coulomb>
20.067

> <VdW>
0.677

> <VdW6>
-5.466

> <VdW12>
6.144

> <Bond>
0.191

> <Angle>
1.557

> <Pdih>
1.845

> <Idih>
0.000

> <Tether>
0.000

$$$$
VeraChem MOL file


 20 19  0  0  0  0  0  0  0  0999 V2000     
   20.4522   17.5322   21.3704 N   0  3  0  0  0  0  0  0  0  0  0  0
   20.4553   16.5325   21.1510 H   0  0  0  0  0  0  0  0  0  0  0  0
   21.3364   17.9203   21.0307 H   0  0  0  0  0  0  0  0  0  0  0  0
   19.6994   17.9616   20.8278 H   0  0  0  0  0  0  0  0  0  0  0  0
   20.2732   17.7717   22.8450 C   0  0  2  0  0  0  0  0  0  0  0  0
   21.1089   17.2649   23.3376 H   0  0  0  0  0  0  0  0  0  0  0  0
   18.9730   17.1259   23.3563 C   0  0  0  0  0  0  0  0  0  0  0  0
   18.8453   17.3043   24.4311 H   0  0  0  0  0  0  0  0  0  0  0  0
   18.9971   16.0405   23.2006 H   0  0  0  0  0  0  0  0  0  0  0  0
   18.0920   17.5190   22.8353 H   0  0  0  0  0  0  0  0  0  0  0  0
   20.3636   19.2712   23.2174 C   0  0  0  0  0  0  0  0  0  0  0  0
   20.3158   19.3669   24.3102 H   0  0  0  0  0  0  0  0  0  0  0  0
   21.3551   19.6419   22.9259 H   0  0  0  0  0  0  0  0  0  0  0  0
   19.2756   20.1714   22.5769 C   0  0  0  0  0  0  0  0  0  0  0  0
   18.2767   19.8479   22.8986 H   0  0  0  0  0  0  0  0  0  0  0  0
   19.3035   20.0801   21.4828 H   0  0  0  0  0  0  0  0  0  0  0  0
   19.4680   21.6538   22.9627 C   0  0  0  0  0  0  0  0  0  0  0  0
   18.6900   22.2780   22.5042 H   0  0  0  0  0  0  0  0  0  0  0  0
   20.4426   22.0277   22.6228 H   0  0  0  0  0  0  0  0  0  0  0  0
   19.4104   21.7897   24.0506 H   0  0  0  0  0  0  0  0  0  0  0  0
  1  2  1  0  0  0  0
  1  3  1  0  0  0  0
  1  4  1  0  0  0  0
  1  5  1  0  0  0  0
  5  6  1  0  0  0  0
  5  7  1  0  0  0  0
  7  8  1  0  0  0  0
  7  9  1  0  0  0  0
  7 10  1  0  0  0  0
  5 11  1  0  0  0  0
 11 12  1  0  0  0  0
 11 13  1  0  0  0  0
 11 14  1  0  0  0  0
 14 15  1  0  0  0  0
 14 16  1  0  0  0  0
 14 17  1  0  0  0  0
 17 18  1  0  0  0  0
 17 19  1  0  0  0  0
 17 20  1  0  0  0  0
M  END
> <VConfSearch Rank>
985

> <Conf_Id>
63

> <Delta U+W>
0.420

> <U+W>
-35.856

> <U>
22.625

> <W>
-58.481

> <W(PB)>
-60.400

> <W(SA)>
1.919

> <Valence>
2.404

> <Coulomb>
19.464

> <VdW>
0.757

> <VdW6>
-5.074

> <VdW12>
5.830

> <Bond>
0.172

> <Angle>
1.207

> <Pdih>
1.025

> <Idih>
0.000

> <Tether>
0.000

$$$$
VeraChem MOL file


 20 19  0  0  0  0  0  0  0  0999 V2000     
   21.2128   19.2070   21.8932 N   0  3  0  0  0  0  0  0  0  0  0  0
   20.6520   19.0509   21.0518 H   0  0  0  0  0  0  0  0  0  0  0  0
   21.8176   18.3912   22.0160 H   0  0  0  0  0  0  0  0  0  0  0  0
   21.8182   20.0122   21.7120 H   0  0  0  0  0  0  0  0  0  0  0  0
   20.3400   19.4326   23.0980 C   0  0  2  0  0  0  0  0  0  0  0  0
   19.7331   20.3178   22.8856 H   0  0  0  0  0  0  0  0  0  0  0  0
   21.1956   19.7265   24.3410 C   0  0  0  0  0  0  0  0  0  0  0  0
   21.8450   20.5937   24.1694 H   0  0  0  0  0  0  0  0  0  0  0  0
   21.8307   18.8696   24.5983 H   0  0  0  0  0  0  0  0  0  0  0  0
   20.5606   19.9530   25.2065 H   0  0  0  0  0  0  0  0  0  0  0  0
   19.3878   18.2456   23.3686 C   0  0  0  0  0  0  0  0  0  0  0  0
   19.9790   17.3497   23.6003 H   0  0  0  0  0  0  0  0  0  0  0  0
   18.7939   18.4616   24.2667 H   0  0  0  0  0  0  0  0  0  0  0  0
   18.4219   17.9269   22.1992 C   0  0  0  0  0  0  0  0  0  0  0  0
   17.7935   17.0714   22.4842 H   0  0  0  0  0  0  0  0  0  0  0  0
   18.9886   17.6036   21.3155 H   0  0  0  0  0  0  0  0  0  0  0  0
   17.5084   19.1168   21.8264 C   0  0  0  0  0  0  0  0  0  0  0  0
   16.9308   19.4580   22.6953 H   0  0  0  0  0  0  0  0  0  0  0  0
   16.7952   18.8239   21.0449 H   0  0  0  0  0  0  0  0  0  0  0  0
   18.0867   19.9672   21.4439 H   0  0  0  0  0  0  0  0  0  0  0  0
  1  2  1  0  0  0  0
  1  3  1  0  0  0  0
  1  4  1  0  0  0  0
  1  5  1  0  0  0  0
  5  6  1  0  0  0  0
  5  7  1  0  0  0  0
  7  8  1  0  0  0  0
  7  9  1  0  0  0  0
  7 10  1  0  0  0  0
  5 11  1  0  0  0  0
 11 12  1  0  0  0  0
 11 13  1  0  0  0  0
 11 14  1  0  0  0  0
 14 15  1  0  0  0  0
 14 16  1  0  0  0  0
 14 17  1  0  0  0  0
 17 18  1  0  0  0  0
 17 19  1  0  0  0  0
 17 20  1  0  0  0  0
M  END
> <VConfSearch Rank>
986

> <Conf_Id>
50

> <Delta U+W>
0.466

> <U+W>
-35.811

> <U>
22.369

> <W>
-58.180

> <W(PB)>
-60.103

> <W(SA)>
1.923

> <Valence>
2.168

> <Coulomb>
19.636

> <VdW>
0.566

> <VdW6>
-5.263

> <VdW12>
5.829

> <Bond>
0.162

> <Angle>
1.066

> <Pdih>
0.939

> <Idih>
0.000

> <Tether>
0.000

$$$$
VeraChem MOL file


 20 19  0  0  0  0  0  0  0  0999 V2000     
   19.1915   19.7168   24.8595 N   0  3  0  0  0  0  0  0  0  0  0  0
   20.0998   19.9445   25.2732 H   0  0  0  0  0  0  0  0  0  0  0  0
   18.7969   18.9387   25.3939 H   0  0  0  0  0  0  0  0  0  0  0  0
   18.5818   20.5260   25.0051 H   0  0  0  0  0  0  0  0  0  0  0  0
   19.3163   19.3772   23.3988 C   0  0  2  0  0  0  0  0  0  0  0  0
   19.7462   20.2605   22.9163 H   0  0  0  0  0  0  0  0  0  0  0  0
   17.9227   19.1154   22.7978 C   0  0  0  0  0  0  0  0  0  0  0  0
   17.4347   18.2637   23.2878 H   0  0  0  0  0  0  0  0  0  0  0  0
   17.9804   18.8985   21.7257 H   0  0  0  0  0  0  0  0  0  0  0  0
   17.2770   19.9933   22.9228 H   0  0  0  0  0  0  0  0  0  0  0  0
   20.2753   18.1845   23.1624 C   0  0  0  0  0  0  0  0  0  0  0  0
   20.8907   18.0348   24.0594 H   0  0  0  0  0  0  0  0  0  0  0  0
   19.7061   17.2538   23.0360 H   0  0  0  0  0  0  0  0  0  0  0  0
   21.2424   18.3840   21.9679 C   0  0  0  0  0  0  0  0  0  0  0  0
   21.9308   17.5282   21.9272 H   0  0  0  0  0  0  0  0  0  0  0  0
   21.8678   19.2702   22.1457 H   0  0  0  0  0  0  0  0  0  0  0  0
   20.5378   18.5203   20.6000 C   0  0  0  0  0  0  0  0  0  0  0  0
   19.8710   17.6690   20.4110 H   0  0  0  0  0  0  0  0  0  0  0  0
   21.2774   18.5522   19.7894 H   0  0  0  0  0  0  0  0  0  0  0  0
   19.9491   19.4443   20.5425 H   0  0  0  0  0  0  0  0  0  0  0  0
  1  2  1  0  0  0  0
  1  3  1  0  0  0  0
  1  4  1  0  0  0  0
  1  5  1  0  0  0  0
  5  6  1  0  0  0  0
  5  7  1  0  0  0  0
  7  8  1  0  0  0  0
  7  9  1  0  0  0  0
  7 10  1  0  0  0  0
  5 11  1  0  0  0  0
 11 12  1  0  0  0  0
 11 13  1  0  0  0  0
 11 14  1  0  0  0  0
 14 15  1  0  0  0  0
 14 16  1  0  0  0  0
 14 17  1  0  0  0  0
 17 18  1  0  0  0  0
 17 19  1  0  0  0  0
 17 20  1  0  0  0  0
M  END
> <VConfSearch Rank>
987

> <Conf_Id>
3

> <Delta U+W>
3.093

> <U+W>
-33.184

> <U>
25.256

> <W>
-58.439

> <W(PB)>
-60.337

> <W(SA)>
1.898

> <Valence>
4.963

> <Coulomb>
19.511

> <VdW>
0.782

> <VdW6>
-5.429

> <VdW12>
6.211

> <Bond>
0.174

> <Angle>
1.377

> <Pdih>
3.412

> <Idih>
0.000

> <Tether>
0.000

$$$$
VeraChem MOL file


 20 19  0  0  0  0  0  0  0  0999 V2000     
   19.6358   17.5988   20.9180 N   0  3  0  0  0  0  0  0  0  0  0  0
   19.1844   16.6803   20.9049 H   0  0  0  0  0  0  0  0  0  0  0  0
   20.6273   17.4514   20.7107 H   0  0  0  0  0  0  0  0  0  0  0  0
   19.2394   18.1433   20.1479 H   0  0  0  0  0  0  0  0  0  0  0  0
   19.4415   18.2892   22.2402 C   0  0  2  0  0  0  0  0  0  0  0  0
   19.8895   17.6366   22.9955 H   0  0  0  0  0  0  0  0  0  0  0  0
   17.9411   18.4357   22.5524 C   0  0  0  0  0  0  0  0  0  0  0  0
   17.7814   18.8087   23.5707 H   0  0  0  0  0  0  0  0  0  0  0  0
   17.4343   17.4657   22.4791 H   0  0  0  0  0  0  0  0  0  0  0  0
   17.4556   19.1271   21.8527 H   0  0  0  0  0  0  0  0  0  0  0  0
   20.1778   19.6497   22.2750 C   0  0  0  0  0  0  0  0  0  0  0  0
   21.2200   19.4931   21.9671 H   0  0  0  0  0  0  0  0  0  0  0  0
   19.7368   20.3209   21.5262 H   0  0  0  0  0  0  0  0  0  0  0  0
   20.1782   20.3595   23.6532 C   0  0  0  0  0  0  0  0  0  0  0  0
   19.1570   20.6518   23.9322 H   0  0  0  0  0  0  0  0  0  0  0  0
   20.7452   21.2969   23.5660 H   0  0  0  0  0  0  0  0  0  0  0  0
   20.8013   19.5003   24.7770 C   0  0  0  0  0  0  0  0  0  0  0  0
   21.8232   19.1933   24.5189 H   0  0  0  0  0  0  0  0  0  0  0  0
   20.2092   18.5967   24.9691 H   0  0  0  0  0  0  0  0  0  0  0  0
   20.8493   20.0695   25.7144 H   0  0  0  0  0  0  0  0  0  0  0  0
  1  2  1  0  0  0  0
  1  3  1  0  0  0  0
  1  4  1  0  0  0  0
  1  5  1  0  0  0  0
  5  6  1  0  0  0  0
  5  7  1  0  0  0  0
  7  8  1  0  0  0  0
  7  9  1  0  0  0  0
  7 10  1  0  0  0  0
  5 11  1  0  0  0  0
 11 12  1  0  0  0  0
 11 13  1  0  0  0  0
 11 14  1  0  0  0  0
 14 15  1  0  0  0  0
 14 16  1  0  0  0  0
 14 17  1  0  0  0  0
 17 18  1  0  0  0  0
 17 19  1  0  0  0  0
 17 20  1  0  0  0  0
M  END
> <VConfSearch Rank>
988

> <Conf_Id>
64

> <Delta U+W>
0.544

> <U+W>
-35.732

> <U>
22.800

> <W>
-58.532

> <W(PB)>
-60.437

> <W(SA)>
1.905

> <Valence>
2.662

> <Coulomb>
19.485

> <VdW>
0.653

> <VdW6>
-5.460

> <VdW12>
6.113

> <Bond>
0.174

> <Angle>
1.378

> <Pdih>
1.109

> <Idih>
0.000

> <Tether>
0.000

$$$$
VeraChem MOL file


 20 19  0  0  0  0  0  0  0  0999 V2000     
   17.7724   19.4906   22.4046 N   0  3  0  0  0  0  0  0  0  0  0  0
   18.1444   19.5349   21.4533 H   0  0  0  0  0  0  0  0  0  0  0  0
   17.2478   20.3542   22.5681 H   0  0  0  0  0  0  0  0  0  0  0  0
   17.1021   18.7177   22.4367 H   0  0  0  0  0  0  0  0  0  0  0  0
   18.8706   19.3136   23.4182 C   0  0  2  0  0  0  0  0  0  0  0  0
   18.3759   19.2896   24.3942 H   0  0  0  0  0  0  0  0  0  0  0  0
   19.8201   20.5228   23.4144 C   0  0  0  0  0  0  0  0  0  0  0  0
   20.2524   20.6908   22.4211 H   0  0  0  0  0  0  0  0  0  0  0  0
   20.6374   20.3805   24.1321 H   0  0  0  0  0  0  0  0  0  0  0  0
   19.2808   21.4338   23.7011 H   0  0  0  0  0  0  0  0  0  0  0  0
   19.6118   17.9628   23.2543 C   0  0  0  0  0  0  0  0  0  0  0  0
   20.2764   17.8054   24.1140 H   0  0  0  0  0  0  0  0  0  0  0  0
   18.8597   17.1658   23.3223 H   0  0  0  0  0  0  0  0  0  0  0  0
   20.4061   17.7710   21.9324 C   0  0  0  0  0  0  0  0  0  0  0  0
   19.9319   18.3185   21.1073 H   0  0  0  0  0  0  0  0  0  0  0  0
   20.3600   16.7093   21.6521 H   0  0  0  0  0  0  0  0  0  0  0  0
   21.8977   18.1648   22.0448 C   0  0  0  0  0  0  0  0  0  0  0  0
   22.0287   19.2268   22.2795 H   0  0  0  0  0  0  0  0  0  0  0  0
   22.4181   17.9692   21.0983 H   0  0  0  0  0  0  0  0  0  0  0  0
   22.4005   17.5808   22.8265 H   0  0  0  0  0  0  0  0  0  0  0  0
  1  2  1  0  0  0  0
  1  3  1  0  0  0  0
  1  4  1  0  0  0  0
  1  5  1  0  0  0  0
  5  6  1  0  0  0  0
  5  7  1  0  0  0  0
  7  8  1  0  0  0  0
  7  9  1  0  0  0  0
  7 10  1  0  0  0  0
  5 11  1  0  0  0  0
 11 12  1  0  0  0  0
 11 13  1  0  0  0  0
 11 14  1  0  0  0  0
 14 15  1  0  0  0  0
 14 16  1  0  0  0  0
 14 17  1  0  0  0  0
 17 18  1  0  0  0  0
 17 19  1  0  0  0  0
 17 20  1  0  0  0  0
M  END
> <VConfSearch Rank>
989

> <Conf_Id>
35

> <Delta U+W>
3.004

> <U+W>
-33.272

> <U>
25.367

> <W>
-58.639

> <W(PB)>
-60.512

> <W(SA)>
1.873

> <Valence>
4.943

> <Coulomb>
19.661

> <VdW>
0.764

> <VdW6>
-5.871

> <VdW12>
6.636

> <Bond>
0.230

> <Angle>
1.857

> <Pdih>
2.855

> <Idih>
0.000

> <Tether>
0.000

$$$$
VeraChem MOL file


 20 19  0  0  0  0  0  0  0  0999 V2000     
   18.8597   19.7044   21.3770 N   0  3  0  0  0  0  0  0  0  0  0  0
   18.6382   19.5131   20.3963 H   0  0  0  0  0  0  0  0  0  0  0  0
   18.6491   20.6909   21.5501 H   0  0  0  0  0  0  0  0  0  0  0  0
   18.2229   19.1500   21.9525 H   0  0  0  0  0  0  0  0  0  0  0  0
   20.2955   19.3845   21.6912 C   0  0  2  0  0  0  0  0  0  0  0  0
   20.8862   20.0431   21.0469 H   0  0  0  0  0  0  0  0  0  0  0  0
   20.6447   17.9354   21.3081 C   0  0  0  0  0  0  0  0  0  0  0  0
   20.0222   17.2124   21.8485 H   0  0  0  0  0  0  0  0  0  0  0  0
   21.6968   17.7174   21.5295 H   0  0  0  0  0  0  0  0  0  0  0  0
   20.4906   17.7741   20.2342 H   0  0  0  0  0  0  0  0  0  0  0  0
   20.6864   19.7196   23.1535 C   0  0  0  0  0  0  0  0  0  0  0  0
   21.7826   19.7575   23.2040 H   0  0  0  0  0  0  0  0  0  0  0  0
   20.3494   20.7380   23.3869 H   0  0  0  0  0  0  0  0  0  0  0  0
   20.1933   18.7496   24.2636 C   0  0  0  0  0  0  0  0  0  0  0  0
   20.5917   19.1035   25.2247 H   0  0  0  0  0  0  0  0  0  0  0  0
   20.6254   17.7505   24.1160 H   0  0  0  0  0  0  0  0  0  0  0  0
   18.6567   18.6382   24.3874 C   0  0  0  0  0  0  0  0  0  0  0  0
   18.1892   19.6295   24.4502 H   0  0  0  0  0  0  0  0  0  0  0  0
   18.3881   18.0858   25.2973 H   0  0  0  0  0  0  0  0  0  0  0  0
   18.2219   18.0938   23.5413 H   0  0  0  0  0  0  0  0  0  0  0  0
  1  2  1  0  0  0  0
  1  3  1  0  0  0  0
  1  4  1  0  0  0  0
  1  5  1  0  0  0  0
  5  6  1  0  0  0  0
  5  7  1  0  0  0  0
  7  8  1  0  0  0  0
  7  9  1  0  0  0  0
  7 10  1  0  0  0  0
  5 11  1  0  0  0  0
 11 12  1  0  0  0  0
 11 13  1  0  0  0  0
 11 14  1  0  0  0  0
 14 15  1  0  0  0  0
 14 16  1  0  0  0  0
 14 17  1  0  0  0  0
 17 18  1  0  0  0  0
 17 19  1  0  0  0  0
 17 20  1  0  0  0  0
M  END
> <VConfSearch Rank>
990

> <Conf_Id>
55

> <Delta U+W>
2.767

> <U+W>
-33.509

> <U>
24.552

> <W>
-58.061

> <W(PB)>
-59.930

> <W(SA)>
1.869

> <Valence>
3.726

> <Coulomb>
20.219

> <VdW>
0.606

> <VdW6>
-6.395

> <VdW12>
7.001

> <Bond>
0.241

> <Angle>
2.098

> <Pdih>
1.387

> <Idih>
0.000

> <Tether>
0.000

$$$$
VeraChem MOL file


 20 19  0  0  0  0  0  0  0  0999 V2000     
   20.1181   20.7778   23.3720 N   0  3  0  0  0  0  0  0  0  0  0  0
   19.1476   21.0886   23.4611 H   0  0  0  0  0  0  0  0  0  0  0  0
   20.6967   21.6138   23.2543 H   0  0  0  0  0  0  0  0  0  0  0  0
   20.3856   20.3459   24.2600 H   0  0  0  0  0  0  0  0  0  0  0  0
   20.2880   19.8237   22.2205 C   0  0  2  0  0  0  0  0  0  0  0  0
   21.3450   19.5402   22.1998 H   0  0  0  0  0  0  0  0  0  0  0  0
   19.9499   20.5169   20.8904 C   0  0  0  0  0  0  0  0  0  0  0  0
   20.5709   21.4099   20.7488 H   0  0  0  0  0  0  0  0  0  0  0  0
   18.8971   20.8243   20.8588 H   0  0  0  0  0  0  0  0  0  0  0  0
   20.1352   19.8458   20.0425 H   0  0  0  0  0  0  0  0  0  0  0  0
   19.4468   18.5387   22.3853 C   0  0  0  0  0  0  0  0  0  0  0  0
   18.3808   18.7981   22.4327 H   0  0  0  0  0  0  0  0  0  0  0  0
   19.5770   17.9132   21.4921 H   0  0  0  0  0  0  0  0  0  0  0  0
   19.8403   17.7131   23.6339 C   0  0  0  0  0  0  0  0  0  0  0  0
   19.6653   18.2983   24.5468 H   0  0  0  0  0  0  0  0  0  0  0  0
   20.9150   17.4847   23.6032 H   0  0  0  0  0  0  0  0  0  0  0  0
   19.0403   16.3957   23.7214 C   0  0  0  0  0  0  0  0  0  0  0  0
   17.9619   16.5918   23.7842 H   0  0  0  0  0  0  0  0  0  0  0  0
   19.3307   15.8241   24.6125 H   0  0  0  0  0  0  0  0  0  0  0  0
   19.2220   15.7633   22.8425 H   0  0  0  0  0  0  0  0  0  0  0  0
  1  2  1  0  0  0  0
  1  3  1  0  0  0  0
  1  4  1  0  0  0  0
  1  5  1  0  0  0  0
  5  6  1  0  0  0  0
  5  7  1  0  0  0  0
  7  8  1  0  0  0  0
  7  9  1  0  0  0  0
  7 10  1  0  0  0  0
  5 11  1  0  0  0  0
 11 12  1  0  0  0  0
 11 13  1  0  0  0  0
 11 14  1  0  0  0  0
 14 15  1  0  0  0  0
 14 16  1  0  0  0  0
 14 17  1  0  0  0  0
 17 18  1  0  0  0  0
 17 19  1  0  0  0  0
 17 20  1  0  0  0  0
M  END
> <VConfSearch Rank>
991

> <Conf_Id>
74

> <Delta U+W>
0.000

> <U+W>
-36.276

> <U>
22.080

> <W>
-58.356

> <W(PB)>
-60.289

> <W(SA)>
1.932

> <Valence>
1.885

> <Coulomb>
19.559

> <VdW>
0.637

> <VdW6>
-4.482

> <VdW12>
5.119

> <Bond>
0.136

> <Angle>
0.867

> <Pdih>
0.882

> <Idih>
0.000

> <Tether>
0.000

$$$$
VeraChem MOL file


 20 19  0  0  0  0  0  0  0  0999 V2000     
   21.6832   17.8996   23.6548 N   0  3  0  0  0  0  0  0  0  0  0  0
   21.8483   18.4767   24.4840 H   0  0  0  0  0  0  0  0  0  0  0  0
   22.3568   18.1889   22.9412 H   0  0  0  0  0  0  0  0  0  0  0  0
   21.9061   16.9337   23.9097 H   0  0  0  0  0  0  0  0  0  0  0  0
   20.2676   18.0266   23.1624 C   0  0  2  0  0  0  0  0  0  0  0  0
   19.6247   17.6956   23.9839 H   0  0  0  0  0  0  0  0  0  0  0  0
   20.0357   17.0955   21.9582 C   0  0  0  0  0  0  0  0  0  0  0  0
   20.3394   16.0694   22.1991 H   0  0  0  0  0  0  0  0  0  0  0  0
   20.6126   17.4244   21.0849 H   0  0  0  0  0  0  0  0  0  0  0  0
   18.9767   17.0615   21.6778 H   0  0  0  0  0  0  0  0  0  0  0  0
   19.9182   19.4977   22.8377 C   0  0  0  0  0  0  0  0  0  0  0  0
   20.2067   20.1205   23.6947 H   0  0  0  0  0  0  0  0  0  0  0  0
   20.5211   19.8418   21.9868 H   0  0  0  0  0  0  0  0  0  0  0  0
   18.4167   19.7334   22.5424 C   0  0  0  0  0  0  0  0  0  0  0  0
   17.8095   19.3319   23.3659 H   0  0  0  0  0  0  0  0  0  0  0  0
   18.1177   19.1943   21.6337 H   0  0  0  0  0  0  0  0  0  0  0  0
   18.1010   21.2334   22.3583 C   0  0  0  0  0  0  0  0  0  0  0  0
   18.3460   21.8037   23.2639 H   0  0  0  0  0  0  0  0  0  0  0  0
   17.0342   21.3819   22.1463 H   0  0  0  0  0  0  0  0  0  0  0  0
   18.6724   21.6575   21.5223 H   0  0  0  0  0  0  0  0  0  0  0  0
  1  2  1  0  0  0  0
  1  3  1  0  0  0  0
  1  4  1  0  0  0  0
  1  5  1  0  0  0  0
  5  6  1  0  0  0  0
  5  7  1  0  0  0  0
  7  8  1  0  0  0  0
  7  9  1  0  0  0  0
  7 10  1  0  0  0  0
  5 11  1  0  0  0  0
 11 12  1  0  0  0  0
 11 13  1  0  0  0  0
 11 14  1  0  0  0  0
 14 15  1  0  0  0  0
 14 16  1  0  0  0  0
 14 17  1  0  0  0  0
 17 18  1  0  0  0  0
 17 19  1  0  0  0  0
 17 20  1  0  0  0  0
M  END
> <VConfSearch Rank>
992

> <Conf_Id>
80

> <Delta U+W>
0.460

> <U+W>
-35.817

> <U>
22.495

> <W>
-58.311

> <W(PB)>
-60.259

> <W(SA)>
1.948

> <Valence>
2.419

> <Coulomb>
19.304

> <VdW>
0.772

> <VdW6>
-4.635

> <VdW12>
5.407

> <Bond>
0.149

> <Angle>
1.142

> <Pdih>
1.129

> <Idih>
0.000

> <Tether>
0.000

$$$$
VeraChem MOL file


 20 19  0  0  0  0  0  0  0  0999 V2000     
   19.7384   17.5454   20.7346 N   0  3  0  0  0  0  0  0  0  0  0  0
   19.0530   17.8947   20.0593 H   0  0  0  0  0  0  0  0  0  0  0  0
   19.3322   16.7217   21.1854 H   0  0  0  0  0  0  0  0  0  0  0  0
   20.5535   17.2297   20.2020 H   0  0  0  0  0  0  0  0  0  0  0  0
   20.1128   18.5979   21.7419 C   0  0  2  0  0  0  0  0  0  0  0  0
   20.5399   19.4290   21.1721 H   0  0  0  0  0  0  0  0  0  0  0  0
   21.1973   18.0631   22.6927 C   0  0  0  0  0  0  0  0  0  0  0  0
   22.0265   17.6223   22.1258 H   0  0  0  0  0  0  0  0  0  0  0  0
   20.7951   17.2931   23.3627 H   0  0  0  0  0  0  0  0  0  0  0  0
   21.6185   18.8709   23.3018 H   0  0  0  0  0  0  0  0  0  0  0  0
   18.8621   19.1213   22.4897 C   0  0  0  0  0  0  0  0  0  0  0  0
   18.1364   19.4443   21.7316 H   0  0  0  0  0  0  0  0  0  0  0  0
   18.3770   18.3023   23.0371 H   0  0  0  0  0  0  0  0  0  0  0  0
   19.1199   20.3221   23.4380 C   0  0  0  0  0  0  0  0  0  0  0  0
   18.2566   21.0005   23.3868 H   0  0  0  0  0  0  0  0  0  0  0  0
   19.9827   20.9065   23.0888 H   0  0  0  0  0  0  0  0  0  0  0  0
   19.3121   19.9081   24.9161 C   0  0  0  0  0  0  0  0  0  0  0  0
   18.4227   19.3891   25.2965 H   0  0  0  0  0  0  0  0  0  0  0  0
   19.4741   20.7933   25.5448 H   0  0  0  0  0  0  0  0  0  0  0  0
   20.1729   19.2438   25.0508 H   0  0  0  0  0  0  0  0  0  0  0  0
  1  2  1  0  0  0  0
  1  3  1  0  0  0  0
  1  4  1  0  0  0  0
  1  5  1  0  0  0  0
  5  6  1  0  0  0  0
  5  7  1  0  0  0  0
  7  8  1  0  0  0  0
  7  9  1  0  0  0  0
  7 10  1  0  0  0  0
  5 11  1  0  0  0  0
 11 12  1  0  0  0  0
 11 13  1  0  0  0  0
 11 14  1  0  0  0  0
 14 15  1  0  0  0  0
 14 16  1  0  0  0  0
 14 17  1  0  0  0  0
 17 18  1  0  0  0  0
 17 19  1  0  0  0  0
 17 20  1  0  0  0  0
M  END
> <VConfSearch Rank>
993

> <Conf_Id>
52

> <Delta U+W>
2.995

> <U+W>
-33.282

> <U>
25.224

> <W>
-58.506

> <W(PB)>
-60.411

> <W(SA)>
1.905

> <Valence>
4.945

> <Coulomb>
19.467

> <VdW>
0.813

> <VdW6>
-5.458

> <VdW12>
6.270

> <Bond>
0.200

> <Angle>
1.675

> <Pdih>
3.070

> <Idih>
0.000

> <Tether>
0.000

$$$$
VeraChem MOL file


 20 19  0  0  0  0  0  0  0  0999 V2000     
   20.2951   17.8175   23.6958 N   0  3  0  0  0  0  0  0  0  0  0  0
   21.1163   17.4499   23.2092 H   0  0  0  0  0  0  0  0  0  0  0  0
   19.9687   17.0902   24.3378 H   0  0  0  0  0  0  0  0  0  0  0  0
   20.6040   18.6119   24.2601 H   0  0  0  0  0  0  0  0  0  0  0  0
   19.2185   18.2223   22.7260 C   0  0  2  0  0  0  0  0  0  0  0  0
   18.3609   18.5568   23.3178 H   0  0  0  0  0  0  0  0  0  0  0  0
   18.7824   17.0050   21.8931 C   0  0  0  0  0  0  0  0  0  0  0  0
   19.6046   16.6376   21.2662 H   0  0  0  0  0  0  0  0  0  0  0  0
   17.9407   17.2607   21.2376 H   0  0  0  0  0  0  0  0  0  0  0  0
   18.4564   16.1848   22.5445 H   0  0  0  0  0  0  0  0  0  0  0  0
   19.6518   19.3829   21.7990 C   0  0  0  0  0  0  0  0  0  0  0  0
   20.6477   19.1790   21.3841 H   0  0  0  0  0  0  0  0  0  0  0  0
   18.9700   19.4169   20.9387 H   0  0  0  0  0  0  0  0  0  0  0  0
   19.6251   20.7867   22.4588 C   0  0  0  0  0  0  0  0  0  0  0  0
   18.6131   21.0024   22.8294 H   0  0  0  0  0  0  0  0  0  0  0  0
   19.8273   21.5349   21.6794 H   0  0  0  0  0  0  0  0  0  0  0  0
   20.6464   20.9867   23.6016 C   0  0  0  0  0  0  0  0  0  0  0  0
   20.7060   22.0484   23.8749 H   0  0  0  0  0  0  0  0  0  0  0  0
   21.6518   20.6648   23.3000 H   0  0  0  0  0  0  0  0  0  0  0  0
   20.3535   20.4408   24.5058 H   0  0  0  0  0  0  0  0  0  0  0  0
  1  2  1  0  0  0  0
  1  3  1  0  0  0  0
  1  4  1  0  0  0  0
  1  5  1  0  0  0  0
  5  6  1  0  0  0  0
  5  7  1  0  0  0  0
  7  8  1  0  0  0  0
  7  9  1  0  0  0  0
  7 10  1  0  0  0  0
  5 11  1  0  0  0  0
 11 12  1  0  0  0  0
 11 13  1  0  0  0  0
 11 14  1  0  0  0  0
 14 15  1  0  0  0  0
 14 16  1  0  0  0  0
 14 17  1  0  0  0  0
 17 18  1  0  0  0  0
 17 19  1  0  0  0  0
 17 20  1  0  0  0  0
M  END
> <VConfSearch Rank>
994

> <Conf_Id>
54

> <Delta U+W>
2.752

> <U+W>
-33.525

> <U>
24.337

> <W>
-57.862

> <W(PB)>
-59.764

> <W(SA)>
1.901

> <Valence>
3.593

> <Coulomb>
20.067

> <VdW>
0.677

> <VdW6>
-5.466

> <VdW12>
6.144

> <Bond>
0.191

> <Angle>
1.557

> <Pdih>
1.845

> <Idih>
0.000

> <Tether>
0.000

$$$$
VeraChem MOL file


 20 19  0  0  0  0  0  0  0  0999 V2000     
   18.1203   18.7482   23.9407 N   0  3  0  0  0  0  0  0  0  0  0  0
   17.1932   18.3237   24.0297 H   0  0  0  0  0  0  0  0  0  0  0  0
   18.1110   19.6148   24.4853 H   0  0  0  0  0  0  0  0  0  0  0  0
   18.7899   18.1145   24.3828 H   0  0  0  0  0  0  0  0  0  0  0  0
   18.4730   19.0036   22.5005 C   0  0  2  0  0  0  0  0  0  0  0  0
   17.6973   19.6715   22.1128 H   0  0  0  0  0  0  0  0  0  0  0  0
   18.4182   17.7034   21.6788 C   0  0  0  0  0  0  0  0  0  0  0  0
   18.6777   17.8935   20.6300 H   0  0  0  0  0  0  0  0  0  0  0  0
   17.4068   17.2794   21.6988 H   0  0  0  0  0  0  0  0  0  0  0  0
   19.1063   16.9455   22.0713 H   0  0  0  0  0  0  0  0  0  0  0  0
   19.8276   19.7352   22.3426 C   0  0  0  0  0  0  0  0  0  0  0  0
   19.9802   19.9698   21.2808 H   0  0  0  0  0  0  0  0  0  0  0  0
   19.7618   20.7023   22.8581 H   0  0  0  0  0  0  0  0  0  0  0  0
   21.0579   18.9570   22.8766 C   0  0  0  0  0  0  0  0  0  0  0  0
   21.1711   18.0077   22.3362 H   0  0  0  0  0  0  0  0  0  0  0  0
   20.9171   18.7059   23.9365 H   0  0  0  0  0  0  0  0  0  0  0  0
   22.3570   19.7767   22.7225 C   0  0  0  0  0  0  0  0  0  0  0  0
   23.2187   19.2127   23.1024 H   0  0  0  0  0  0  0  0  0  0  0  0
   22.2987   20.7192   23.2825 H   0  0  0  0  0  0  0  0  0  0  0  0
   22.5502   20.0166   21.6688 H   0  0  0  0  0  0  0  0  0  0  0  0
  1  2  1  0  0  0  0
  1  3  1  0  0  0  0
  1  4  1  0  0  0  0
  1  5  1  0  0  0  0
  5  6  1  0  0  0  0
  5  7  1  0  0  0  0
  7  8  1  0  0  0  0
  7  9  1  0  0  0  0
  7 10  1  0  0  0  0
  5 11  1  0  0  0  0
 11 12  1  0  0  0  0
 11 13  1  0  0  0  0
 11 14  1  0  0  0  0
 14 15  1  0  0  0  0
 14 16  1  0  0  0  0
 14 17  1  0  0  0  0
 17 18  1  0  0  0  0
 17 19  1  0  0  0  0
 17 20  1  0  0  0  0
M  END
> <VConfSearch Rank>
995

> <Conf_Id>
63

> <Delta U+W>
0.420

> <U+W>
-35.856

> <U>
22.625

> <W>
-58.481

> <W(PB)>
-60.400

> <W(SA)>
1.919

> <Valence>
2.404

> <Coulomb>
19.464

> <VdW>
0.757

> <VdW6>
-5.074

> <VdW12>
5.830

> <Bond>
0.172

> <Angle>
1.207

> <Pdih>
1.025

> <Idih>
0.000

> <Tether>
0.000

$$$$
VeraChem MOL file


 20 19  0  0  0  0  0  0  0  0999 V2000     
   18.3322   17.9982   23.3521 N   0  3  0  0  0  0  0  0  0  0  0  0
   17.8849   18.2468   22.4661 H   0  0  0  0  0  0  0  0  0  0  0  0
   17.8340   18.4906   24.0975 H   0  0  0  0  0  0  0  0  0  0  0  0
   18.1867   16.9955   23.4972 H   0  0  0  0  0  0  0  0  0  0  0  0
   19.7957   18.3480   23.3427 C   0  0  2  0  0  0  0  0  0  0  0  0
   20.2496   17.7809   22.5245 H   0  0  0  0  0  0  0  0  0  0  0  0
   20.4664   17.9128   24.6558 C   0  0  0  0  0  0  0  0  0  0  0  0
   20.3296   16.8376   24.8241 H   0  0  0  0  0  0  0  0  0  0  0  0
   20.0445   18.4495   25.5148 H   0  0  0  0  0  0  0  0  0  0  0  0
   21.5453   18.1099   24.6263 H   0  0  0  0  0  0  0  0  0  0  0  0
   20.0423   19.8519   23.0852 C   0  0  0  0  0  0  0  0  0  0  0  0
   19.6075   20.4381   23.9057 H   0  0  0  0  0  0  0  0  0  0  0  0
   21.1229   20.0459   23.1091 H   0  0  0  0  0  0  0  0  0  0  0  0
   19.4748   20.3670   21.7381 C   0  0  0  0  0  0  0  0  0  0  0  0
   19.6952   21.4401   21.6501 H   0  0  0  0  0  0  0  0  0  0  0  0
   18.3796   20.2826   21.7299 H   0  0  0  0  0  0  0  0  0  0  0  0
   20.0638   19.6327   20.5121 C   0  0  0  0  0  0  0  0  0  0  0  0
   21.1592   19.7035   20.4986 H   0  0  0  0  0  0  0  0  0  0  0  0
   19.6885   20.0769   19.5810 H   0  0  0  0  0  0  0  0  0  0  0  0
   19.7889   18.5705   20.5056 H   0  0  0  0  0  0  0  0  0  0  0  0
  1  2  1  0  0  0  0
  1  3  1  0  0  0  0
  1  4  1  0  0  0  0
  1  5  1  0  0  0  0
  5  6  1  0  0  0  0
  5  7  1  0  0  0  0
  7  8  1  0  0  0  0
  7  9  1  0  0  0  0
  7 10  1  0  0  0  0
  5 11  1  0  0  0  0
 11 12  1  0  0  0  0
 11 13  1  0  0  0  0
 11 14  1  0  0  0  0
 14 15  1  0  0  0  0
 14 16  1  0  0  0  0
 14 17  1  0  0  0  0
 17 18  1  0  0  0  0
 17 19  1  0  0  0  0
 17 20  1  0  0  0  0
M  END
> <VConfSearch Rank>
996

> <Conf_Id>
50

> <Delta U+W>
0.466

> <U+W>
-35.811

> <U>
22.369

> <W>
-58.180

> <W(PB)>
-60.103

> <W(SA)>
1.923

> <Valence>
2.168

> <Coulomb>
19.636

> <VdW>
0.566

> <VdW6>
-5.263

> <VdW12>
5.829

> <Bond>
0.162

> <Angle>
1.066

> <Pdih>
0.939

> <Idih>
0.000

> <Tether>
0.000

$$$$
VeraChem MOL file


 20 19  0  0  0  0  0  0  0  0999 V2000     
   21.9303   18.7817   22.1923 N   0  3  0  0  0  0  0  0  0  0  0  0
   22.2214   17.8403   22.4698 H   0  0  0  0  0  0  0  0  0  0  0  0
   22.4213   19.4457   22.7964 H   0  0  0  0  0  0  0  0  0  0  0  0
   22.2668   18.9328   21.2375 H   0  0  0  0  0  0  0  0  0  0  0  0
   20.4378   18.9507   22.2833 C   0  0  2  0  0  0  0  0  0  0  0  0
   20.0049   18.2026   21.6119 H   0  0  0  0  0  0  0  0  0  0  0  0
   20.0349   20.3518   21.7868 C   0  0  0  0  0  0  0  0  0  0  0  0
   20.4880   21.1360   22.4060 H   0  0  0  0  0  0  0  0  0  0  0  0
   18.9487   20.4907   21.8102 H   0  0  0  0  0  0  0  0  0  0  0  0
   20.3651   20.5046   20.7520 H   0  0  0  0  0  0  0  0  0  0  0  0
   19.9111   18.6766   23.7136 C   0  0  0  0  0  0  0  0  0  0  0  0
   20.6758   18.1281   24.2792 H   0  0  0  0  0  0  0  0  0  0  0  0
   19.7632   19.6203   24.2554 H   0  0  0  0  0  0  0  0  0  0  0  0
   18.6132   17.8305   23.7529 C   0  0  0  0  0  0  0  0  0  0  0  0
   18.3616   17.6227   24.8024 H   0  0  0  0  0  0  0  0  0  0  0  0
   18.7974   16.8534   23.2843 H   0  0  0  0  0  0  0  0  0  0  0  0
   17.3992   18.5032   23.0748 C   0  0  0  0  0  0  0  0  0  0  0  0
   17.2148   19.5015   23.4923 H   0  0  0  0  0  0  0  0  0  0  0  0
   16.4928   17.9034   23.2293 H   0  0  0  0  0  0  0  0  0  0  0  0
   17.5472   18.5995   21.9920 H   0  0  0  0  0  0  0  0  0  0  0  0
  1  2  1  0  0  0  0
  1  3  1  0  0  0  0
  1  4  1  0  0  0  0
  1  5  1  0  0  0  0
  5  6  1  0  0  0  0
  5  7  1  0  0  0  0
  7  8  1  0  0  0  0
  7  9  1  0  0  0  0
  7 10  1  0  0  0  0
  5 11  1  0  0  0  0
 11 12  1  0  0  0  0
 11 13  1  0  0  0  0
 11 14  1  0  0  0  0
 14 15  1  0  0  0  0
 14 16  1  0  0  0  0
 14 17  1  0  0  0  0
 17 18  1  0  0  0  0
 17 19  1  0  0  0  0
 17 20  1  0  0  0  0
M  END
> <VConfSearch Rank>
997

> <Conf_Id>
3

> <Delta U+W>
3.093

> <U+W>
-33.184

> <U>
25.256

> <W>
-58.439

> <W(PB)>
-60.337

> <W(SA)>
1.898

> <Valence>
4.963

> <Coulomb>
19.511

> <VdW>
0.782

> <VdW6>
-5.429

> <VdW12>
6.211

> <Bond>
0.174

> <Angle>
1.377

> <Pdih>
3.412

> <Idih>
0.000

> <Tether>
0.000

$$$$
VeraChem MOL file


 20 19  0  0  0  0  0  0  0  0999 V2000     
   17.4198   19.0158   22.4412 N   0  3  0  0  0  0  0  0  0  0  0  0
   16.9298   18.4112   21.7764 H   0  0  0  0  0  0  0  0  0  0  0  0
   17.2556   19.9828   22.1482 H   0  0  0  0  0  0  0  0  0  0  0  0
   16.9716   18.8916   23.3524 H   0  0  0  0  0  0  0  0  0  0  0  0
   18.8881   18.6948   22.4992 C   0  0  2  0  0  0  0  0  0  0  0  0
   19.2763   18.8513   21.4883 H   0  0  0  0  0  0  0  0  0  0  0  0
   19.0987   17.2174   22.8776 C   0  0  0  0  0  0  0  0  0  0  0  0
   20.1529   16.9305   22.7887 H   0  0  0  0  0  0  0  0  0  0  0  0
   18.5267   16.5618   22.2096 H   0  0  0  0  0  0  0  0  0  0  0  0
   18.7744   17.0210   23.9070 H   0  0  0  0  0  0  0  0  0  0  0  0
   19.6332   19.6525   23.4595 C   0  0  0  0  0  0  0  0  0  0  0  0
   19.3812   20.6865   23.1899 H   0  0  0  0  0  0  0  0  0  0  0  0
   19.2602   19.5049   24.4816 H   0  0  0  0  0  0  0  0  0  0  0  0
   21.1770   19.5110   23.4586 C   0  0  0  0  0  0  0  0  0  0  0  0
   21.4704   18.5285   23.8521 H   0  0  0  0  0  0  0  0  0  0  0  0
   21.5984   20.2504   24.1540 H   0  0  0  0  0  0  0  0  0  0  0  0
   21.8040   19.7231   22.0619 C   0  0  0  0  0  0  0  0  0  0  0  0
   21.5220   20.6993   21.6464 H   0  0  0  0  0  0  0  0  0  0  0  0
   21.4883   18.9449   21.3556 H   0  0  0  0  0  0  0  0  0  0  0  0
   22.8995   19.6891   22.1229 H   0  0  0  0  0  0  0  0  0  0  0  0
  1  2  1  0  0  0  0
  1  3  1  0  0  0  0
  1  4  1  0  0  0  0
  1  5  1  0  0  0  0
  5  6  1  0  0  0  0
  5  7  1  0  0  0  0
  7  8  1  0  0  0  0
  7  9  1  0  0  0  0
  7 10  1  0  0  0  0
  5 11  1  0  0  0  0
 11 12  1  0  0  0  0
 11 13  1  0  0  0  0
 11 14  1  0  0  0  0
 14 15  1  0  0  0  0
 14 16  1  0  0  0  0
 14 17  1  0  0  0  0
 17 18  1  0  0  0  0
 17 19  1  0  0  0  0
 17 20  1  0  0  0  0
M  END
> <VConfSearch Rank>
998

> <Conf_Id>
64

> <Delta U+W>
0.544

> <U+W>
-35.732

> <U>
22.800

> <W>
-58.532

> <W(PB)>
-60.437

> <W(SA)>
1.905

> <Valence>
2.662

> <Coulomb>
19.485

> <VdW>
0.653

> <VdW6>
-5.460

> <VdW12>
6.113

> <Bond>
0.174

> <Angle>
1.378

> <Pdih>
1.109

> <Idih>
0.000

> <Tether>
0.000

$$$$
VeraChem MOL file


 20 19  0  0  0  0  0  0  0  0999 V2000     
   21.0242   17.4875   23.6331 N   0  3  0  0  0  0  0  0  0  0  0  0
   21.1865   18.3148   24.2114 H   0  0  0  0  0  0  0  0  0  0  0  0
   21.9390   17.0864   23.4100 H   0  0  0  0  0  0  0  0  0  0  0  0
   20.5251   16.8037   24.2082 H   0  0  0  0  0  0  0  0  0  0  0  0
   20.2543   17.8294   22.3860 C   0  0  2  0  0  0  0  0  0  0  0  0
   20.1435   16.8898   21.8358 H   0  0  0  0  0  0  0  0  0  0  0  0
   21.0552   18.7920   21.4940 C   0  0  0  0  0  0  0  0  0  0  0  0
   21.3218   19.7095   22.0314 H   0  0  0  0  0  0  0  0  0  0  0  0
   20.4818   19.0646   20.5994 H   0  0  0  0  0  0  0  0  0  0  0  0
   21.9868   18.3190   21.1603 H   0  0  0  0  0  0  0  0  0  0  0  0
   18.8254   18.3416   22.6973 C   0  0  0  0  0  0  0  0  0  0  0  0
   18.2512   18.4088   21.7638 H   0  0  0  0  0  0  0  0  0  0  0  0
   18.3214   17.5670   23.2901 H   0  0  0  0  0  0  0  0  0  0  0  0
   18.7309   19.6856   23.4718 C   0  0  0  0  0  0  0  0  0  0  0  0
   19.5916   19.8133   24.1414 H   0  0  0  0  0  0  0  0  0  0  0  0
   17.8475   19.6474   24.1245 H   0  0  0  0  0  0  0  0  0  0  0  0
   18.5845   20.9203   22.5516 C   0  0  0  0  0  0  0  0  0  0  0  0
   19.4526   21.0536   21.8968 H   0  0  0  0  0  0  0  0  0  0  0  0
   18.4791   21.8342   23.1505 H   0  0  0  0  0  0  0  0  0  0  0  0
   17.6923   20.8344   21.9178 H   0  0  0  0  0  0  0  0  0  0  0  0
  1  2  1  0  0  0  0
  1  3  1  0  0  0  0
  1  4  1  0  0  0  0
  1  5  1  0  0  0  0
  5  6  1  0  0  0  0
  5  7  1  0  0  0  0
  7  8  1  0  0  0  0
  7  9  1  0  0  0  0
  7 10  1  0  0  0  0
  5 11  1  0  0  0  0
 11 12  1  0  0  0  0
 11 13  1  0  0  0  0
 11 14  1  0  0  0  0
 14 15  1  0  0  0  0
 14 16  1  0  0  0  0
 14 17  1  0  0  0  0
 17 18  1  0  0  0  0
 17 19  1  0  0  0  0
 17 20  1  0  0  0  0
M  END
> <VConfSearch Rank>
999

> <Conf_Id>
35

> <Delta U+W>
3.004

> <U+W>
-33.272

> <U>
25.367

> <W>
-58.639

> <W(PB)>
-60.512

> <W(SA)>
1.873

> <Valence>
4.943

> <Coulomb>
19.661

> <VdW>
0.764

> <VdW6>
-5.871

> <VdW12>
6.636

> <Bond>
0.230

> <Angle>
1.857

> <Pdih>
2.855

> <Idih>
0.000

> <Tether>
0.000

$$$$
VeraChem MOL file


 20 19  0  0  0  0  0  0  0  0999 V2000     
   18.1417   18.8196   22.0736 N   0  3  0  0  0  0  0  0  0  0  0  0
   17.5593   18.1185   21.6080 H   0  0  0  0  0  0  0  0  0  0  0  0
   17.6944   19.7294   21.9327 H   0  0  0  0  0  0  0  0  0  0  0  0
   18.1234   18.6218   23.0759 H   0  0  0  0  0  0  0  0  0  0  0  0
   19.5488   18.8095   21.5422 C   0  0  2  0  0  0  0  0  0  0  0  0
   19.4584   19.0553   20.4795 H   0  0  0  0  0  0  0  0  0  0  0  0
   20.1744   17.4065   21.6362 C   0  0  0  0  0  0  0  0  0  0  0  0
   20.2128   17.0488   22.6720 H   0  0  0  0  0  0  0  0  0  0  0  0
   21.1951   17.4082   21.2343 H   0  0  0  0  0  0  0  0  0  0  0  0
   19.5889   16.6849   21.0536 H   0  0  0  0  0  0  0  0  0  0  0  0
   20.4466   19.9008   22.1798 C   0  0  0  0  0  0  0  0  0  0  0  0
   21.3242   20.0289   21.5326 H   0  0  0  0  0  0  0  0  0  0  0  0
   19.9170   20.8618   22.1448 H   0  0  0  0  0  0  0  0  0  0  0  0
   20.9564   19.6490   23.6266 C   0  0  0  0  0  0  0  0  0  0  0  0
   21.6089   20.4876   23.9070 H   0  0  0  0  0  0  0  0  0  0  0  0
   21.5958   18.7563   23.6553 H   0  0  0  0  0  0  0  0  0  0  0  0
   19.8425   19.5248   24.6909 C   0  0  0  0  0  0  0  0  0  0  0  0
   19.1366   20.3632   24.6284 H   0  0  0  0  0  0  0  0  0  0  0  0
   20.2778   19.5312   25.6987 H   0  0  0  0  0  0  0  0  0  0  0  0
   19.2876   18.5853   24.5869 H   0  0  0  0  0  0  0  0  0  0  0  0
  1  2  1  0  0  0  0
  1  3  1  0  0  0  0
  1  4  1  0  0  0  0
  1  5  1  0  0  0  0
  5  6  1  0  0  0  0
  5  7  1  0  0  0  0
  7  8  1  0  0  0  0
  7  9  1  0  0  0  0
  7 10  1  0  0  0  0
  5 11  1  0  0  0  0
 11 12  1  0  0  0  0
 11 13  1  0  0  0  0
 11 14  1  0  0  0  0
 14 15  1  0  0  0  0
 14 16  1  0  0  0  0
 14 17  1  0  0  0  0
 17 18  1  0  0  0  0
 17 19  1  0  0  0  0
 17 20  1  0  0  0  0
M  END
> <VConfSearch Rank>
1000

> <Conf_Id>
55

> <Delta U+W>
2.767

> <U+W>
-33.509

> <U>
24.552

> <W>
-58.061

> <W(PB)>
-59.930

> <W(SA)>
1.869

> <Valence>
3.726

> <Coulomb>
20.219

> <VdW>
0.606

> <VdW6>
-6.395

> <VdW12>
7.001

> <Bond>
0.241

> <Angle>
2.098

> <Pdih>
1.387

> <Idih>
0.000

> <Tether>
0.000

$$$$
