@<TRIPOS>MOLECULE
CD_guest-8_fast_vm2_single.mol2 : feprocess host+ligand conformer 1
         151         156           2
SMALL
USER_CHARGES
 
@<TRIPOS>ATOM
       1    C1      16.248048   15.195016   21.878918 C.3        1 MOL1         0.2972
       2    H1      15.182275   15.041578   22.091486 H          1 MOL1         0.0751
       3    O1      16.580703   16.592945   21.791080 O.3        1 MOL1        -0.3740
       4    C2      17.104133   14.570143   23.005070 C.3        1 MOL1         0.1003
       5    H2      16.899506   13.491716   23.019322 H          1 MOL1         0.0783
       6    O2      16.757000   15.136547   24.278982 O.3        1 MOL1        -0.5519
       7    H3      16.367300   16.029131   24.103421 H          1 MOL1         0.3769
       8    C3      18.608970   14.768889   22.717086 C.3        1 MOL1         0.1053
       9    H4      18.823604   15.842052   22.777327 H          1 MOL1         0.0783
      10    O3      19.372407   14.067751   23.703266 O.3        1 MOL1        -0.5519
      11    H5      18.946083   14.298420   24.558933 H          1 MOL1         0.3769
      12    C4      18.988392   14.284120   21.295384 C.3        1 MOL1         0.1018
      13    H6      19.037372   13.187071   21.296761 H          1 MOL1         0.0783
      14    C5      17.991376   14.780504   20.208884 C.3        1 MOL1         0.1043
      15    H7      18.163594   15.855778   20.069617 H          1 MOL1         0.0783
      16    O4      16.618091   14.570958   20.631871 O.3        1 MOL1        -0.3740
      17    C6      18.189082   14.105267   18.830996 C.3        1 MOL1         0.0138
      18    H8      19.127370   14.473516   18.394217 H          1 MOL1         0.0794
      19    H9      17.373994   14.420446   18.165711 H          1 MOL1         0.0794
      20    O5      18.227301   12.676255   18.931063 O.3        1 MOL1        -0.5486
      21    H10     18.274821   12.314785   18.019262 H          1 MOL1         0.3769
      22    C7      14.735595   20.325706   21.368952 C.3        1 MOL1         0.2972
      23    H11     13.984438   21.110365   21.212060 H          1 MOL1         0.0751
      24    O6      16.053473   20.886947   21.521290 O.3        1 MOL1        -0.3740
      25    C8      14.412514   19.547960   22.670951 C.3        1 MOL1         0.1003
      26    H12     13.404852   19.125515   22.565107 H          1 MOL1         0.0783
      27    O7      14.439300   20.437700   23.797404 O.3        1 MOL1        -0.5519
      28    H13     15.155247   21.091816   23.616416 H          1 MOL1         0.3769
      29    C9      15.403584   18.377806   22.882113 C.3        1 MOL1         0.1053
      30    H14     16.401257   18.798644   23.070804 H          1 MOL1         0.0783
      31    O8      14.988612   17.589327   24.002332 O.3        1 MOL1        -0.5519
      32    H15     14.807412   18.238541   24.718124 H          1 MOL1         0.3769
      33    C10     15.477529   17.497320   21.613085 C.3        1 MOL1         0.1018
      34    H16     14.522991   16.968308   21.491902 H          1 MOL1         0.0783
      35    C11     15.751961   18.351129   20.347065 C.3        1 MOL1         0.1043
      36    H17     16.742363   18.808653   20.456746 H          1 MOL1         0.0783
      37    O9      14.752320   19.398493   20.259206 O.3        1 MOL1        -0.3740
      38    C12     15.762604   17.552257   19.017081 C.3        1 MOL1         0.0138
      39    H18     16.781946   17.186431   18.839894 H          1 MOL1         0.0794
      40    H19     15.523340   18.237379   18.193108 H          1 MOL1         0.0794
      41    O10     14.851584   16.447243   19.012901 O.3        1 MOL1        -0.5486
      42    H20     15.273533   15.725207   19.534455 H          1 MOL1         0.3769
      43    C13     18.577109   23.934687   20.314874 C.3        1 MOL1         0.2972
      44    H21     19.065208   24.817110   19.881677 H          1 MOL1         0.0751
      45    O11     19.540371   23.018645   20.877899 O.3        1 MOL1        -0.3740
      46    C14     17.540321   24.335315   21.396889 C.3        1 MOL1         0.1003
      47    H22     16.759051   24.919766   20.893713 H          1 MOL1         0.0783
      48    O12     18.123907   25.141281   22.430715 O.3        1 MOL1        -0.5519
      49    H23     18.811876   24.583812   22.874511 H          1 MOL1         0.3769
      50    C15     16.876434   23.070607   21.993749 C.3        1 MOL1         0.1053
      51    H24     17.646566   22.502477   22.534579 H          1 MOL1         0.0783
      52    O13     15.836952   23.457881   22.898914 O.3        1 MOL1        -0.5519
      53    H25     16.228743   24.168464   23.453191 H          1 MOL1         0.3769
      54    C16     16.291430   22.158280   20.883949 C.3        1 MOL1         0.1018
      55    H26     15.364029   22.618821   20.519610 H          1 MOL1         0.0783
      56    C17     17.278444   21.950570   19.695031 C.3        1 MOL1         0.1043
      57    H27     18.083938   21.297097   20.041922 H          1 MOL1         0.0783
      58    O14     17.842971   23.224908   19.294749 O.3        1 MOL1        -0.3740
      59    C18     16.681880   21.278026   18.432153 C.3        1 MOL1         0.0138
      60    H28     16.831392   20.195513   18.511032 H          1 MOL1         0.0794
      61    H29     17.258059   21.608292   17.557393 H          1 MOL1         0.0794
      62    O15     15.291760   21.559179   18.237516 O.3        1 MOL1        -0.5486
      63    H30     14.795838   20.927861   18.807786 H          1 MOL1         0.3769
      64    C19     23.461121   22.683772   22.206625 C.3        1 MOL1         0.2972
      65    H31     24.487092   22.865777   22.551105 H          1 MOL1         0.0751
      66    O16     23.213525   21.284502   21.978517 O.3        1 MOL1        -0.3740
      67    C20     22.452033   23.183236   23.268325 C.3        1 MOL1         0.1003
      68    H32     22.604325   24.264200   23.384345 H          1 MOL1         0.0783
      69    O17     22.675564   22.539274   24.532755 O.3        1 MOL1        -0.5519
      70    H33     23.135575   21.682877   24.347799 H          1 MOL1         0.3769
      71    C21     20.998602   22.956703   22.793043 C.3        1 MOL1         0.1053
      72    H34     20.821382   21.874606   22.732944 H          1 MOL1         0.0783
      73    O18     20.107637   23.539944   23.748137 O.3        1 MOL1        -0.5519
      74    H35     20.435372   23.221620   24.619411 H          1 MOL1         0.3769
      75    C22     20.770869   23.570176   21.386654 C.3        1 MOL1         0.1018
      76    H36     20.724407   24.663431   21.478642 H          1 MOL1         0.0783
      77    C23     21.892945   23.167283   20.387055 C.3        1 MOL1         0.1043
      78    H37     21.774414   22.099076   20.164640 H          1 MOL1         0.0783
      79    O19     23.203701   23.386518   20.972693 O.3        1 MOL1        -0.3740
      80    C24     21.822564   23.925064   19.040135 C.3        1 MOL1         0.0138
      81    H38     20.946737   23.564188   18.483742 H          1 MOL1         0.0794
      82    H39     22.712320   23.671552   18.448384 H          1 MOL1         0.0794
      83    O20     21.731638   25.343620   19.222808 O.3        1 MOL1        -0.5486
      84    H40     21.769064   25.761528   18.335058 H          1 MOL1         0.3769
      85    C25     25.085426   17.596087   21.694312 C.3        1 MOL1         0.2972
      86    H41     25.799664   16.767090   21.607788 H          1 MOL1         0.0751
      87    O21     23.723701   17.128057   21.670264 O.3        1 MOL1        -0.3740
      88    C26     25.290169   18.330070   23.041536 C.3        1 MOL1         0.1003
      89    H42     26.310673   18.734499   23.051467 H          1 MOL1         0.0783
      90    O22     25.129045   17.413407   24.135246 O.3        1 MOL1        -0.5519
      91    H43     24.485048   16.728399   23.834136 H          1 MOL1         0.3769
      92    C27     24.300496   19.512085   23.173017 C.3        1 MOL1         0.1053
      93    H44     23.282909   19.103360   23.241928 H          1 MOL1         0.0783
      94    O23     24.602377   20.259198   24.354977 O.3        1 MOL1        -0.5519
      95    H45     24.718076   19.583283   25.059948 H          1 MOL1         0.3769
      96    C28     24.371050   20.432554   21.930465 C.3        1 MOL1         0.1018
      97    H46     25.309594   21.000731   21.965576 H          1 MOL1         0.0783
      98    C29     24.301865   19.636074   20.599004 C.3        1 MOL1         0.1043
      99    H47     23.295475   19.214109   20.513906 H          1 MOL1         0.0783
     100    O24     25.261970   18.548680   20.620947 O.3        1 MOL1        -0.3740
     101    C30     24.533463   20.496462   19.330534 C.3        1 MOL1         0.0138
     102    H48     23.591576   20.997067   19.073211 H          1 MOL1         0.0794
     103    H49     24.781708   19.829493   18.494156 H          1 MOL1         0.0794
     104    O25     25.559508   21.480818   19.499102 O.3        1 MOL1        -0.5486
     105    H50     25.153952   22.239346   19.975281 H          1 MOL1         0.3769
     106    C31     21.266654   14.040170   20.397337 C.3        1 MOL1         0.2972
     107    H51     20.825051   13.150553   19.930035 H          1 MOL1         0.0751
     108    O26     20.261237   14.884737   20.992459 O.3        1 MOL1        -0.3740
     109    C32     22.299919   13.651361   21.487882 C.3        1 MOL1         0.1003
     110    H52     23.100645   13.088297   20.991054 H          1 MOL1         0.0783
     111    O27     21.712020   12.825748   22.504688 O.3        1 MOL1        -0.5519
     112    H53     20.940536   13.323589   22.877593 H          1 MOL1         0.3769
     113    C33     22.927983   14.921612   22.113300 C.3        1 MOL1         0.1053
     114    H54     22.139737   15.459280   22.659179 H          1 MOL1         0.0783
     115    O28     23.972912   14.549235   23.018048 O.3        1 MOL1        -0.5519
     116    H55     23.601816   13.810179   23.549364 H          1 MOL1         0.3769
     117    C34     23.489709   15.866744   21.020765 C.3        1 MOL1         0.1018
     118    H56     24.411232   15.428141   20.616122 H          1 MOL1         0.0783
     119    C35     22.473757   16.102293   19.867977 C.3        1 MOL1         0.1043
     120    H57     21.646255   16.694464   20.273097 H          1 MOL1         0.0783
     121    O29     21.967168   14.824965   19.407811 O.3        1 MOL1        -0.3740
     122    C36     23.023553   16.879131   18.642854 C.3        1 MOL1         0.0138
     123    H58     22.825156   17.947463   18.788002 H          1 MOL1         0.0794
     124    H59     22.454059   16.575938   17.754167 H          1 MOL1         0.0794
     125    O30     24.423661   16.674756   18.420310 O.3        1 MOL1        -0.5486
     126    H60     24.902751   17.220640   19.086283 H          1 MOL1         0.3769
     127    C1      19.452106   18.564696   25.935459 C.2        1 MOL1         0.6168
     128    O1      20.462387   18.332524   26.569793 O.co2      1 MOL1        -0.6703
     129    O2      18.516563   19.209577   26.366498 O.co2      1 MOL1        -0.6703
     130    C2      19.352263   18.015944   24.516613 C.3        1 MOL1        -0.1963
     131    H1      18.306694   17.741006   24.335484 H          1 MOL1         0.0750
     132    H2      19.946704   17.096121   24.465572 H          1 MOL1         0.0750
     133    C3      19.835681   19.023215   23.445220 C.3        1 MOL1        -0.1860
     134    H3      19.269919   19.959584   23.550074 H          1 MOL1         0.0752
     135    H4      20.891374   19.267009   23.625366 H          1 MOL1         0.0752
     136    C4      19.659255   18.470791   22.015355 C.3        1 MOL1        -0.1858
     137    H5      18.598378   18.260153   21.840232 H          1 MOL1         0.0752
     138    H6      20.200401   17.521671   21.914539 H          1 MOL1         0.0752
     139    C5      20.168109   19.468237   20.959013 C.3        1 MOL1        -0.1858
     140    H7      19.729699   20.451133   21.157362 H          1 MOL1         0.0752
     141    H8      21.250396   19.585156   21.070199 H          1 MOL1         0.0752
     142    C6      19.823130   19.030193   19.519509 C.3        1 MOL1        -0.1858
     143    H9      18.735018   18.972303   19.406326 H          1 MOL1         0.0752
     144    H10     20.206397   18.021505   19.329687 H          1 MOL1         0.0752
     145    C7      20.395680   20.006135   18.472244 C.3        1 MOL1        -0.1834
     146    H11     20.009468   21.018214   18.653426 H          1 MOL1         0.0752
     147    H12     21.486566   20.058594   18.573948 H          1 MOL1         0.0752
     148    C8      20.037609   19.569254   17.038813 C.3        1 MOL1        -0.2849
     149    H13     18.949757   19.532757   16.898566 H          1 MOL1         0.0764
     150    H14     20.450310   20.274158   16.305732 H          1 MOL1         0.0764
     151    H15     20.444979   18.573927   16.818825 H          1 MOL1         0.0764
@<TRIPOS>BOND
    1     1     2    1
    2     1     3    1
    3     1     4    1
    4     4     5    1
    5     4     6    1
    6     6     7    1
    7     4     8    1
    8     8     9    1
    9     8    10    1
   10    10    11    1
   11     8    12    1
   12    12    13    1
   13    12    14    1
   14    14    15    1
   15     1    16    1
   16    14    16    1
   17    14    17    1
   18    17    18    1
   19    17    19    1
   20    17    20    1
   21    20    21    1
   22    22    23    1
   23    22    24    1
   24    22    25    1
   25    25    26    1
   26    25    27    1
   27    27    28    1
   28    25    29    1
   29    29    30    1
   30    29    31    1
   31    31    32    1
   32     3    33    1
   33    29    33    1
   34    33    34    1
   35    33    35    1
   36    35    36    1
   37    22    37    1
   38    35    37    1
   39    35    38    1
   40    38    39    1
   41    38    40    1
   42    38    41    1
   43    41    42    1
   44    43    44    1
   45    43    45    1
   46    43    46    1
   47    46    47    1
   48    46    48    1
   49    48    49    1
   50    46    50    1
   51    50    51    1
   52    50    52    1
   53    52    53    1
   54    24    54    1
   55    50    54    1
   56    54    55    1
   57    54    56    1
   58    56    57    1
   59    43    58    1
   60    56    58    1
   61    56    59    1
   62    59    60    1
   63    59    61    1
   64    59    62    1
   65    62    63    1
   66    64    65    1
   67    64    66    1
   68    64    67    1
   69    67    68    1
   70    67    69    1
   71    69    70    1
   72    67    71    1
   73    71    72    1
   74    71    73    1
   75    73    74    1
   76    45    75    1
   77    71    75    1
   78    75    76    1
   79    75    77    1
   80    77    78    1
   81    64    79    1
   82    77    79    1
   83    77    80    1
   84    80    81    1
   85    80    82    1
   86    80    83    1
   87    83    84    1
   88    85    86    1
   89    85    87    1
   90    85    88    1
   91    88    89    1
   92    88    90    1
   93    90    91    1
   94    88    92    1
   95    92    93    1
   96    92    94    1
   97    94    95    1
   98    66    96    1
   99    92    96    1
  100    96    97    1
  101    96    98    1
  102    98    99    1
  103    85   100    1
  104    98   100    1
  105    98   101    1
  106   101   102    1
  107   101   103    1
  108   101   104    1
  109   104   105    1
  110   106   107    1
  111    12   108    1
  112   106   108    1
  113   106   109    1
  114   109   110    1
  115   109   111    1
  116   111   112    1
  117   109   113    1
  118   113   114    1
  119   113   115    1
  120   115   116    1
  121    87   117    1
  122   113   117    1
  123   117   118    1
  124   117   119    1
  125   119   120    1
  126   106   121    1
  127   119   121    1
  128   119   122    1
  129   122   123    1
  130   122   124    1
  131   122   125    1
  132   125   126    1
  133   127   128    1
  134   127   129    2
  135   127   130    1
  136   130   131    1
  137   130   132    1
  138   130   133    1
  139   133   134    1
  140   133   135    1
  141   133   136    1
  142   136   137    1
  143   136   138    1
  144   136   139    1
  145   139   140    1
  146   139   141    1
  147   139   142    1
  148   142   143    1
  149   142   144    1
  150   142   145    1
  151   145   146    1
  152   145   147    1
  153   145   148    1
  154   148   149    1
  155   148   150    1
  156   148   151    1
@<TRIPOS>SUBSTRUCTURE
       1 MOL1            1 RESIDUE      1      MOL     
       2 MOL1          151 RESIDUE      1      MOL     
@<SCITEGIC>MOL_PROPERTY
feprocess Rank
SciTegic.value.IntegerValue
1

@<SCITEGIC>MOL_PROPERTY
Conf_Id
SciTegic.value.IntegerValue
1

@<SCITEGIC>MOL_PROPERTY
Probability
SciTegic.value.DoubleValue
100.00

@<SCITEGIC>MOL_PROPERTY
G
SciTegic.value.DoubleValue
517.729

@<SCITEGIC>MOL_PROPERTY
E
SciTegic.value.DoubleValue
323.297

@<SCITEGIC>MOL_PROPERTY
-TS
SciTegic.value.DoubleValue
194.432

@<SCITEGIC>MOL_PROPERTY
U+W
SciTegic.value.DoubleValue
190.055

@<SCITEGIC>MOL_PROPERTY
U
SciTegic.value.DoubleValue
273.730

@<SCITEGIC>MOL_PROPERTY
W
SciTegic.value.DoubleValue
-83.676

@<SCITEGIC>MOL_PROPERTY
W(PB)
SciTegic.value.DoubleValue
-89.755

@<SCITEGIC>MOL_PROPERTY
W(SA)
SciTegic.value.DoubleValue
6.079

@<SCITEGIC>MOL_PROPERTY
Valence
SciTegic.value.DoubleValue
155.900

@<SCITEGIC>MOL_PROPERTY
Coulomb
SciTegic.value.DoubleValue
148.210

@<SCITEGIC>MOL_PROPERTY
VdW
SciTegic.value.DoubleValue
-30.379

@<SCITEGIC>MOL_PROPERTY
VdW6
SciTegic.value.DoubleValue
-186.771

@<SCITEGIC>MOL_PROPERTY
VdW12
SciTegic.value.DoubleValue
156.393

@<SCITEGIC>MOL_PROPERTY
Bond
SciTegic.value.DoubleValue
4.550

@<SCITEGIC>MOL_PROPERTY
Angle
SciTegic.value.DoubleValue
13.521

@<SCITEGIC>MOL_PROPERTY
Pdih
SciTegic.value.DoubleValue
137.829

@<SCITEGIC>MOL_PROPERTY
Idih
SciTegic.value.DoubleValue
0.000

@<SCITEGIC>MOL_PROPERTY
Tether
SciTegic.value.DoubleValue
0.000

