@<TRIPOS>MOLECULE
CD_guest-7_fast_vm2_single.mol2 : feprocess host+ligand conformer 1
         145         150           2
SMALL
USER_CHARGES
 
@<TRIPOS>ATOM
       1    C1      16.432457   15.343626   22.066575 C.3        1 MOL1         0.2972
       2    H1      15.390445   15.283291   22.406525 H          1 MOL1         0.0751
       3    O1      16.744060   16.645574   21.537615 O.3        1 MOL1        -0.3740
       4    C2      17.394308   15.045845   23.240561 C.3        1 MOL1         0.1003
       5    H2      17.186601   14.022637   23.579771 H          1 MOL1         0.0783
       6    O2      17.186063   15.953684   24.334695 O.3        1 MOL1        -0.5519
       7    H3      16.469108   16.577742   24.062174 H          1 MOL1         0.3769
       8    C3      18.865121   15.105488   22.771304 C.3        1 MOL1         0.1053
       9    H4      19.089173   16.136016   22.477073 H          1 MOL1         0.0783
      10    O3      19.695509   14.729202   23.870918 O.3        1 MOL1        -0.5519
      11    H5      19.325315   15.227763   24.634982 H          1 MOL1         0.3769
      12    C4      19.114499   14.202213   21.534202 C.3        1 MOL1         0.1018
      13    H6      19.154147   13.154315   21.857514 H          1 MOL1         0.0783
      14    C5      18.015298   14.391679   20.447016 C.3        1 MOL1         0.1043
      15    H7      18.177907   15.370087   19.976788 H          1 MOL1         0.0783
      16    O4      16.687150   14.368773   21.033079 O.3        1 MOL1        -0.3740
      17    C6      18.070884   13.333380   19.318902 C.3        1 MOL1         0.0138
      18    H8      19.009084   13.460430   18.761621 H          1 MOL1         0.0794
      19    H9      17.249853   13.532560   18.617406 H          1 MOL1         0.0794
      20    O5      17.971809   11.992368   19.816730 O.3        1 MOL1        -0.5486
      21    H10     18.794081   11.783743   20.305551 H          1 MOL1         0.3769
      22    C7      14.839102   20.321681   20.917727 C.3        1 MOL1         0.2972
      23    H11     14.097652   21.093041   20.674601 H          1 MOL1         0.0751
      24    O6      16.135153   20.889967   21.178071 O.3        1 MOL1        -0.3740
      25    C8      14.409544   19.560128   22.197255 C.3        1 MOL1         0.1003
      26    H12     13.429881   19.106819   21.997701 H          1 MOL1         0.0783
      27    O7      14.293685   20.465214   23.306641 O.3        1 MOL1        -0.5519
      28    H13     15.003954   21.145715   23.197126 H          1 MOL1         0.3769
      29    C9      15.404207   18.420193   22.529398 C.3        1 MOL1         0.1053
      30    H14     16.366901   18.872032   22.807882 H          1 MOL1         0.0783
      31    O8      14.886600   17.655888   23.623140 O.3        1 MOL1        -0.5519
      32    H15     14.563461   18.326802   24.266582 H          1 MOL1         0.3769
      33    C10     15.625061   17.515664   21.289759 C.3        1 MOL1         0.1018
      34    H16     14.707393   16.946282   21.092267 H          1 MOL1         0.0783
      35    C11     15.977791   18.351734   20.032704 C.3        1 MOL1         0.1043
      36    H17     16.946140   18.834071   20.208067 H          1 MOL1         0.0783
      37    O9      14.966533   19.371671   19.835837 O.3        1 MOL1        -0.3740
      38    C12     16.118339   17.511065   18.738234 C.3        1 MOL1         0.0138
      39    H18     17.129047   17.084534   18.714821 H          1 MOL1         0.0794
      40    H19     16.031989   18.179787   17.871730 H          1 MOL1         0.0794
      41    O10     15.154968   16.454104   18.648695 O.3        1 MOL1        -0.5486
      42    H20     15.402076   15.779994   19.320263 H          1 MOL1         0.3769
      43    C13     18.558968   24.185911   20.578460 C.3        1 MOL1         0.2972
      44    H21     19.011918   25.145481   20.300604 H          1 MOL1         0.0751
      45    O11     19.552058   23.249120   21.047013 O.3        1 MOL1        -0.3740
      46    C14     17.450016   24.376035   21.647767 C.3        1 MOL1         0.1003
      47    H22     16.660202   24.980562   21.183023 H          1 MOL1         0.0783
      48    O12     17.931244   25.071698   22.806781 O.3        1 MOL1        -0.5519
      49    H23     18.585109   24.474149   23.249181 H          1 MOL1         0.3769
      50    C15     16.831249   23.008181   22.028451 C.3        1 MOL1         0.1053
      51    H24     17.602565   22.398659   22.520731 H          1 MOL1         0.0783
      52    O13     15.728043   23.209392   22.918997 O.3        1 MOL1        -0.5519
      53    H25     16.061000   23.824561   23.608826 H          1 MOL1         0.3769
      54    C16     16.346743   22.251591   20.766036 C.3        1 MOL1         0.1018
      55    H26     15.421749   22.727475   20.416280 H          1 MOL1         0.0783
      56    C17     17.400636   22.250953   19.620888 C.3        1 MOL1         0.1043
      57    H27     18.224836   21.588692   19.911845 H          1 MOL1         0.0783
      58    O14     17.921137   23.591567   19.427035 O.3        1 MOL1        -0.3740
      59    C18     16.866357   21.728291   18.264125 C.3        1 MOL1         0.0138
      60    H28     16.803587   20.633810   18.308861 H          1 MOL1         0.0794
      61    H29     17.599581   21.975584   17.485013 H          1 MOL1         0.0794
      62    O15     15.584676   22.268696   17.922424 O.3        1 MOL1        -0.5486
      63    H30     14.907068   21.683407   18.324186 H          1 MOL1         0.3769
      64    C19     23.255149   22.554083   22.637650 C.3        1 MOL1         0.2972
      65    H31     24.253875   22.561056   23.092659 H          1 MOL1         0.0751
      66    O16     22.933337   21.253445   22.096969 O.3        1 MOL1        -0.3740
      67    C20     22.195759   22.960884   23.691009 C.3        1 MOL1         0.1003
      68    H32     22.386580   24.009102   23.954053 H          1 MOL1         0.0783
      69    O17     22.317198   22.166130   24.880133 O.3        1 MOL1        -0.5519
      70    H33     21.826857   21.314335   24.726081 H          1 MOL1         0.3769
      71    C21     20.783878   22.878511   23.064358 C.3        1 MOL1         0.1053
      72    H34     20.613592   21.842342   22.759602 H          1 MOL1         0.0783
      73    O18     19.777885   23.257353   24.009333 O.3        1 MOL1        -0.5519
      74    H35     19.432867   22.394793   24.368598 H          1 MOL1         0.3769
      75    C22     20.687181   23.748457   21.785099 C.3        1 MOL1         0.1018
      76    H36     20.571693   24.800911   22.072789 H          1 MOL1         0.0783
      77    C23     21.912756   23.566266   20.841449 C.3        1 MOL1         0.1043
      78    H37     21.771061   22.607955   20.333188 H          1 MOL1         0.0783
      79    O19     23.171881   23.519518   21.565871 O.3        1 MOL1        -0.3740
      80    C24     22.017723   24.650976   19.742357 C.3        1 MOL1         0.0138
      81    H38     21.149669   24.564376   19.074896 H          1 MOL1         0.0794
      82    H39     22.910320   24.446103   19.136323 H          1 MOL1         0.0794
      83    O20     22.092210   25.975763   20.285248 O.3        1 MOL1        -0.5486
      84    H40     21.226090   26.196107   20.686024 H          1 MOL1         0.3769
      85    C25     24.855043   17.714924   20.941979 C.3        1 MOL1         0.2972
      86    H41     25.578999   16.997329   20.535019 H          1 MOL1         0.0751
      87    O21     23.614226   17.075009   21.297725 O.3        1 MOL1        -0.3740
      88    C26     25.420469   18.383333   22.219594 C.3        1 MOL1         0.1003
      89    H42     26.371229   18.856831   21.942229 H          1 MOL1         0.0783
      90    O22     25.665997   17.399769   23.239002 O.3        1 MOL1        -0.5519
      91    H43     24.902953   16.768594   23.227767 H          1 MOL1         0.3769
      92    C27     24.479021   19.495064   22.752716 C.3        1 MOL1         0.1053
      93    H44     23.573404   19.022295   23.159062 H          1 MOL1         0.0783
      94    O23     25.169540   20.207828   23.783927 O.3        1 MOL1        -0.5519
      95    H45     25.486479   19.517946   24.406842 H          1 MOL1         0.3769
      96    C28     24.049618   20.471258   21.624025 C.3        1 MOL1         0.1018
      97    H46     24.906303   21.107832   21.367454 H          1 MOL1         0.0783
      98    C29     23.580009   19.715672   20.349731 C.3        1 MOL1         0.1043
      99    H47     22.641644   19.194770   20.579020 H          1 MOL1         0.0783
     100    O24     24.586821   18.749066   19.973451 O.3        1 MOL1        -0.3740
     101    C30     23.316234   20.626655   19.123495 C.3        1 MOL1         0.0138
     102    H48     22.278306   20.973157   19.165393 H          1 MOL1         0.0794
     103    H49     23.405297   20.021102   18.211663 H          1 MOL1         0.0794
     104    O25     24.200961   21.753357   19.055142 O.3        1 MOL1        -0.5486
     105    H50     24.026118   22.314960   19.844042 H          1 MOL1         0.3769
     106    C31     21.396868   13.656843   20.714611 C.3        1 MOL1         0.2972
     107    H51     20.981320   12.667917   20.485871 H          1 MOL1         0.0751
     108    O26     20.352709   14.634875   20.929057 O.3        1 MOL1        -0.3740
     109    C32     22.353472   13.596513   21.934047 C.3        1 MOL1         0.1003
     110    H52     23.219444   12.993744   21.630117 H          1 MOL1         0.0783
     111    O27     21.747572   12.968990   23.071723 O.3        1 MOL1        -0.5519
     112    H53     21.014648   13.563389   23.368994 H          1 MOL1         0.3769
     113    C33     22.867023   15.018242   22.267479 C.3        1 MOL1         0.1053
     114    H54     22.011613   15.639653   22.567070 H          1 MOL1         0.0783
     115    O28     23.817748   14.952855   23.336399 O.3        1 MOL1        -0.5519
     116    H55     23.414091   14.356461   24.005231 H          1 MOL1         0.3769
     117    C34     23.530693   15.661904   21.024090 C.3        1 MOL1         0.1018
     118    H56     24.524009   15.209115   20.907027 H          1 MOL1         0.0783
     119    C35     22.709024   15.470967   19.713210 C.3        1 MOL1         0.1043
     120    H57     21.857638   16.158739   19.742259 H          1 MOL1         0.0783
     121    O29     22.202519   14.114725   19.609290 O.3        1 MOL1        -0.3740
     122    C36     23.509713   15.789038   18.427680 C.3        1 MOL1         0.0138
     123    H58     23.663422   16.874638   18.371039 H          1 MOL1         0.0794
     124    H59     22.902601   15.502453   17.558530 H          1 MOL1         0.0794
     125    O30     24.774495   15.115149   18.396110 O.3        1 MOL1        -0.5486
     126    H60     25.199085   15.320043   17.534693 H          1 MOL1         0.3769
     127    C1      19.673829   19.811299   24.070521 C.2        1 MOL1         0.6115
     128    O1      20.728125   19.897168   24.667989 O.co2      1 MOL1        -0.6776
     129    O2      18.762941   20.605399   24.210516 O.co2      1 MOL1        -0.6776
     130    C2      19.578307   18.775183   22.957190 C.3        1 MOL1        -0.2013
     131    H1      18.646090   18.220460   23.103357 H          1 MOL1         0.0727
     132    H2      20.407162   18.068155   23.085163 H          1 MOL1         0.0727
     133    C3      19.618448   19.389538   21.535944 C.3        1 MOL1        -0.1910
     134    H3      18.701902   19.969296   21.377796 H          1 MOL1         0.0729
     135    H4      20.458407   20.090751   21.464414 H          1 MOL1         0.0729
     136    C4      19.777904   18.314748   20.441752 C.3        1 MOL1        -0.1909
     137    H5      18.999330   17.551693   20.549245 H          1 MOL1         0.0729
     138    H6      20.737749   17.807341   20.590081 H          1 MOL1         0.0729
     139    C5      19.715510   18.918276   19.023455 C.3        1 MOL1        -0.1884
     140    H7      18.716387   19.330374   18.842179 H          1 MOL1         0.0729
     141    H8      20.417298   19.756165   18.941582 H          1 MOL1         0.0729
     142    C6      20.042050   17.873074   17.939438 C.3        1 MOL1        -0.2899
     143    H9      19.395873   16.990910   18.029120 H          1 MOL1         0.0741
     144    H10     19.901313   18.299153   16.937865 H          1 MOL1         0.0741
     145    H11     21.084412   17.543478   18.019309 H          1 MOL1         0.0741
@<TRIPOS>BOND
    1     1     2    1
    2     1     3    1
    3     1     4    1
    4     4     5    1
    5     4     6    1
    6     6     7    1
    7     4     8    1
    8     8     9    1
    9     8    10    1
   10    10    11    1
   11     8    12    1
   12    12    13    1
   13    12    14    1
   14    14    15    1
   15     1    16    1
   16    14    16    1
   17    14    17    1
   18    17    18    1
   19    17    19    1
   20    17    20    1
   21    20    21    1
   22    22    23    1
   23    22    24    1
   24    22    25    1
   25    25    26    1
   26    25    27    1
   27    27    28    1
   28    25    29    1
   29    29    30    1
   30    29    31    1
   31    31    32    1
   32     3    33    1
   33    29    33    1
   34    33    34    1
   35    33    35    1
   36    35    36    1
   37    22    37    1
   38    35    37    1
   39    35    38    1
   40    38    39    1
   41    38    40    1
   42    38    41    1
   43    41    42    1
   44    43    44    1
   45    43    45    1
   46    43    46    1
   47    46    47    1
   48    46    48    1
   49    48    49    1
   50    46    50    1
   51    50    51    1
   52    50    52    1
   53    52    53    1
   54    24    54    1
   55    50    54    1
   56    54    55    1
   57    54    56    1
   58    56    57    1
   59    43    58    1
   60    56    58    1
   61    56    59    1
   62    59    60    1
   63    59    61    1
   64    59    62    1
   65    62    63    1
   66    64    65    1
   67    64    66    1
   68    64    67    1
   69    67    68    1
   70    67    69    1
   71    69    70    1
   72    67    71    1
   73    71    72    1
   74    71    73    1
   75    73    74    1
   76    45    75    1
   77    71    75    1
   78    75    76    1
   79    75    77    1
   80    77    78    1
   81    64    79    1
   82    77    79    1
   83    77    80    1
   84    80    81    1
   85    80    82    1
   86    80    83    1
   87    83    84    1
   88    85    86    1
   89    85    87    1
   90    85    88    1
   91    88    89    1
   92    88    90    1
   93    90    91    1
   94    88    92    1
   95    92    93    1
   96    92    94    1
   97    94    95    1
   98    66    96    1
   99    92    96    1
  100    96    97    1
  101    96    98    1
  102    98    99    1
  103    85   100    1
  104    98   100    1
  105    98   101    1
  106   101   102    1
  107   101   103    1
  108   101   104    1
  109   104   105    1
  110   106   107    1
  111    12   108    1
  112   106   108    1
  113   106   109    1
  114   109   110    1
  115   109   111    1
  116   111   112    1
  117   109   113    1
  118   113   114    1
  119   113   115    1
  120   115   116    1
  121    87   117    1
  122   113   117    1
  123   117   118    1
  124   117   119    1
  125   119   120    1
  126   106   121    1
  127   119   121    1
  128   119   122    1
  129   122   123    1
  130   122   124    1
  131   122   125    1
  132   125   126    1
  133   127   128    1
  134   127   129    2
  135   127   130    1
  136   130   131    1
  137   130   132    1
  138   130   133    1
  139   133   134    1
  140   133   135    1
  141   133   136    1
  142   136   137    1
  143   136   138    1
  144   136   139    1
  145   139   140    1
  146   139   141    1
  147   139   142    1
  148   142   143    1
  149   142   144    1
  150   142   145    1
@<TRIPOS>SUBSTRUCTURE
       1 MOL1            1 RESIDUE      1      MOL     
       2 MOL1          145 RESIDUE      1      MOL     
@<SCITEGIC>MOL_PROPERTY
feprocess Rank
SciTegic.value.IntegerValue
1

@<SCITEGIC>MOL_PROPERTY
Conf_Id
SciTegic.value.IntegerValue
1

@<SCITEGIC>MOL_PROPERTY
Probability
SciTegic.value.DoubleValue
100.00

@<SCITEGIC>MOL_PROPERTY
G
SciTegic.value.DoubleValue
503.736

@<SCITEGIC>MOL_PROPERTY
E
SciTegic.value.DoubleValue
316.547

@<SCITEGIC>MOL_PROPERTY
-TS
SciTegic.value.DoubleValue
187.189

@<SCITEGIC>MOL_PROPERTY
U+W
SciTegic.value.DoubleValue
188.670

@<SCITEGIC>MOL_PROPERTY
U
SciTegic.value.DoubleValue
262.120

@<SCITEGIC>MOL_PROPERTY
W
SciTegic.value.DoubleValue
-73.449

@<SCITEGIC>MOL_PROPERTY
W(PB)
SciTegic.value.DoubleValue
-79.423

@<SCITEGIC>MOL_PROPERTY
W(SA)
SciTegic.value.DoubleValue
5.974

@<SCITEGIC>MOL_PROPERTY
Valence
SciTegic.value.DoubleValue
155.020

@<SCITEGIC>MOL_PROPERTY
Coulomb
SciTegic.value.DoubleValue
134.103

@<SCITEGIC>MOL_PROPERTY
VdW
SciTegic.value.DoubleValue
-27.004

@<SCITEGIC>MOL_PROPERTY
VdW6
SciTegic.value.DoubleValue
-185.320

@<SCITEGIC>MOL_PROPERTY
VdW12
SciTegic.value.DoubleValue
158.317

@<SCITEGIC>MOL_PROPERTY
Bond
SciTegic.value.DoubleValue
4.975

@<SCITEGIC>MOL_PROPERTY
Angle
SciTegic.value.DoubleValue
15.592

@<SCITEGIC>MOL_PROPERTY
Pdih
SciTegic.value.DoubleValue
134.400

@<SCITEGIC>MOL_PROPERTY
Idih
SciTegic.value.DoubleValue
0.053

@<SCITEGIC>MOL_PROPERTY
Tether
SciTegic.value.DoubleValue
0.000

