@<TRIPOS>MOLECULE
CD_guest-4_fast_vm2_single.mol2 : feprocess host+ligand conformer 1
         142         148           2
SMALL
USER_CHARGES
 
@<TRIPOS>ATOM
       1    C1      16.038021   15.058827   20.953226 C.3        1 MOL1         0.2972
       2    H1      14.959617   14.909805   20.819246 H          1 MOL1         0.0751
       3    O1      16.354749   16.425999   21.287252 O.3        1 MOL1        -0.3740
       4    C2      16.591940   14.130036   22.063640 C.3        1 MOL1         0.1003
       5    H2      16.447568   13.095752   21.724906 H          1 MOL1         0.0783
       6    O2      15.893452   14.311091   23.304077 O.3        1 MOL1        -0.5519
       7    H3      15.864727   15.283419   23.492128 H          1 MOL1         0.3769
       8    C3      18.111470   14.359310   22.245555 C.3        1 MOL1         0.1053
       9    H4      18.264098   15.382560   22.611842 H          1 MOL1         0.0783
      10    O3      18.626113   13.423464   23.198128 O.3        1 MOL1        -0.5519
      11    H5      17.971864   13.422553   23.932313 H          1 MOL1         0.3769
      12    C4      18.861409   14.205796   20.898780 C.3        1 MOL1         0.1018
      13    H6      18.919348   13.135681   20.660285 H          1 MOL1         0.0783
      14    C5      18.168730   14.971563   19.733641 C.3        1 MOL1         0.1043
      15    H7      18.342069   16.045535   19.876720 H          1 MOL1         0.0783
      16    O4      16.738760   14.723558   19.736988 O.3        1 MOL1        -0.3740
      17    C6      18.724976   14.598104   18.338739 C.3        1 MOL1         0.0138
      18    H8      19.739999   15.007021   18.247076 H          1 MOL1         0.0794
      19    H9      18.107049   15.085707   17.572970 H          1 MOL1         0.0794
      20    O5      18.751785   13.180340   18.129049 O.3        1 MOL1        -0.5486
      21    H10     19.071319   13.021041   17.214239 H          1 MOL1         0.3769
      22    C7      14.939712   20.226696   22.035516 C.3        1 MOL1         0.2972
      23    H11     14.340742   21.123099   22.241025 H          1 MOL1         0.0751
      24    O6      16.317041   20.573387   21.778833 O.3        1 MOL1        -0.3740
      25    C8      14.860822   19.264169   23.246476 C.3        1 MOL1         0.1003
      26    H12     13.805093   18.997763   23.385191 H          1 MOL1         0.0783
      27    O7      15.352188   19.891255   24.439655 O.3        1 MOL1        -0.5519
      28    H13     16.320173   20.038022   24.297213 H          1 MOL1         0.3769
      29    C9      15.655116   17.970791   22.976627 C.3        1 MOL1         0.1053
      30    H14     16.709200   18.252907   22.919686 H          1 MOL1         0.0783
      31    O8      15.455695   17.059141   24.060009 O.3        1 MOL1        -0.5519
      32    H15     15.578398   17.600768   24.871766 H          1 MOL1         0.3769
      33    C10     15.265430   17.307306   21.633657 C.3        1 MOL1         0.1018
      34    H16     14.316390   16.771954   21.764070 H          1 MOL1         0.0783
      35    C11     15.156565   18.336339   20.474480 C.3        1 MOL1         0.1043
      36    H17     16.179653   18.621851   20.210349 H          1 MOL1         0.0783
      37    O9      14.429035   19.526817   20.878213 O.3        1 MOL1        -0.3740
      38    C12     14.497215   17.763171   19.196003 C.3        1 MOL1         0.0138
      39    H18     15.147815   16.980691   18.781950 H          1 MOL1         0.0794
      40    H19     14.438794   18.562547   18.445590 H          1 MOL1         0.0794
      41    O10     13.188448   17.233969   19.444058 O.3        1 MOL1        -0.5486
      42    H20     13.286850   16.379337   19.911975 H          1 MOL1         0.3769
      43    C13     18.548895   23.942220   20.642066 C.3        1 MOL1         0.2972
      44    H21     18.874208   24.878281   20.170113 H          1 MOL1         0.0751
      45    O11     19.620190   23.321386   21.379181 O.3        1 MOL1        -0.3740
      46    C14     17.408202   24.218308   21.652995 C.3        1 MOL1         0.1003
      47    H22     16.600335   24.721454   21.105922 H          1 MOL1         0.0783
      48    O12     17.878748   25.077489   22.704704 O.3        1 MOL1        -0.5519
      49    H23     18.792469   24.774251   22.927070 H          1 MOL1         0.3769
      50    C15     16.834913   22.905546   22.250610 C.3        1 MOL1         0.1053
      51    H24     17.589742   22.473173   22.920949 H          1 MOL1         0.0783
      52    O13     15.652108   23.225447   22.989381 O.3        1 MOL1        -0.5519
      53    H25     15.910146   23.961884   23.585832 H          1 MOL1         0.3769
      54    C16     16.515850   21.858397   21.149023 C.3        1 MOL1         0.1018
      55    H26     15.619433   22.183432   20.604760 H          1 MOL1         0.0783
      56    C17     17.687316   21.710431   20.142665 C.3        1 MOL1         0.1043
      57    H27     18.538935   21.270440   20.670515 H          1 MOL1         0.0783
      58    O14     18.053571   23.018505   19.650277 O.3        1 MOL1        -0.3740
      59    C18     17.386245   20.801153   18.925048 C.3        1 MOL1         0.0138
      60    H28     17.625805   19.766372   19.198072 H          1 MOL1         0.0794
      61    H29     18.066756   21.073765   18.107497 H          1 MOL1         0.0794
      62    O15     16.026124   20.890529   18.480694 O.3        1 MOL1        -0.5486
      63    H30     15.452111   20.577712   19.216687 H          1 MOL1         0.3769
      64    C19     23.732866   22.847850   21.359717 C.3        1 MOL1         0.2972
      65    H31     24.820363   22.948805   21.250381 H          1 MOL1         0.0751
      66    O16     23.357582   21.516384   21.765083 O.3        1 MOL1        -0.3740
      67    C20     23.197267   23.839089   22.421698 C.3        1 MOL1         0.1003
      68    H32     23.454908   24.852432   22.087370 H          1 MOL1         0.0783
      69    O17     23.805062   23.589349   23.700160 O.3        1 MOL1        -0.5519
      70    H33     23.788196   22.609980   23.848077 H          1 MOL1         0.3769
      71    C21     21.655707   23.748546   22.533983 C.3        1 MOL1         0.1053
      72    H34     21.412799   22.780005   22.983204 H          1 MOL1         0.0783
      73    O18     21.173067   24.797176   23.381310 O.3        1 MOL1        -0.5519
      74    H35     21.759022   24.780639   24.170104 H          1 MOL1         0.3769
      75    C22     20.952784   23.826986   21.154037 C.3        1 MOL1         0.1018
      76    H36     20.940906   24.878651   20.839383 H          1 MOL1         0.0783
      77    C23     21.647793   22.950957   20.068835 C.3        1 MOL1         0.1043
      78    H37     21.424906   21.897900   20.281665 H          1 MOL1         0.0783
      79    O19     23.081194   23.149455   20.110932 O.3        1 MOL1        -0.3740
      80    C24     21.189201   23.242892   18.618922 C.3        1 MOL1         0.0138
      81    H38     20.199408   22.798944   18.462024 H          1 MOL1         0.0794
      82    H39     21.876866   22.736190   17.928653 H          1 MOL1         0.0794
      83    O20     21.148233   24.646896   18.332948 O.3        1 MOL1        -0.5486
      84    H40     20.893129   24.750900   17.390486 H          1 MOL1         0.3769
      85    C25     24.893865   17.692460   22.165940 C.3        1 MOL1         0.2972
      86    H41     25.524423   16.803108   22.295280 H          1 MOL1         0.0751
      87    O21     23.527531   17.333329   21.883290 O.3        1 MOL1        -0.3740
      88    C26     24.918270   18.541233   23.459987 C.3        1 MOL1         0.1003
      89    H42     25.956412   18.851426   23.636479 H          1 MOL1         0.0783
      90    O22     24.455346   17.763195   24.575492 O.3        1 MOL1        -0.5519
      91    H43     23.972270   16.987754   24.199132 H          1 MOL1         0.3769
      92    C27     24.056503   19.812682   23.293165 C.3        1 MOL1         0.1053
      93    H44     23.014039   19.489708   23.203227 H          1 MOL1         0.0783
      94    O23     24.203246   20.653955   24.442187 O.3        1 MOL1        -0.5519
      95    H45     24.117845   20.047381   25.211172 H          1 MOL1         0.3769
      96    C28     24.440869   20.598073   22.015550 C.3        1 MOL1         0.1018
      97    H46     25.387641   21.120301   22.207122 H          1 MOL1         0.0783
      98    C29     24.580053   19.682285   20.766158 C.3        1 MOL1         0.1043
      99    H47     23.570505   19.369922   20.474167 H          1 MOL1         0.0783
     100    O24     25.372957   18.505893   21.075036 O.3        1 MOL1        -0.3740
     101    C30     25.217712   20.385805   19.544083 C.3        1 MOL1         0.0138
     102    H48     24.497365   21.109571   19.140593 H          1 MOL1         0.0794
     103    H49     25.396852   19.636534   18.761238 H          1 MOL1         0.0794
     104    O25     26.439653   21.052881   19.883919 O.3        1 MOL1        -0.5486
     105    H50     26.817409   21.422023   19.056059 H          1 MOL1         0.3769
     106    C31     21.297059   14.022284   20.630783 C.3        1 MOL1         0.2972
     107    H51     20.990128   13.066364   20.187408 H          1 MOL1         0.0751
     108    O26     20.165840   14.787981   21.090746 O.3        1 MOL1        -0.3740
     109    C32     22.224243   13.788111   21.852760 C.3        1 MOL1         0.1003
     110    H52     23.105171   13.238122   21.497085 H          1 MOL1         0.0783
     111    O27     21.561145   13.010890   22.862806 O.3        1 MOL1        -0.5519
     112    H53     20.629978   13.343317   22.929652 H          1 MOL1         0.3769
     113    C33     22.709133   15.138265   22.438413 C.3        1 MOL1         0.1053
     114    H54     21.838836   15.669221   22.847100 H          1 MOL1         0.0783
     115    O28     23.663197   14.900564   23.478724 O.3        1 MOL1        -0.5519
     116    H55     23.277579   14.172569   24.015779 H          1 MOL1         0.3769
     117    C34     23.338010   16.018100   21.330928 C.3        1 MOL1         0.1018
     118    H56     24.287342   15.563526   21.017883 H          1 MOL1         0.0783
     119    C35     22.407936   16.141470   20.093939 C.3        1 MOL1         0.1043
     120    H57     21.512593   16.698567   20.388369 H          1 MOL1         0.0783
     121    O29     22.023254   14.813631   19.662233 O.3        1 MOL1        -0.3740
     122    C36     23.029240   16.895312   18.889198 C.3        1 MOL1         0.0138
     123    H58     22.797792   17.962633   18.990809 H          1 MOL1         0.0794
     124    H59     22.535221   16.552571   17.970272 H          1 MOL1         0.0794
     125    O30     24.447347   16.719483   18.778792 O.3        1 MOL1        -0.5486
     126    H60     24.863561   17.222572   19.517329 H          1 MOL1         0.3769
     127    C1      20.398574   19.334808   21.727150 C.3        1 MOL1        -0.1689
     128    H1      20.251576   19.878489   20.786863 H          1 MOL1         0.0830
     129    H2      21.414490   18.923744   21.720670 H          1 MOL1         0.0830
     130    C2      19.391762   18.195202   21.911256 C.3        1 MOL1        -0.1689
     131    H3      18.399373   18.531549   21.587378 H          1 MOL1         0.0830
     132    H4      19.652363   17.301091   21.339661 H          1 MOL1         0.0830
     133    C3      19.405218   17.945790   23.429012 C.3        1 MOL1        -0.1765
     134    H5      20.271688   17.323819   23.686848 H          1 MOL1         0.0830
     135    H6      18.509987   17.425657   23.788540 H          1 MOL1         0.0830
     136    C4      19.579440   19.333163   24.069645 C.3        1 MOL1         0.1214
     137    H7      20.252827   19.259955   24.935645 H          1 MOL1         0.0787
     138    C5      20.200663   20.223110   22.973307 C.3        1 MOL1        -0.1765
     139    H8      19.530160   21.056752   22.736846 H          1 MOL1         0.0830
     140    H9      21.151130   20.646539   23.312212 H          1 MOL1         0.0830
     141    O1      18.315167   19.861221   24.461515 O.3        1 MOL1        -0.5512
     142    H10     18.504988   20.719250   24.890935 H          1 MOL1         0.3776
@<TRIPOS>BOND
    1     1     2    1
    2     1     3    1
    3     1     4    1
    4     4     5    1
    5     4     6    1
    6     6     7    1
    7     4     8    1
    8     8     9    1
    9     8    10    1
   10    10    11    1
   11     8    12    1
   12    12    13    1
   13    12    14    1
   14    14    15    1
   15     1    16    1
   16    14    16    1
   17    14    17    1
   18    17    18    1
   19    17    19    1
   20    17    20    1
   21    20    21    1
   22    22    23    1
   23    22    24    1
   24    22    25    1
   25    25    26    1
   26    25    27    1
   27    27    28    1
   28    25    29    1
   29    29    30    1
   30    29    31    1
   31    31    32    1
   32     3    33    1
   33    29    33    1
   34    33    34    1
   35    33    35    1
   36    35    36    1
   37    22    37    1
   38    35    37    1
   39    35    38    1
   40    38    39    1
   41    38    40    1
   42    38    41    1
   43    41    42    1
   44    43    44    1
   45    43    45    1
   46    43    46    1
   47    46    47    1
   48    46    48    1
   49    48    49    1
   50    46    50    1
   51    50    51    1
   52    50    52    1
   53    52    53    1
   54    24    54    1
   55    50    54    1
   56    54    55    1
   57    54    56    1
   58    56    57    1
   59    43    58    1
   60    56    58    1
   61    56    59    1
   62    59    60    1
   63    59    61    1
   64    59    62    1
   65    62    63    1
   66    64    65    1
   67    64    66    1
   68    64    67    1
   69    67    68    1
   70    67    69    1
   71    69    70    1
   72    67    71    1
   73    71    72    1
   74    71    73    1
   75    73    74    1
   76    45    75    1
   77    71    75    1
   78    75    76    1
   79    75    77    1
   80    77    78    1
   81    64    79    1
   82    77    79    1
   83    77    80    1
   84    80    81    1
   85    80    82    1
   86    80    83    1
   87    83    84    1
   88    85    86    1
   89    85    87    1
   90    85    88    1
   91    88    89    1
   92    88    90    1
   93    90    91    1
   94    88    92    1
   95    92    93    1
   96    92    94    1
   97    94    95    1
   98    66    96    1
   99    92    96    1
  100    96    97    1
  101    96    98    1
  102    98    99    1
  103    85   100    1
  104    98   100    1
  105    98   101    1
  106   101   102    1
  107   101   103    1
  108   101   104    1
  109   104   105    1
  110   106   107    1
  111    12   108    1
  112   106   108    1
  113   106   109    1
  114   109   110    1
  115   109   111    1
  116   111   112    1
  117   109   113    1
  118   113   114    1
  119   113   115    1
  120   115   116    1
  121    87   117    1
  122   113   117    1
  123   117   118    1
  124   117   119    1
  125   119   120    1
  126   106   121    1
  127   119   121    1
  128   119   122    1
  129   122   123    1
  130   122   124    1
  131   122   125    1
  132   125   126    1
  133   127   128    1
  134   127   129    1
  135   127   130    1
  136   130   131    1
  137   130   132    1
  138   130   133    1
  139   133   134    1
  140   133   135    1
  141   133   136    1
  142   136   137    1
  143   127   138    1
  144   136   138    1
  145   138   139    1
  146   138   140    1
  147   136   141    1
  148   141   142    1
@<TRIPOS>SUBSTRUCTURE
       1 MOL1            1 RESIDUE      1      MOL     
       2 MOL1          142 RESIDUE      1      MOL     
@<SCITEGIC>MOL_PROPERTY
feprocess Rank
SciTegic.value.IntegerValue
1

@<SCITEGIC>MOL_PROPERTY
Conf_Id
SciTegic.value.IntegerValue
1

@<SCITEGIC>MOL_PROPERTY
Probability
SciTegic.value.DoubleValue
100.00

@<SCITEGIC>MOL_PROPERTY
G
SciTegic.value.DoubleValue
558.976

@<SCITEGIC>MOL_PROPERTY
E
SciTegic.value.DoubleValue
374.527

@<SCITEGIC>MOL_PROPERTY
-TS
SciTegic.value.DoubleValue
184.449

@<SCITEGIC>MOL_PROPERTY
U+W
SciTegic.value.DoubleValue
249.333

@<SCITEGIC>MOL_PROPERTY
U
SciTegic.value.DoubleValue
290.034

@<SCITEGIC>MOL_PROPERTY
W
SciTegic.value.DoubleValue
-40.701

@<SCITEGIC>MOL_PROPERTY
W(PB)
SciTegic.value.DoubleValue
-46.691

@<SCITEGIC>MOL_PROPERTY
W(SA)
SciTegic.value.DoubleValue
5.990

@<SCITEGIC>MOL_PROPERTY
Valence
SciTegic.value.DoubleValue
159.118

@<SCITEGIC>MOL_PROPERTY
Coulomb
SciTegic.value.DoubleValue
156.591

@<SCITEGIC>MOL_PROPERTY
VdW
SciTegic.value.DoubleValue
-25.675

@<SCITEGIC>MOL_PROPERTY
VdW6
SciTegic.value.DoubleValue
-172.683

@<SCITEGIC>MOL_PROPERTY
VdW12
SciTegic.value.DoubleValue
147.009

@<SCITEGIC>MOL_PROPERTY
Bond
SciTegic.value.DoubleValue
4.538

@<SCITEGIC>MOL_PROPERTY
Angle
SciTegic.value.DoubleValue
15.530

@<SCITEGIC>MOL_PROPERTY
Pdih
SciTegic.value.DoubleValue
139.051

@<SCITEGIC>MOL_PROPERTY
Idih
SciTegic.value.DoubleValue
0.000

@<SCITEGIC>MOL_PROPERTY
Tether
SciTegic.value.DoubleValue
0.000

