@<TRIPOS>MOLECULE
CD_guest-s13_fast_vm2_single.mol2 : feprocess host+ligand conformer 1
         152         157           2
SMALL
USER_CHARGES
 
@<TRIPOS>ATOM
       1    C1      16.183474   15.103459   21.338258 C.3        1 MOL1         0.2972
       2    H1      15.129903   14.837780   21.183396 H          1 MOL1         0.0751
       3    O1      16.339136   16.521141   21.554525 O.3        1 MOL1        -0.3740
       4    C2      16.721291   14.376070   22.595704 C.3        1 MOL1         0.1003
       5    H2      16.592692   13.297844   22.433922 H          1 MOL1         0.0783
       6    O2      15.973800   14.775761   23.754928 O.3        1 MOL1        -0.5519
       7    H3      15.704137   15.712922   23.604306 H          1 MOL1         0.3769
       8    C3      18.229813   14.650878   22.809995 C.3        1 MOL1         0.1053
       9    H4      18.349947   15.707702   23.072056 H          1 MOL1         0.0783
      10    O3      18.701213   13.831571   23.885639 O.3        1 MOL1        -0.5519
      11    H5      17.992496   13.879229   24.566997 H          1 MOL1         0.3769
      12    C4      19.039035   14.388020   21.512901 C.3        1 MOL1         0.1018
      13    H6      19.101317   13.306000   21.338721 H          1 MOL1         0.0783
      14    C5      18.385571   15.066551   20.280634 C.3        1 MOL1         0.1043
      15    H7      18.468542   16.151445   20.413916 H          1 MOL1         0.0783
      16    O4      16.983298   14.709994   20.201503 O.3        1 MOL1        -0.3740
      17    C6      19.076046   14.715368   18.937603 C.3        1 MOL1         0.0138
      18    H8      19.994797   15.310648   18.852595 H          1 MOL1         0.0794
      19    H9      18.418365   15.016911   18.111992 H          1 MOL1         0.0794
      20    O5      19.395707   13.324124   18.823311 O.3        1 MOL1        -0.5486
      21    H10     20.139364   13.142282   19.438205 H          1 MOL1         0.3769
      22    C7      14.827777   20.244711   20.500903 C.3        1 MOL1         0.2972
      23    H11     14.239855   21.082822   20.104938 H          1 MOL1         0.0751
      24    O6      16.101876   20.686348   21.018976 O.3        1 MOL1        -0.3740
      25    C8      14.057702   19.518781   21.633471 C.3        1 MOL1         0.1003
      26    H12     13.117590   19.148535   21.204266 H          1 MOL1         0.0783
      27    O7      13.759425   20.414429   22.716218 O.3        1 MOL1        -0.5519
      28    H13     14.600760   20.877119   22.961602 H          1 MOL1         0.3769
      29    C9      14.859728   18.298249   22.147429 C.3        1 MOL1         0.1053
      30    H14     15.753939   18.676755   22.654434 H          1 MOL1         0.0783
      31    O8      14.063920   17.556728   23.077341 O.3        1 MOL1        -0.5519
      32    H15     13.666558   18.231299   23.671677 H          1 MOL1         0.3769
      33    C10     15.316354   17.371066   20.991365 C.3        1 MOL1         0.1018
      34    H16     14.443808   16.799371   20.649271 H          1 MOL1         0.0783
      35    C11     15.925874   18.164961   19.798868 C.3        1 MOL1         0.1043
      36    H17     16.895423   18.551465   20.120059 H          1 MOL1         0.0783
      37    O9      15.067698   19.278744   19.456131 O.3        1 MOL1        -0.3740
      38    C12     16.178727   17.348022   18.505923 C.3        1 MOL1         0.0138
      39    H18     17.192863   16.936019   18.545925 H          1 MOL1         0.0794
      40    H19     16.153396   18.034895   17.649324 H          1 MOL1         0.0794
      41    O10     15.238014   16.288149   18.308088 O.3        1 MOL1        -0.5486
      42    H20     15.572395   15.515529   18.818690 H          1 MOL1         0.3769
      43    C13     18.425010   24.108636   21.465515 C.3        1 MOL1         0.2972
      44    H21     18.819699   25.131121   21.526186 H          1 MOL1         0.0751
      45    O11     19.489124   23.131561   21.423464 O.3        1 MOL1        -0.3740
      46    C14     17.478728   23.798318   22.656074 C.3        1 MOL1         0.1003
      47    H22     16.618088   24.474428   22.569000 H          1 MOL1         0.0783
      48    O12     18.111534   24.026405   23.922994 O.3        1 MOL1        -0.5519
      49    H23     18.916028   23.450150   23.958833 H          1 MOL1         0.3769
      50    C15     16.951159   22.346684   22.550141 C.3        1 MOL1         0.1053
      51    H24     17.808571   21.666997   22.632941 H          1 MOL1         0.0783
      52    O13     16.023017   22.091672   23.608980 O.3        1 MOL1        -0.5519
      53    H25     16.436093   22.483730   24.410608 H          1 MOL1         0.3769
      54    C16     16.264959   22.112392   21.180735 C.3        1 MOL1         0.1018
      55    H26     15.298221   22.633414   21.192478 H          1 MOL1         0.0783
      56    C17     17.128357   22.627820   19.992785 C.3        1 MOL1         0.1043
      57    H27     17.978965   21.947793   19.872690 H          1 MOL1         0.0783
      58    O14     17.635612   23.958992   20.265775 O.3        1 MOL1        -0.3740
      59    C18     16.367318   22.664036   18.645485 C.3        1 MOL1         0.0138
      60    H28     16.201313   21.632274   18.308166 H          1 MOL1         0.0794
      61    H29     17.003940   23.153773   17.896472 H          1 MOL1         0.0794
      62    O15     15.111088   23.344863   18.754175 O.3        1 MOL1        -0.5486
      63    H30     14.721647   23.398313   17.854247 H          1 MOL1         0.3769
      64    C19     23.549166   22.499419   21.958961 C.3        1 MOL1         0.2972
      65    H31     24.619670   22.574425   22.187063 H          1 MOL1         0.0751
      66    O16     23.255649   21.330383   21.162077 O.3        1 MOL1        -0.3740
      67    C20     22.715496   22.446096   23.266689 C.3        1 MOL1         0.1003
      68    H32     22.922141   23.368099   23.825656 H          1 MOL1         0.0783
      69    O17     23.050047   21.306938   24.079344 O.3        1 MOL1        -0.5519
      70    H33     23.988124   21.075226   23.877181 H          1 MOL1         0.3769
      71    C21     21.210328   22.398664   22.938912 C.3        1 MOL1         0.1053
      72    H34     21.038377   21.447939   22.430966 H          1 MOL1         0.0783
      73    O18     20.471237   22.441046   24.161520 O.3        1 MOL1        -0.5519
      74    H35     20.996379   21.883943   24.780364 H          1 MOL1         0.3769
      75    C22     20.766776   23.525065   21.973990 C.3        1 MOL1         0.1018
      76    H36     20.705032   24.467360   22.534441 H          1 MOL1         0.0783
      77    C23     21.742584   23.673897   20.771912 C.3        1 MOL1         0.1043
      78    H37     21.586532   22.819624   20.099995 H          1 MOL1         0.0783
      79    O19     23.121343   23.667109   21.223829 O.3        1 MOL1        -0.3740
      80    C24     21.499991   24.958711   19.944375 C.3        1 MOL1         0.0138
      81    H38     20.550726   24.848915   19.402486 H          1 MOL1         0.0794
      82    H39     22.296538   25.048070   19.193607 H          1 MOL1         0.0794
      83    O20     21.455480   26.131546   20.767046 O.3        1 MOL1        -0.5486
      84    H40     21.370284   26.909005   20.172891 H          1 MOL1         0.3769
      85    C25     24.996536   17.629188   20.376026 C.3        1 MOL1         0.2972
      86    H41     25.618329   16.791308   20.035496 H          1 MOL1         0.0751
      87    O21     23.694829   17.175402   20.805377 O.3        1 MOL1        -0.3740
      88    C26     25.697166   18.428209   21.508244 C.3        1 MOL1         0.1003
      89    H42     26.614437   18.848648   21.075432 H          1 MOL1         0.0783
      90    O22     26.059827   17.598876   22.621702 O.3        1 MOL1        -0.5519
      91    H43     25.214510   17.300011   23.041666 H          1 MOL1         0.3769
      92    C27     24.814439   19.611392   21.976768 C.3        1 MOL1         0.1053
      93    H44     23.910730   19.199319   22.445237 H          1 MOL1         0.0783
      94    O23     25.559080   20.373155   22.934418 O.3        1 MOL1        -0.5519
      95    H45     26.048807   19.703588   23.464948 H          1 MOL1         0.3769
      96    C28     24.374412   20.499836   20.776817 C.3        1 MOL1         0.1018
      97    H46     25.226559   21.110371   20.452445 H          1 MOL1         0.0783
      98    C29     23.868320   19.650319   19.577777 C.3        1 MOL1         0.1043
      99    H47     22.896323   19.229167   19.857678 H          1 MOL1         0.0783
     100    O24     24.787164   18.563986   19.295117 O.3        1 MOL1        -0.3740
     101    C30     23.642778   20.468905   18.282692 C.3        1 MOL1         0.0138
     102    H48     22.752799   21.098410   18.417489 H          1 MOL1         0.0794
     103    H49     23.424054   19.770896   17.463737 H          1 MOL1         0.0794
     104    O25     24.767833   21.288142   17.942686 O.3        1 MOL1        -0.5486
     105    H50     24.786445   22.040954   18.571675 H          1 MOL1         0.3769
     106    C31     21.351641   14.152901   22.270741 C.3        1 MOL1         0.2972
     107    H51     20.914429   13.243885   22.703179 H          1 MOL1         0.0751
     108    O26     20.346827   14.979358   21.647918 O.3        1 MOL1        -0.3740
     109    C32     22.066492   14.975983   23.371918 C.3        1 MOL1         0.1003
     110    H52     22.830323   14.328636   23.822210 H          1 MOL1         0.0783
     111    O27     21.142848   15.419310   24.384058 O.3        1 MOL1        -0.5519
     112    H53     20.390450   14.777800   24.384673 H          1 MOL1         0.3769
     113    C33     22.759859   16.213849   22.770638 C.3        1 MOL1         0.1053
     114    H54     21.960189   16.882044   22.453641 H          1 MOL1         0.0783
     115    O28     23.541329   16.850189   23.786835 O.3        1 MOL1        -0.5519
     116    H55     23.064582   16.664063   24.626599 H          1 MOL1         0.3769
     117    C34     23.607464   15.917448   21.509394 C.3        1 MOL1         0.1018
     118    H56     24.590117   15.534267   21.813495 H          1 MOL1         0.0783
     119    C35     22.913399   14.918125   20.540014 C.3        1 MOL1         0.1043
     120    H57     22.112335   15.457022   20.017777 H          1 MOL1         0.0783
     121    O29     22.331414   13.807723   21.269060 O.3        1 MOL1        -0.3740
     122    C36     23.861722   14.355260   19.454763 C.3        1 MOL1         0.0138
     123    H58     24.102338   15.163009   18.750440 H          1 MOL1         0.0794
     124    H59     23.327239   13.579080   18.890761 H          1 MOL1         0.0794
     125    O30     25.069139   13.823066   20.013546 O.3        1 MOL1        -0.5486
     126    H60     25.583657   13.418077   19.281378 H          1 MOL1         0.3769
     127    C1      19.302022   19.236823   16.898338 C.3        1 MOL1        -0.2398
     128    H1      18.839024   19.865880   16.127019 H          1 MOL1         0.0972
     129    H2      20.370771   19.148718   16.663213 H          1 MOL1         0.0972
     130    H3      18.854133   18.237100   16.830681 H          1 MOL1         0.0972
     131    C2      19.091510   19.849260   18.298341 C.3        1 MOL1        -0.1383
     132    H4      18.015515   19.959523   18.487672 H          1 MOL1         0.0961
     133    H5      19.526146   20.858455   18.322836 H          1 MOL1         0.0961
     134    C3      19.731537   18.980259   19.401283 C.3        1 MOL1        -0.1407
     135    H6      19.307514   17.970257   19.360948 H          1 MOL1         0.0961
     136    H7      20.804699   18.874098   19.201026 H          1 MOL1         0.0961
     137    C4      19.520661   19.576592   20.811526 C.3        1 MOL1        -0.1407
     138    H8      18.452155   19.665980   21.018609 H          1 MOL1         0.0961
     139    H9      19.924029   20.594570   20.831069 H          1 MOL1         0.0961
     140    C5      20.203900   18.716936   21.900023 C.3        1 MOL1        -0.1472
     141    H10     19.931181   17.663227   21.760344 H          1 MOL1         0.0961
     142    H11     21.287230   18.793095   21.740156 H          1 MOL1         0.0961
     143    C6      19.888544   19.125320   23.359257 C.3        1 MOL1         0.1190
     144    H12     20.060285   20.196345   23.466333 H          1 MOL1         0.0923
     145    C7      18.425849   18.854626   23.743957 C.3        1 MOL1        -0.2463
     146    H13     18.159305   17.802283   23.606623 H          1 MOL1         0.0972
     147    H14     17.743121   19.461587   23.143205 H          1 MOL1         0.0972
     148    H15     18.247793   19.116336   24.794102 H          1 MOL1         0.0972
     149    N1      20.822077   18.457772   24.333213 N.4        1 MOL1        -0.5974
     150    H16     21.799687   18.713615   24.147156 H          1 MOL1         0.3625
     151    H17     20.614442   18.736900   25.295913 H          1 MOL1         0.3625
     152    H18     20.755170   17.428325   24.290162 H          1 MOL1         0.3625
@<TRIPOS>BOND
    1     1     2    1
    2     1     3    1
    3     1     4    1
    4     4     5    1
    5     4     6    1
    6     6     7    1
    7     4     8    1
    8     8     9    1
    9     8    10    1
   10    10    11    1
   11     8    12    1
   12    12    13    1
   13    12    14    1
   14    14    15    1
   15     1    16    1
   16    14    16    1
   17    14    17    1
   18    17    18    1
   19    17    19    1
   20    17    20    1
   21    20    21    1
   22    22    23    1
   23    22    24    1
   24    22    25    1
   25    25    26    1
   26    25    27    1
   27    27    28    1
   28    25    29    1
   29    29    30    1
   30    29    31    1
   31    31    32    1
   32     3    33    1
   33    29    33    1
   34    33    34    1
   35    33    35    1
   36    35    36    1
   37    22    37    1
   38    35    37    1
   39    35    38    1
   40    38    39    1
   41    38    40    1
   42    38    41    1
   43    41    42    1
   44    43    44    1
   45    43    45    1
   46    43    46    1
   47    46    47    1
   48    46    48    1
   49    48    49    1
   50    46    50    1
   51    50    51    1
   52    50    52    1
   53    52    53    1
   54    24    54    1
   55    50    54    1
   56    54    55    1
   57    54    56    1
   58    56    57    1
   59    43    58    1
   60    56    58    1
   61    56    59    1
   62    59    60    1
   63    59    61    1
   64    59    62    1
   65    62    63    1
   66    64    65    1
   67    64    66    1
   68    64    67    1
   69    67    68    1
   70    67    69    1
   71    69    70    1
   72    67    71    1
   73    71    72    1
   74    71    73    1
   75    73    74    1
   76    45    75    1
   77    71    75    1
   78    75    76    1
   79    75    77    1
   80    77    78    1
   81    64    79    1
   82    77    79    1
   83    77    80    1
   84    80    81    1
   85    80    82    1
   86    80    83    1
   87    83    84    1
   88    85    86    1
   89    85    87    1
   90    85    88    1
   91    88    89    1
   92    88    90    1
   93    90    91    1
   94    88    92    1
   95    92    93    1
   96    92    94    1
   97    94    95    1
   98    66    96    1
   99    92    96    1
  100    96    97    1
  101    96    98    1
  102    98    99    1
  103    85   100    1
  104    98   100    1
  105    98   101    1
  106   101   102    1
  107   101   103    1
  108   101   104    1
  109   104   105    1
  110   106   107    1
  111    12   108    1
  112   106   108    1
  113   106   109    1
  114   109   110    1
  115   109   111    1
  116   111   112    1
  117   109   113    1
  118   113   114    1
  119   113   115    1
  120   115   116    1
  121    87   117    1
  122   113   117    1
  123   117   118    1
  124   117   119    1
  125   119   120    1
  126   106   121    1
  127   119   121    1
  128   119   122    1
  129   122   123    1
  130   122   124    1
  131   122   125    1
  132   125   126    1
  133   127   128    1
  134   127   129    1
  135   127   130    1
  136   127   131    1
  137   131   132    1
  138   131   133    1
  139   131   134    1
  140   134   135    1
  141   134   136    1
  142   134   137    1
  143   137   138    1
  144   137   139    1
  145   137   140    1
  146   140   141    1
  147   140   142    1
  148   140   143    1
  149   143   144    1
  150   143   145    1
  151   145   146    1
  152   145   147    1
  153   145   148    1
  154   143   149    1
  155   149   150    1
  156   149   151    1
  157   149   152    1
@<TRIPOS>SUBSTRUCTURE
       1 MOL1            1 RESIDUE      1      MOL     
       2 MOL1          152 RESIDUE      1      MOL     
@<SCITEGIC>MOL_PROPERTY
feprocess Rank
SciTegic.value.IntegerValue
1

@<SCITEGIC>MOL_PROPERTY
Conf_Id
SciTegic.value.IntegerValue
1

@<SCITEGIC>MOL_PROPERTY
Probability
SciTegic.value.DoubleValue
100.00

@<SCITEGIC>MOL_PROPERTY
G
SciTegic.value.DoubleValue
560.691

@<SCITEGIC>MOL_PROPERTY
E
SciTegic.value.DoubleValue
355.322

@<SCITEGIC>MOL_PROPERTY
-TS
SciTegic.value.DoubleValue
205.369

@<SCITEGIC>MOL_PROPERTY
U+W
SciTegic.value.DoubleValue
221.185

@<SCITEGIC>MOL_PROPERTY
U
SciTegic.value.DoubleValue
302.736

@<SCITEGIC>MOL_PROPERTY
W
SciTegic.value.DoubleValue
-81.551

@<SCITEGIC>MOL_PROPERTY
W(PB)
SciTegic.value.DoubleValue
-87.654

@<SCITEGIC>MOL_PROPERTY
W(SA)
SciTegic.value.DoubleValue
6.103

@<SCITEGIC>MOL_PROPERTY
Valence
SciTegic.value.DoubleValue
149.280

@<SCITEGIC>MOL_PROPERTY
Coulomb
SciTegic.value.DoubleValue
179.692

@<SCITEGIC>MOL_PROPERTY
VdW
SciTegic.value.DoubleValue
-26.236

@<SCITEGIC>MOL_PROPERTY
VdW6
SciTegic.value.DoubleValue
-187.765

@<SCITEGIC>MOL_PROPERTY
VdW12
SciTegic.value.DoubleValue
161.530

@<SCITEGIC>MOL_PROPERTY
Bond
SciTegic.value.DoubleValue
4.939

@<SCITEGIC>MOL_PROPERTY
Angle
SciTegic.value.DoubleValue
14.067

@<SCITEGIC>MOL_PROPERTY
Pdih
SciTegic.value.DoubleValue
130.274

@<SCITEGIC>MOL_PROPERTY
Idih
SciTegic.value.DoubleValue
0.000

@<SCITEGIC>MOL_PROPERTY
Tether
SciTegic.value.DoubleValue
0.000

