@<TRIPOS>MOLECULE
CD_guest-s10_fast_vm2_single.mol2 : feprocess host+ligand conformer 1
         146         151           2
SMALL
USER_CHARGES
 
@<TRIPOS>ATOM
       1    C1      16.375189   15.292214   20.673364 C.3        1 MOL1         0.2972
       2    H1      15.361379   15.142373   20.280253 H          1 MOL1         0.0751
       3    O1      16.559956   16.632476   21.176601 O.3        1 MOL1        -0.3740
       4    C2      16.659797   14.301008   21.832289 C.3        1 MOL1         0.1003
       5    H2      16.526827   13.285795   21.436382 H          1 MOL1         0.0783
       6    O2      15.744280   14.506361   22.920538 O.3        1 MOL1        -0.5519
       7    H3      15.663166   15.483873   23.061412 H          1 MOL1         0.3769
       8    C3      18.122164   14.432484   22.324753 C.3        1 MOL1         0.1053
       9    H4      18.231852   15.418913   22.791688 H          1 MOL1         0.0783
      10    O3      18.404646   13.409388   23.285183 O.3        1 MOL1        -0.5519
      11    H5      17.627935   13.402163   23.887934 H          1 MOL1         0.3769
      12    C4      19.119850   14.336568   21.144147 C.3        1 MOL1         0.1018
      13    H6      19.118350   13.302444   20.774956 H          1 MOL1         0.0783
      14    C5      18.728268   15.292887   19.984510 C.3        1 MOL1         0.1043
      15    H7      18.839957   16.323313   20.339691 H          1 MOL1         0.0783
      16    O4      17.345737   15.058180   19.630735 O.3        1 MOL1        -0.3740
      17    C6      19.577448   15.151420   18.694298 C.3        1 MOL1         0.0138
      18    H8      20.447101   15.813778   18.769161 H          1 MOL1         0.0794
      19    H9      18.981481   15.512080   17.845284 H          1 MOL1         0.0794
      20    O5      20.014924   13.810830   18.446893 O.3        1 MOL1        -0.5486
      21    H10     20.803310   13.655544   19.017642 H          1 MOL1         0.3769
      22    C7      14.640800   20.333245   21.205992 C.3        1 MOL1         0.2972
      23    H11     13.920534   21.157702   21.136854 H          1 MOL1         0.0751
      24    O6      15.993946   20.816096   21.334646 O.3        1 MOL1        -0.3740
      25    C8      14.311386   19.402413   22.402934 C.3        1 MOL1         0.1003
      26    H12     13.324557   18.962918   22.206809 H          1 MOL1         0.0783
      27    O7      14.251756   20.123142   23.642085 O.3        1 MOL1        -0.5519
      28    H13     15.102891   20.618937   23.743524 H          1 MOL1         0.3769
      29    C9      15.334562   18.242823   22.480561 C.3        1 MOL1         0.1053
      30    H14     16.325369   18.665870   22.692092 H          1 MOL1         0.0783
      31    O8      14.959360   17.339716   23.525425 O.3        1 MOL1        -0.5519
      32    H15     14.710129   17.914552   24.283384 H          1 MOL1         0.3769
      33    C10     15.396055   17.484368   21.131895 C.3        1 MOL1         0.1018
      34    H16     14.469743   16.902702   21.033844 H          1 MOL1         0.0783
      35    C11     15.541478   18.444947   19.915746 C.3        1 MOL1         0.1043
      36    H17     16.554579   18.866641   19.927699 H          1 MOL1         0.0783
      37    O9      14.577157   19.525024   20.012161 O.3        1 MOL1        -0.3740
      38    C12     15.347532   17.747194   18.547870 C.3        1 MOL1         0.0138
      39    H18     16.221237   17.111758   18.351819 H          1 MOL1         0.0794
      40    H19     15.322273   18.515347   17.763409 H          1 MOL1         0.0794
      41    O10     14.152673   16.956423   18.509030 O.3        1 MOL1        -0.5486
      42    H20     14.066133   16.592532   17.601048 H          1 MOL1         0.3769
      43    C13     18.537806   23.989303   21.806733 C.3        1 MOL1         0.2972
      44    H21     19.030524   24.954660   21.979781 H          1 MOL1         0.0751
      45    O11     19.448749   23.028809   21.228741 O.3        1 MOL1        -0.3740
      46    C14     17.992795   23.429180   23.143523 C.3        1 MOL1         0.1003
      47    H22     17.315160   24.183786   23.563850 H          1 MOL1         0.0783
      48    O12     19.063691   23.166926   24.066904 O.3        1 MOL1        -0.5519
      49    H23     19.763824   23.844793   23.901881 H          1 MOL1         0.3769
      50    C15     17.200121   22.123521   22.923398 C.3        1 MOL1         0.1053
      51    H24     17.928791   21.359749   22.662976 H          1 MOL1         0.0783
      52    O13     16.558918   21.751956   24.144019 O.3        1 MOL1        -0.5519
      53    H25     17.234521   21.911413   24.841337 H          1 MOL1         0.3769
      54    C16     16.184455   22.184247   21.756255 C.3        1 MOL1         0.1018
      55    H26     15.256998   22.647609   22.116065 H          1 MOL1         0.0783
      56    C17     16.733405   22.944800   20.514831 C.3        1 MOL1         0.1043
      57    H27     17.447911   22.285008   20.005221 H          1 MOL1         0.0783
      58    O14     17.420716   24.156933   20.910508 O.3        1 MOL1        -0.3740
      59    C18     15.641885   23.312810   19.480540 C.3        1 MOL1         0.0138
      60    H28     15.235380   22.387239   19.050410 H          1 MOL1         0.0794
      61    H29     16.117179   23.867619   18.660737 H          1 MOL1         0.0794
      62    O15     14.584637   24.096943   20.049154 O.3        1 MOL1        -0.5486
      63    H30     14.048402   23.517956   20.629024 H          1 MOL1         0.3769
      64    C19     23.499030   22.594520   20.449448 C.3        1 MOL1         0.2972
      65    H31     24.541324   22.688023   20.118971 H          1 MOL1         0.0751
      66    O16     23.205151   21.247105   20.881244 O.3        1 MOL1        -0.3740
      67    C20     23.180127   23.605983   21.585784 C.3        1 MOL1         0.1003
      68    H32     23.340710   24.611072   21.174403 H          1 MOL1         0.0783
      69    O17     24.034636   23.427676   22.725828 O.3        1 MOL1        -0.5519
      70    H33     23.823393   22.538063   23.104888 H          1 MOL1         0.3769
      71    C21     21.699524   23.500582   22.020680 C.3        1 MOL1         0.1053
      72    H34     21.574517   22.528208   22.505757 H          1 MOL1         0.0783
      73    O18     21.410301   24.544929   22.956960 O.3        1 MOL1        -0.5519
      74    H35     22.204258   24.593880   23.536364 H          1 MOL1         0.3769
      75    C22     20.725831   23.560843   20.811846 C.3        1 MOL1         0.1018
      76    H36     20.638802   24.602363   20.477099 H          1 MOL1         0.0783
      77    C23     21.196405   22.686263   19.618321 C.3        1 MOL1         0.1043
      78    H37     21.040743   21.636488   19.887242 H          1 MOL1         0.0783
      79    O19     22.605664   22.902823   19.357381 O.3        1 MOL1        -0.3740
      80    C24     20.398575   22.933025   18.313900 C.3        1 MOL1         0.0138
      81    H38     19.396656   22.498708   18.429751 H          1 MOL1         0.0794
      82    H39     20.893389   22.391722   17.496631 H          1 MOL1         0.0794
      83    O20     20.285458   24.322781   17.984584 O.3        1 MOL1        -0.5486
      84    H40     19.624664   24.718312   18.592883 H          1 MOL1         0.3769
      85    C25     24.918644   17.718945   22.246354 C.3        1 MOL1         0.2972
      86    H41     25.571764   16.938673   22.657908 H          1 MOL1         0.0751
      87    O21     23.732939   17.157996   21.643396 O.3        1 MOL1        -0.3740
      88    C26     24.508532   18.726582   23.354265 C.3        1 MOL1         0.1003
      89    H42     25.428017   19.195707   23.728236 H          1 MOL1         0.0783
      90    O22     23.823045   18.090421   24.444276 O.3        1 MOL1        -0.5519
      91    H43     23.984678   17.119050   24.367941 H          1 MOL1         0.3769
      92    C27     23.606011   19.826559   22.760583 C.3        1 MOL1         0.1053
      93    H44     22.694493   19.331230   22.416325 H          1 MOL1         0.0783
      94    O23     23.276500   20.781500   23.773569 O.3        1 MOL1        -0.5519
      95    H45     23.243989   20.250103   24.603365 H          1 MOL1         0.3769
      96    C28     24.260982   20.515379   21.540578 C.3        1 MOL1         0.1018
      97    H46     25.065699   21.173465   21.893331 H          1 MOL1         0.0783
      98    C29     24.830327   19.478455   20.529268 C.3        1 MOL1         0.1043
      99    H47     23.983440   18.992997   20.026862 H          1 MOL1         0.0783
     100    O24     25.611245   18.468717   21.223834 O.3        1 MOL1        -0.3740
     101    C30     25.714926   20.109410   19.427614 C.3        1 MOL1         0.0138
     102    H48     25.068142   20.673158   18.741832 H          1 MOL1         0.0794
     103    H49     26.180047   19.301598   18.846822 H          1 MOL1         0.0794
     104    O25     26.719504   20.975541   19.970042 O.3        1 MOL1        -0.5486
     105    H50     27.292916   21.268532   19.228382 H          1 MOL1         0.3769
     106    C31     21.452064   13.735569   21.541497 C.3        1 MOL1         0.2972
     107    H51     21.037859   12.722049   21.464050 H          1 MOL1         0.0751
     108    O26     20.409683   14.728112   21.656149 O.3        1 MOL1        -0.3740
     109    C32     22.350160   13.832123   22.795404 C.3        1 MOL1         0.1003
     110    H52     23.166462   13.107855   22.675142 H          1 MOL1         0.0783
     111    O27     21.593897   13.508268   23.972776 O.3        1 MOL1        -0.5519
     112    H53     20.654982   13.750352   23.783143 H          1 MOL1         0.3769
     113    C33     22.973370   15.241092   22.926844 C.3        1 MOL1         0.1053
     114    H54     22.162244   15.935899   23.171996 H          1 MOL1         0.0783
     115    O28     23.931692   15.223440   23.989726 O.3        1 MOL1        -0.5519
     116    H55     23.506249   14.695164   24.703336 H          1 MOL1         0.3769
     117    C34     23.636062   15.718449   21.604685 C.3        1 MOL1         0.1018
     118    H56     24.622258   15.248083   21.503213 H          1 MOL1         0.0783
     119    C35     22.783671   15.396871   20.345388 C.3        1 MOL1         0.1043
     120    H57     21.940626   16.094236   20.333961 H          1 MOL1         0.0783
     121    O29     22.264164   14.045166   20.391238 O.3        1 MOL1        -0.3740
     122    C36     23.544434   15.595697   19.011400 C.3        1 MOL1         0.0138
     123    H58     23.714253   16.670356   18.860768 H          1 MOL1         0.0794
     124    H59     22.903026   15.250522   18.189622 H          1 MOL1         0.0794
     125    O30     24.795305   14.898547   18.979877 O.3        1 MOL1        -0.5486
     126    H60     25.431022   15.401709   19.532223 H          1 MOL1         0.3769
     127    N1      20.286145   20.500588   23.486525 N.4        1 MOL1        -0.5937
     128    H1      19.827322   21.380177   23.203504 H          1 MOL1         0.3684
     129    H2      21.242926   20.499362   23.109293 H          1 MOL1         0.3684
     130    H3      20.378841   20.553360   24.505772 H          1 MOL1         0.3684
     131    C1      19.497125   19.280104   23.085314 C.3        1 MOL1         0.1270
     132    H4      18.522133   19.389522   23.571316 H          1 MOL1         0.0960
     133    C2      20.147457   18.007874   23.650450 C.3        1 MOL1        -0.2382
     134    H5      21.179813   17.898508   23.304566 H          1 MOL1         0.1009
     135    H6      19.588703   17.114187   23.352428 H          1 MOL1         0.1009
     136    H7      20.167246   18.038584   24.746673 H          1 MOL1         0.1009
     137    C3      19.227000   19.174448   21.561352 C.3        1 MOL1        -0.1392
     138    H8      18.477803   18.390693   21.403904 H          1 MOL1         0.0998
     139    H9      18.765407   20.101130   21.202305 H          1 MOL1         0.0998
     140    C4      20.458375   18.868580   20.679702 C.3        1 MOL1        -0.1302
     141    H10     20.885680   17.897801   20.956083 H          1 MOL1         0.0998
     142    H11     21.234044   19.619365   20.852231 H          1 MOL1         0.0998
     143    C5      20.097067   18.867673   19.178513 C.3        1 MOL1        -0.2317
     144    H12     19.311879   18.135876   18.954366 H          1 MOL1         0.1009
     145    H13     20.976174   18.622934   18.568388 H          1 MOL1         0.1009
     146    H14     19.732942   19.852785   18.861003 H          1 MOL1         0.1009
@<TRIPOS>BOND
    1     1     2    1
    2     1     3    1
    3     1     4    1
    4     4     5    1
    5     4     6    1
    6     6     7    1
    7     4     8    1
    8     8     9    1
    9     8    10    1
   10    10    11    1
   11     8    12    1
   12    12    13    1
   13    12    14    1
   14    14    15    1
   15     1    16    1
   16    14    16    1
   17    14    17    1
   18    17    18    1
   19    17    19    1
   20    17    20    1
   21    20    21    1
   22    22    23    1
   23    22    24    1
   24    22    25    1
   25    25    26    1
   26    25    27    1
   27    27    28    1
   28    25    29    1
   29    29    30    1
   30    29    31    1
   31    31    32    1
   32     3    33    1
   33    29    33    1
   34    33    34    1
   35    33    35    1
   36    35    36    1
   37    22    37    1
   38    35    37    1
   39    35    38    1
   40    38    39    1
   41    38    40    1
   42    38    41    1
   43    41    42    1
   44    43    44    1
   45    43    45    1
   46    43    46    1
   47    46    47    1
   48    46    48    1
   49    48    49    1
   50    46    50    1
   51    50    51    1
   52    50    52    1
   53    52    53    1
   54    24    54    1
   55    50    54    1
   56    54    55    1
   57    54    56    1
   58    56    57    1
   59    43    58    1
   60    56    58    1
   61    56    59    1
   62    59    60    1
   63    59    61    1
   64    59    62    1
   65    62    63    1
   66    64    65    1
   67    64    66    1
   68    64    67    1
   69    67    68    1
   70    67    69    1
   71    69    70    1
   72    67    71    1
   73    71    72    1
   74    71    73    1
   75    73    74    1
   76    45    75    1
   77    71    75    1
   78    75    76    1
   79    75    77    1
   80    77    78    1
   81    64    79    1
   82    77    79    1
   83    77    80    1
   84    80    81    1
   85    80    82    1
   86    80    83    1
   87    83    84    1
   88    85    86    1
   89    85    87    1
   90    85    88    1
   91    88    89    1
   92    88    90    1
   93    90    91    1
   94    88    92    1
   95    92    93    1
   96    92    94    1
   97    94    95    1
   98    66    96    1
   99    92    96    1
  100    96    97    1
  101    96    98    1
  102    98    99    1
  103    85   100    1
  104    98   100    1
  105    98   101    1
  106   101   102    1
  107   101   103    1
  108   101   104    1
  109   104   105    1
  110   106   107    1
  111    12   108    1
  112   106   108    1
  113   106   109    1
  114   109   110    1
  115   109   111    1
  116   111   112    1
  117   109   113    1
  118   113   114    1
  119   113   115    1
  120   115   116    1
  121    87   117    1
  122   113   117    1
  123   117   118    1
  124   117   119    1
  125   119   120    1
  126   106   121    1
  127   119   121    1
  128   119   122    1
  129   122   123    1
  130   122   124    1
  131   122   125    1
  132   125   126    1
  133   127   128    1
  134   127   129    1
  135   127   130    1
  136   127   131    1
  137   131   132    1
  138   131   133    1
  139   133   134    1
  140   133   135    1
  141   133   136    1
  142   131   137    1
  143   137   138    1
  144   137   139    1
  145   137   140    1
  146   140   141    1
  147   140   142    1
  148   140   143    1
  149   143   144    1
  150   143   145    1
  151   143   146    1
@<TRIPOS>SUBSTRUCTURE
       1 MOL1            1 RESIDUE      1      MOL     
       2 MOL1          146 RESIDUE      1      MOL     
@<SCITEGIC>MOL_PROPERTY
feprocess Rank
SciTegic.value.IntegerValue
1

@<SCITEGIC>MOL_PROPERTY
Conf_Id
SciTegic.value.IntegerValue
1

@<SCITEGIC>MOL_PROPERTY
Probability
SciTegic.value.DoubleValue
100.00

@<SCITEGIC>MOL_PROPERTY
G
SciTegic.value.DoubleValue
545.591

@<SCITEGIC>MOL_PROPERTY
E
SciTegic.value.DoubleValue
351.827

@<SCITEGIC>MOL_PROPERTY
-TS
SciTegic.value.DoubleValue
193.764

@<SCITEGIC>MOL_PROPERTY
U+W
SciTegic.value.DoubleValue
223.056

@<SCITEGIC>MOL_PROPERTY
U
SciTegic.value.DoubleValue
307.773

@<SCITEGIC>MOL_PROPERTY
W
SciTegic.value.DoubleValue
-84.716

@<SCITEGIC>MOL_PROPERTY
W(PB)
SciTegic.value.DoubleValue
-90.682

@<SCITEGIC>MOL_PROPERTY
W(SA)
SciTegic.value.DoubleValue
5.966

@<SCITEGIC>MOL_PROPERTY
Valence
SciTegic.value.DoubleValue
149.331

@<SCITEGIC>MOL_PROPERTY
Coulomb
SciTegic.value.DoubleValue
182.892

@<SCITEGIC>MOL_PROPERTY
VdW
SciTegic.value.DoubleValue
-24.450

@<SCITEGIC>MOL_PROPERTY
VdW6
SciTegic.value.DoubleValue
-179.585

@<SCITEGIC>MOL_PROPERTY
VdW12
SciTegic.value.DoubleValue
155.135

@<SCITEGIC>MOL_PROPERTY
Bond
SciTegic.value.DoubleValue
4.772

@<SCITEGIC>MOL_PROPERTY
Angle
SciTegic.value.DoubleValue
13.455

@<SCITEGIC>MOL_PROPERTY
Pdih
SciTegic.value.DoubleValue
131.104

@<SCITEGIC>MOL_PROPERTY
Idih
SciTegic.value.DoubleValue
0.000

@<SCITEGIC>MOL_PROPERTY
Tether
SciTegic.value.DoubleValue
0.000

