@<TRIPOS>MOLECULE
CD_guest-s16_fast_vm2_single.mol2 : feprocess host+ligand conformer 1
         139         145           2
SMALL
USER_CHARGES
 
@<TRIPOS>ATOM
       1    C1      16.243721   15.198413   20.563991 C.3        1 MOL1         0.2972
       2    H1      15.221976   15.061247   20.186950 H          1 MOL1         0.0751
       3    O1      16.484713   16.563142   20.967023 O.3        1 MOL1        -0.3740
       4    C2      16.535137   14.260371   21.766769 C.3        1 MOL1         0.1003
       5    H2      16.457699   13.228842   21.399171 H          1 MOL1         0.0783
       6    O2      15.589383   14.442892   22.830482 O.3        1 MOL1        -0.5519
       7    H3      15.631981   15.394475   23.102587 H          1 MOL1         0.3769
       8    C3      17.982584   14.476413   22.274325 C.3        1 MOL1         0.1053
       9    H4      18.059437   15.497606   22.671408 H          1 MOL1         0.0783
      10    O3      18.283152   13.533308   23.308078 O.3        1 MOL1        -0.5519
      11    H5      17.484054   13.516896   23.880937 H          1 MOL1         0.3769
      12    C4      18.995934   14.329054   21.111969 C.3        1 MOL1         0.1018
      13    H6      19.065336   13.267619   20.839948 H          1 MOL1         0.0783
      14    C5      18.587494   15.151102   19.857826 C.3        1 MOL1         0.1043
      15    H7      18.688849   16.216171   20.096024 H          1 MOL1         0.0783
      16    O4      17.202962   14.870781   19.531897 O.3        1 MOL1        -0.3740
      17    C6      19.466601   14.895266   18.604826 C.3        1 MOL1         0.0138
      18    H8      20.288398   15.622262   18.604814 H          1 MOL1         0.0794
      19    H9      18.865941   15.098524   17.708227 H          1 MOL1         0.0794
      20    O5      20.005084   13.568321   18.545735 O.3        1 MOL1        -0.5486
      21    H10     20.704320   13.506457   19.237294 H          1 MOL1         0.3769
      22    C7      14.834306   20.258586   21.652328 C.3        1 MOL1         0.2972
      23    H11     14.207698   21.141651   21.833665 H          1 MOL1         0.0751
      24    O6      16.206700   20.619442   21.406606 O.3        1 MOL1        -0.3740
      25    C8      14.797625   19.321946   22.881206 C.3        1 MOL1         0.1003
      26    H12     13.761111   18.984414   23.011321 H          1 MOL1         0.0783
      27    O7      15.225836   20.016648   24.064434 O.3        1 MOL1        -0.5519
      28    H13     15.540892   20.909314   23.779577 H          1 MOL1         0.3769
      29    C9      15.684710   18.081076   22.636675 C.3        1 MOL1         0.1053
      30    H14     16.724051   18.422412   22.577859 H          1 MOL1         0.0783
      31    O8      15.539673   17.178890   23.736432 O.3        1 MOL1        -0.5519
      32    H15     15.595467   17.751332   24.534779 H          1 MOL1         0.3769
      33    C10     15.340988   17.374540   21.299779 C.3        1 MOL1         0.1018
      34    H16     14.431760   16.774633   21.438566 H          1 MOL1         0.0783
      35    C11     15.159154   18.372620   20.118426 C.3        1 MOL1         0.1043
      36    H17     16.156928   18.724784   19.828505 H          1 MOL1         0.0783
      37    O9      14.356634   19.516984   20.510647 O.3        1 MOL1        -0.3740
      38    C12     14.521874   17.731400   18.862862 C.3        1 MOL1         0.0138
      39    H18     15.250093   17.040412   18.416877 H          1 MOL1         0.0794
      40    H19     14.327765   18.521485   18.124987 H          1 MOL1         0.0794
      41    O10     13.311869   17.028715   19.171733 O.3        1 MOL1        -0.5486
      42    H20     12.924739   16.715366   18.325160 H          1 MOL1         0.3769
      43    C13     18.562038   24.002367   20.830093 C.3        1 MOL1         0.2972
      44    H21     18.953322   24.985090   20.536558 H          1 MOL1         0.0751
      45    O11     19.604591   23.136041   21.318396 O.3        1 MOL1        -0.3740
      46    C14     17.492491   24.134918   21.947551 C.3        1 MOL1         0.1003
      47    H22     16.673618   24.746555   21.547028 H          1 MOL1         0.0783
      48    O12     18.032545   24.776745   23.113894 O.3        1 MOL1        -0.5519
      49    H23     18.858205   24.291038   23.365781 H          1 MOL1         0.3769
      50    C15     16.916905   22.744527   22.316329 C.3        1 MOL1         0.1053
      51    H24     17.720858   22.160133   22.780567 H          1 MOL1         0.0783
      52    O13     15.837293   22.896305   23.243390 O.3        1 MOL1        -0.5519
      53    H25     16.147208   23.570620   23.889189 H          1 MOL1         0.3769
      54    C16     16.434708   21.992253   21.049752 C.3        1 MOL1         0.1018
      55    H26     15.522355   22.475803   20.676271 H          1 MOL1         0.0783
      56    C17     17.502381   21.991606   19.924921 C.3        1 MOL1         0.1043
      57    H27     18.353501   21.384724   20.257401 H          1 MOL1         0.0783
      58    O14     17.942862   23.352294   19.696108 O.3        1 MOL1        -0.3740
      59    C18     17.016880   21.378038   18.585107 C.3        1 MOL1         0.0138
      60    H28     17.228470   20.301278   18.603075 H          1 MOL1         0.0794
      61    H29     17.612650   21.804644   17.767184 H          1 MOL1         0.0794
      62    O15     15.619830   21.584134   18.338258 O.3        1 MOL1        -0.5486
      63    H30     15.124074   21.033009   18.986340 H          1 MOL1         0.3769
      64    C19     23.629991   22.795252   21.972068 C.3        1 MOL1         0.2972
      65    H31     24.708597   22.891756   22.152357 H          1 MOL1         0.0751
      66    O16     23.249731   21.431786   21.702387 O.3        1 MOL1        -0.3740
      67    C20     22.834922   23.274063   23.209675 C.3        1 MOL1         0.1003
      68    H32     23.026223   24.346953   23.341910 H          1 MOL1         0.0783
      69    O17     23.252567   22.563701   24.385875 O.3        1 MOL1        -0.5519
      70    H33     23.691597   21.733437   24.078510 H          1 MOL1         0.3769
      71    C21     21.323500   23.074513   22.964173 C.3        1 MOL1         0.1053
      72    H34     21.151492   21.998865   22.867972 H          1 MOL1         0.0783
      73    O18     20.571437   23.572408   24.075008 O.3        1 MOL1        -0.5519
      74    H35     21.102089   23.323713   24.866438 H          1 MOL1         0.3769
      75    C22     20.864705   23.749140   21.647874 C.3        1 MOL1         0.1018
      76    H36     20.768748   24.829187   21.821652 H          1 MOL1         0.0783
      77    C23     21.825013   23.469479   20.452966 C.3        1 MOL1         0.1043
      78    H37     21.646436   22.437886   20.126552 H          1 MOL1         0.0783
      79    O19     23.217411   23.599398   20.847185 O.3        1 MOL1        -0.3740
      80    C24     21.575574   24.381561   19.228363 C.3        1 MOL1         0.0138
      81    H38     20.624656   24.089393   18.762681 H          1 MOL1         0.0794
      82    H39     22.368190   24.201751   18.489538 H          1 MOL1         0.0794
      83    O20     21.534972   25.767667   19.588908 O.3        1 MOL1        -0.5486
      84    H40     21.455413   26.289054   18.760311 H          1 MOL1         0.3769
      85    C25     24.891663   17.692588   20.892715 C.3        1 MOL1         0.2972
      86    H41     25.531574   16.867122   20.555004 H          1 MOL1         0.0751
      87    O21     23.590833   17.223856   21.301875 O.3        1 MOL1        -0.3740
      88    C26     25.538709   18.455512   22.081116 C.3        1 MOL1         0.1003
      89    H42     26.492596   18.864239   21.723138 H          1 MOL1         0.0783
      90    O22     25.794858   17.584874   23.193689 O.3        1 MOL1        -0.5519
      91    H43     24.937362   17.149286   23.432329 H          1 MOL1         0.3769
      92    C27     24.645133   19.644457   22.515289 C.3        1 MOL1         0.1053
      93    H44     23.708501   19.239115   22.922411 H          1 MOL1         0.0783
      94    O23     25.315018   20.413337   23.519430 O.3        1 MOL1        -0.5519
      95    H45     25.701407   19.750551   24.134739 H          1 MOL1         0.3769
      96    C28     24.301576   20.541489   21.299736 C.3        1 MOL1         0.1018
      97    H46     25.204701   21.084491   20.991249 H          1 MOL1         0.0783
      98    C29     23.766833   19.715429   20.098531 C.3        1 MOL1         0.1043
      99    H47     22.793818   19.289602   20.376493 H          1 MOL1         0.0783
     100    O24     24.697503   18.640930   19.818389 O.3        1 MOL1        -0.3740
     101    C30     23.539561   20.537526   18.802170 C.3        1 MOL1         0.0138
     102    H48     22.501489   20.892645   18.795868 H          1 MOL1         0.0794
     103    H49     23.648321   19.867655   17.938788 H          1 MOL1         0.0794
     104    O25     24.427670   21.655370   18.672656 O.3        1 MOL1        -0.5486
     105    H50     24.165731   22.317528   19.353550 H          1 MOL1         0.3769
     106    C31     21.269280   13.877944   21.871101 C.3        1 MOL1         0.2972
     107    H51     20.841805   12.880471   22.036932 H          1 MOL1         0.0751
     108    O26     20.251035   14.851356   21.576688 O.3        1 MOL1        -0.3740
     109    C32     22.022715   14.346757   23.137417 C.3        1 MOL1         0.1003
     110    H52     22.845606   13.642303   23.315595 H          1 MOL1         0.0783
     111    O27     21.142313   14.349455   24.272928 O.3        1 MOL1        -0.5519
     112    H53     20.219874   14.340880   23.918549 H          1 MOL1         0.3769
     113    C33     22.629313   15.751994   22.920612 C.3        1 MOL1         0.1053
     114    H54     21.802491   16.466458   22.831391 H          1 MOL1         0.0783
     115    O28     23.438036   16.095890   24.049538 O.3        1 MOL1        -0.5519
     116    H55     22.887716   15.864680   24.831236 H          1 MOL1         0.3769
     117    C34     23.467970   15.823732   21.619419 C.3        1 MOL1         0.1018
     118    H56     24.443122   15.353528   21.803835 H          1 MOL1         0.0783
     119    C35     22.764114   15.150913   20.404588 C.3        1 MOL1         0.1043
     120    H57     21.951795   15.815992   20.086650 H          1 MOL1         0.0783
     121    O29     22.201759   13.863317   20.770441 O.3        1 MOL1        -0.3740
     122    C36     23.691989   14.950505   19.182669 C.3        1 MOL1         0.0138
     123    H58     23.906868   15.933734   18.742589 H          1 MOL1         0.0794
     124    H59     23.153337   14.365477   18.425036 H          1 MOL1         0.0794
     125    O30     24.917642   14.298663   19.537674 O.3        1 MOL1        -0.5486
     126    H60     25.417219   14.131193   18.708782 H          1 MOL1         0.3769
     127    C1      19.652361   18.253042   21.819636 C.3        1 MOL1        -0.1693
     128    H1      18.723990   18.286718   21.235576 H          1 MOL1         0.0829
     129    H2      20.320817   17.507083   21.377819 H          1 MOL1         0.0829
     130    C2      19.452895   18.180388   23.371133 C.3        1 MOL1        -0.1768
     131    H3      18.582638   17.619793   23.726708 H          1 MOL1         0.0829
     132    H4      20.332257   17.855712   23.940105 H          1 MOL1         0.0829
     133    C3      19.280369   19.727056   23.288785 C.3        1 MOL1         0.1211
     134    H5      18.270624   20.039208   22.996141 H          1 MOL1         0.0786
     135    C4      20.291637   19.647453   22.104827 C.3        1 MOL1        -0.1768
     136    H6      21.343506   19.609774   22.411364 H          1 MOL1         0.0829
     137    H7      20.179179   20.400432   21.319113 H          1 MOL1         0.0829
     138    O1      19.716066   20.448934   24.418134 O.3        1 MOL1        -0.5515
     139    H8      19.724627   21.401260   24.184513 H          1 MOL1         0.3773
@<TRIPOS>BOND
    1     1     2    1
    2     1     3    1
    3     1     4    1
    4     4     5    1
    5     4     6    1
    6     6     7    1
    7     4     8    1
    8     8     9    1
    9     8    10    1
   10    10    11    1
   11     8    12    1
   12    12    13    1
   13    12    14    1
   14    14    15    1
   15     1    16    1
   16    14    16    1
   17    14    17    1
   18    17    18    1
   19    17    19    1
   20    17    20    1
   21    20    21    1
   22    22    23    1
   23    22    24    1
   24    22    25    1
   25    25    26    1
   26    25    27    1
   27    27    28    1
   28    25    29    1
   29    29    30    1
   30    29    31    1
   31    31    32    1
   32     3    33    1
   33    29    33    1
   34    33    34    1
   35    33    35    1
   36    35    36    1
   37    22    37    1
   38    35    37    1
   39    35    38    1
   40    38    39    1
   41    38    40    1
   42    38    41    1
   43    41    42    1
   44    43    44    1
   45    43    45    1
   46    43    46    1
   47    46    47    1
   48    46    48    1
   49    48    49    1
   50    46    50    1
   51    50    51    1
   52    50    52    1
   53    52    53    1
   54    24    54    1
   55    50    54    1
   56    54    55    1
   57    54    56    1
   58    56    57    1
   59    43    58    1
   60    56    58    1
   61    56    59    1
   62    59    60    1
   63    59    61    1
   64    59    62    1
   65    62    63    1
   66    64    65    1
   67    64    66    1
   68    64    67    1
   69    67    68    1
   70    67    69    1
   71    69    70    1
   72    67    71    1
   73    71    72    1
   74    71    73    1
   75    73    74    1
   76    45    75    1
   77    71    75    1
   78    75    76    1
   79    75    77    1
   80    77    78    1
   81    64    79    1
   82    77    79    1
   83    77    80    1
   84    80    81    1
   85    80    82    1
   86    80    83    1
   87    83    84    1
   88    85    86    1
   89    85    87    1
   90    85    88    1
   91    88    89    1
   92    88    90    1
   93    90    91    1
   94    88    92    1
   95    92    93    1
   96    92    94    1
   97    94    95    1
   98    66    96    1
   99    92    96    1
  100    96    97    1
  101    96    98    1
  102    98    99    1
  103    85   100    1
  104    98   100    1
  105    98   101    1
  106   101   102    1
  107   101   103    1
  108   101   104    1
  109   104   105    1
  110   106   107    1
  111    12   108    1
  112   106   108    1
  113   106   109    1
  114   109   110    1
  115   109   111    1
  116   111   112    1
  117   109   113    1
  118   113   114    1
  119   113   115    1
  120   115   116    1
  121    87   117    1
  122   113   117    1
  123   117   118    1
  124   117   119    1
  125   119   120    1
  126   106   121    1
  127   119   121    1
  128   119   122    1
  129   122   123    1
  130   122   124    1
  131   122   125    1
  132   125   126    1
  133   127   128    1
  134   127   129    1
  135   127   130    1
  136   130   131    1
  137   130   132    1
  138   130   133    1
  139   133   134    1
  140   127   135    1
  141   133   135    1
  142   135   136    1
  143   135   137    1
  144   133   138    1
  145   138   139    1
@<TRIPOS>SUBSTRUCTURE
       1 MOL1            1 RESIDUE      1      MOL     
       2 MOL1          139 RESIDUE      1      MOL     
@<SCITEGIC>MOL_PROPERTY
feprocess Rank
SciTegic.value.IntegerValue
1

@<SCITEGIC>MOL_PROPERTY
Conf_Id
SciTegic.value.IntegerValue
1

@<SCITEGIC>MOL_PROPERTY
Probability
SciTegic.value.DoubleValue
100.00

@<SCITEGIC>MOL_PROPERTY
G
SciTegic.value.DoubleValue
546.945

@<SCITEGIC>MOL_PROPERTY
E
SciTegic.value.DoubleValue
369.034

@<SCITEGIC>MOL_PROPERTY
-TS
SciTegic.value.DoubleValue
177.911

@<SCITEGIC>MOL_PROPERTY
U+W
SciTegic.value.DoubleValue
246.523

@<SCITEGIC>MOL_PROPERTY
U
SciTegic.value.DoubleValue
282.886

@<SCITEGIC>MOL_PROPERTY
W
SciTegic.value.DoubleValue
-36.363

@<SCITEGIC>MOL_PROPERTY
W(PB)
SciTegic.value.DoubleValue
-42.386

@<SCITEGIC>MOL_PROPERTY
W(SA)
SciTegic.value.DoubleValue
6.023

@<SCITEGIC>MOL_PROPERTY
Valence
SciTegic.value.DoubleValue
153.194

@<SCITEGIC>MOL_PROPERTY
Coulomb
SciTegic.value.DoubleValue
150.361

@<SCITEGIC>MOL_PROPERTY
VdW
SciTegic.value.DoubleValue
-20.669

@<SCITEGIC>MOL_PROPERTY
VdW6
SciTegic.value.DoubleValue
-168.292

@<SCITEGIC>MOL_PROPERTY
VdW12
SciTegic.value.DoubleValue
147.623

@<SCITEGIC>MOL_PROPERTY
Bond
SciTegic.value.DoubleValue
4.629

@<SCITEGIC>MOL_PROPERTY
Angle
SciTegic.value.DoubleValue
12.251

@<SCITEGIC>MOL_PROPERTY
Pdih
SciTegic.value.DoubleValue
136.314

@<SCITEGIC>MOL_PROPERTY
Idih
SciTegic.value.DoubleValue
0.000

@<SCITEGIC>MOL_PROPERTY
Tether
SciTegic.value.DoubleValue
0.000

