@<TRIPOS>MOLECULE
CD_guest-5_fast_vm2_single.mol2 : feprocess host+ligand conformer 1
         148         154           2
SMALL
USER_CHARGES
 
@<TRIPOS>ATOM
       1    C1      16.080574   14.966622   21.523255 C.3        1 MOL1         0.2972
       2    H1      14.986719   14.885979   21.488219 H          1 MOL1         0.0751
       3    O1      16.510646   16.333408   21.688969 O.3        1 MOL1        -0.3740
       4    C2      16.622724   14.130618   22.705115 C.3        1 MOL1         0.1003
       5    H2      16.340305   13.084385   22.529948 H          1 MOL1         0.0783
       6    O2      16.044579   14.580140   23.941032 O.3        1 MOL1        -0.5519
       7    H3      15.898079   15.554967   23.855616 H          1 MOL1         0.3769
       8    C3      18.164194   14.205906   22.767423 C.3        1 MOL1         0.1053
       9    H4      18.427545   15.227968   23.061084 H          1 MOL1         0.0783
      10    O3      18.652275   13.290777   23.754522 O.3        1 MOL1        -0.5519
      11    H5      18.109706   13.466931   24.554728 H          1 MOL1         0.3769
      12    C4      18.828256   13.900607   21.398566 C.3        1 MOL1         0.1018
      13    H6      18.846239   12.811233   21.264121 H          1 MOL1         0.0783
      14    C5      18.105654   14.582367   20.193937 C.3        1 MOL1         0.1043
      15    H7      18.368906   15.647433   20.202801 H          1 MOL1         0.0783
      16    O4      16.665002   14.451785   20.312046 O.3        1 MOL1        -0.3740
      17    C6      18.502450   14.018939   18.807069 C.3        1 MOL1         0.0138
      18    H8      19.501688   14.385563   18.544014 H          1 MOL1         0.0794
      19    H9      17.808662   14.421407   18.056723 H          1 MOL1         0.0794
      20    O5      18.483733   12.586430   18.778276 O.3        1 MOL1        -0.5486
      21    H10     18.675998   12.304472   17.857482 H          1 MOL1         0.3769
      22    C7      14.992995   20.221486   21.180488 C.3        1 MOL1         0.2972
      23    H11     14.298644   21.043740   20.965055 H          1 MOL1         0.0751
      24    O6      16.320384   20.712373   21.457073 O.3        1 MOL1        -0.3740
      25    C8      14.490674   19.438951   22.421408 C.3        1 MOL1         0.1003
      26    H12     13.473724   19.089269   22.201010 H          1 MOL1         0.0783
      27    O7      14.457226   20.292895   23.576276 O.3        1 MOL1        -0.5519
      28    H13     15.058808   21.055857   23.388655 H          1 MOL1         0.3769
      29    C9      15.372045   18.198691   22.693265 C.3        1 MOL1         0.1053
      30    H14     16.364279   18.556123   22.991860 H          1 MOL1         0.0783
      31    O8      14.798803   17.418088   23.746935 O.3        1 MOL1        -0.5519
      32    H15     14.555680   18.069537   24.442055 H          1 MOL1         0.3769
      33    C10     15.518062   17.341512   21.413473 C.3        1 MOL1         0.1018
      34    H16     14.539794   16.902915   21.176441 H          1 MOL1         0.0783
      35    C11     15.992465   18.205822   20.213839 C.3        1 MOL1         0.1043
      36    H17     16.993675   18.586477   20.445108 H          1 MOL1         0.0783
      37    O9      15.079700   19.321815   20.052004 O.3        1 MOL1        -0.3740
      38    C12     16.096079   17.453202   18.862729 C.3        1 MOL1         0.0138
      39    H18     17.082995   16.977488   18.803761 H          1 MOL1         0.0794
      40    H19     16.048190   18.188298   18.048217 H          1 MOL1         0.0794
      41    O10     15.077675   16.461982   18.690080 O.3        1 MOL1        -0.5486
      42    H20     15.388669   15.652429   19.157256 H          1 MOL1         0.3769
      43    C13     18.595024   24.194177   20.852330 C.3        1 MOL1         0.2972
      44    H21     18.921845   25.187918   20.522367 H          1 MOL1         0.0751
      45    O11     19.637116   23.498581   21.557607 O.3        1 MOL1        -0.3740
      46    C14     17.405654   24.317407   21.840191 C.3        1 MOL1         0.1003
      47    H22     16.600334   24.858793   21.326978 H          1 MOL1         0.0783
      48    O12     17.807297   25.050582   23.009150 O.3        1 MOL1        -0.5519
      49    H23     18.710210   24.728341   23.249852 H          1 MOL1         0.3769
      50    C15     16.867818   22.920666   22.244796 C.3        1 MOL1         0.1053
      51    H24     17.636728   22.416338   22.844496 H          1 MOL1         0.0783
      52    O13     15.671923   23.070059   23.017000 O.3        1 MOL1        -0.5519
      53    H25     15.876872   23.771243   23.674815 H          1 MOL1         0.3769
      54    C16     16.585398   22.052590   20.996003 C.3        1 MOL1         0.1018
      55    H26     15.727683   22.482821   20.462244 H          1 MOL1         0.0783
      56    C17     17.804976   22.022093   20.037614 C.3        1 MOL1         0.1043
      57    H27     18.636161   21.525854   20.548811 H          1 MOL1         0.0783
      58    O14     18.180812   23.386463   19.726802 O.3        1 MOL1        -0.3740
      59    C18     17.571158   21.252415   18.712650 C.3        1 MOL1         0.0138
      60    H28     17.779940   20.189443   18.887617 H          1 MOL1         0.0794
      61    H29     18.301369   21.603202   17.971370 H          1 MOL1         0.0794
      62    O15     16.241648   21.398907   18.201151 O.3        1 MOL1        -0.5486
      63    H30     15.667370   20.786486   18.717187 H          1 MOL1         0.3769
      64    C19     23.702371   22.964479   21.845669 C.3        1 MOL1         0.2972
      65    H31     24.796021   23.048294   21.880225 H          1 MOL1         0.0751
      66    O16     23.266569   21.598971   22.003805 O.3        1 MOL1        -0.3740
      67    C20     23.082341   23.810208   22.981862 C.3        1 MOL1         0.1003
      68    H32     23.383326   24.853973   22.823738 H          1 MOL1         0.0783
      69    O17     23.567124   23.359565   24.257083 O.3        1 MOL1        -0.5519
      70    H33     23.731643   22.387219   24.175239 H          1 MOL1         0.3769
      71    C21     21.539562   23.742656   22.936674 C.3        1 MOL1         0.1053
      72    H34     21.251239   22.723656   23.219642 H          1 MOL1         0.0783
      73    O18     20.985952   24.667934   23.878435 O.3        1 MOL1        -0.5519
      74    H35     21.489146   24.518179   24.709227 H          1 MOL1         0.3769
      75    C22     20.972887   24.037178   21.522805 C.3        1 MOL1         0.1018
      76    H36     20.974601   25.123860   21.369882 H          1 MOL1         0.0783
      77    C23     21.765577   23.323626   20.385372 C.3        1 MOL1         0.1043
      78    H37     21.501007   22.258783   20.411716 H          1 MOL1         0.0783
      79    O19     23.194949   23.460611   20.592240 O.3        1 MOL1        -0.3740
      80    C24     21.454536   23.839662   18.958368 C.3        1 MOL1         0.0138
      81    H38     20.446710   23.519339   18.667859 H          1 MOL1         0.0794
      82    H39     22.152259   23.357672   18.260712 H          1 MOL1         0.0794
      83    O20     21.571304   25.263845   18.848922 O.3        1 MOL1        -0.5486
      84    H40     20.762978   25.666223   19.227796 H          1 MOL1         0.3769
      85    C25     24.812213   17.708701   21.560515 C.3        1 MOL1         0.2972
      86    H41     25.525871   16.892698   21.387925 H          1 MOL1         0.0751
      87    O21     23.472895   17.202758   21.725571 O.3        1 MOL1        -0.3740
      88    C26     25.212101   18.473565   22.849085 C.3        1 MOL1         0.1003
      89    H42     26.246656   18.816882   22.719134 H          1 MOL1         0.0783
      90    O22     25.142777   17.601004   23.988167 O.3        1 MOL1        -0.5519
      91    H43     24.568894   16.840131   23.727077 H          1 MOL1         0.3769
      92    C27     24.321992   19.719445   23.067850 C.3        1 MOL1         0.1053
      93    H44     23.307332   19.370566   23.295956 H          1 MOL1         0.0783
      94    O23     24.829450   20.488997   24.163267 O.3        1 MOL1        -0.5519
      95    H45     25.004361   19.833003   24.874183 H          1 MOL1         0.3769
      96    C28     24.271705   20.588440   21.788478 C.3        1 MOL1         0.1018
      97    H46     25.266144   21.024483   21.625460 H          1 MOL1         0.0783
      98    C29     23.879621   19.735115   20.552507 C.3        1 MOL1         0.1043
      99    H47     22.865536   19.351634   20.716217 H          1 MOL1         0.0783
     100    O24     24.804855   18.623563   20.441796 O.3        1 MOL1        -0.3740
     101    C30     23.867731   20.496078   19.202179 C.3        1 MOL1         0.0138
     102    H48     22.889817   20.978133   19.081703 H          1 MOL1         0.0794
     103    H49     23.963656   19.765632   18.387764 H          1 MOL1         0.0794
     104    O25     24.902186   21.480335   19.101479 O.3        1 MOL1        -0.5486
     105    H50     24.558203   22.296712   19.532463 H          1 MOL1         0.3769
     106    C31     21.214591   13.794639   20.778898 C.3        1 MOL1         0.2972
     107    H51     20.884131   12.835083   20.360540 H          1 MOL1         0.0751
     108    O26     20.159974   14.443344   21.513055 O.3        1 MOL1        -0.3740
     109    C32     22.381524   13.579835   21.777951 C.3        1 MOL1         0.1003
     110    H52     23.191701   13.069822   21.240850 H          1 MOL1         0.0783
     111    O27     21.946136   12.765314   22.878637 O.3        1 MOL1        -0.5519
     112    H53     21.051942   13.097233   23.135292 H          1 MOL1         0.3769
     113    C33     22.924697   14.933790   22.303169 C.3        1 MOL1         0.1053
     114    H54     22.148805   15.390312   22.929860 H          1 MOL1         0.0783
     115    O28     24.104476   14.712965   23.083113 O.3        1 MOL1        -0.5519
     116    H55     23.883222   13.962898   23.678611 H          1 MOL1         0.3769
     117    C34     23.235119   15.906273   21.140191 C.3        1 MOL1         0.1018
     118    H56     24.112727   15.530186   20.597889 H          1 MOL1         0.0783
     119    C35     22.044146   16.014927   20.152021 C.3        1 MOL1         0.1043
     120    H57     21.203681   16.480303   20.675234 H          1 MOL1         0.0783
     121    O29     21.667897   14.682154   19.731587 O.3        1 MOL1        -0.3740
     122    C36     22.317814   16.870539   18.888901 C.3        1 MOL1         0.0138
     123    H58     22.101012   17.919358   19.124984 H          1 MOL1         0.0794
     124    H59     21.610811   16.569769   18.104368 H          1 MOL1         0.0794
     125    O30     23.661910   16.755129   18.408275 O.3        1 MOL1        -0.5486
     126    H60     24.228515   17.299234   19.003639 H          1 MOL1         0.3769
     127    C1      19.822851   19.002608   21.858726 C.3        1 MOL1        -0.1685
     128    H1      20.658002   18.782487   21.183030 H          1 MOL1         0.0832
     129    H2      18.980034   19.284497   21.217474 H          1 MOL1         0.0832
     130    C2      20.212467   20.208383   22.734758 C.3        1 MOL1        -0.1685
     131    H3      21.272580   20.141877   22.999391 H          1 MOL1         0.0832
     132    H4      20.123773   21.106814   22.121141 H          1 MOL1         0.0832
     133    C3      19.378537   20.383506   24.022682 C.3        1 MOL1        -0.1685
     134    H5      18.328888   20.108244   23.855204 H          1 MOL1         0.0832
     135    H6      19.374502   21.450516   24.282794 H          1 MOL1         0.0832
     136    C4      19.984578   19.611640   25.222637 C.3        1 MOL1        -0.1761
     137    H7      21.044153   19.881218   25.321338 H          1 MOL1         0.0832
     138    H8      19.506385   19.964265   26.145888 H          1 MOL1         0.0832
     139    C5      19.871558   18.070306   25.180303 C.3        1 MOL1         0.1218
     140    H9      20.516044   17.678609   25.979965 H          1 MOL1         0.0789
     141    C6      20.325128   17.404661   23.857820 C.3        1 MOL1        -0.1761
     142    H10     21.371380   17.661195   23.648426 H          1 MOL1         0.0832
     143    H11     20.308695   16.319887   24.022059 H          1 MOL1         0.0832
     144    C7      19.439146   17.723158   22.626477 C.3        1 MOL1        -0.1685
     145    H12     19.484640   16.888257   21.923162 H          1 MOL1         0.0832
     146    H13     18.389783   17.777120   22.925517 H          1 MOL1         0.0832
     147    O1      18.531512   17.697685   25.471474 O.3        1 MOL1        -0.5509
     148    H14     17.993031   18.100028   24.765027 H          1 MOL1         0.3779
@<TRIPOS>BOND
    1     1     2    1
    2     1     3    1
    3     1     4    1
    4     4     5    1
    5     4     6    1
    6     6     7    1
    7     4     8    1
    8     8     9    1
    9     8    10    1
   10    10    11    1
   11     8    12    1
   12    12    13    1
   13    12    14    1
   14    14    15    1
   15     1    16    1
   16    14    16    1
   17    14    17    1
   18    17    18    1
   19    17    19    1
   20    17    20    1
   21    20    21    1
   22    22    23    1
   23    22    24    1
   24    22    25    1
   25    25    26    1
   26    25    27    1
   27    27    28    1
   28    25    29    1
   29    29    30    1
   30    29    31    1
   31    31    32    1
   32     3    33    1
   33    29    33    1
   34    33    34    1
   35    33    35    1
   36    35    36    1
   37    22    37    1
   38    35    37    1
   39    35    38    1
   40    38    39    1
   41    38    40    1
   42    38    41    1
   43    41    42    1
   44    43    44    1
   45    43    45    1
   46    43    46    1
   47    46    47    1
   48    46    48    1
   49    48    49    1
   50    46    50    1
   51    50    51    1
   52    50    52    1
   53    52    53    1
   54    24    54    1
   55    50    54    1
   56    54    55    1
   57    54    56    1
   58    56    57    1
   59    43    58    1
   60    56    58    1
   61    56    59    1
   62    59    60    1
   63    59    61    1
   64    59    62    1
   65    62    63    1
   66    64    65    1
   67    64    66    1
   68    64    67    1
   69    67    68    1
   70    67    69    1
   71    69    70    1
   72    67    71    1
   73    71    72    1
   74    71    73    1
   75    73    74    1
   76    45    75    1
   77    71    75    1
   78    75    76    1
   79    75    77    1
   80    77    78    1
   81    64    79    1
   82    77    79    1
   83    77    80    1
   84    80    81    1
   85    80    82    1
   86    80    83    1
   87    83    84    1
   88    85    86    1
   89    85    87    1
   90    85    88    1
   91    88    89    1
   92    88    90    1
   93    90    91    1
   94    88    92    1
   95    92    93    1
   96    92    94    1
   97    94    95    1
   98    66    96    1
   99    92    96    1
  100    96    97    1
  101    96    98    1
  102    98    99    1
  103    85   100    1
  104    98   100    1
  105    98   101    1
  106   101   102    1
  107   101   103    1
  108   101   104    1
  109   104   105    1
  110   106   107    1
  111    12   108    1
  112   106   108    1
  113   106   109    1
  114   109   110    1
  115   109   111    1
  116   111   112    1
  117   109   113    1
  118   113   114    1
  119   113   115    1
  120   115   116    1
  121    87   117    1
  122   113   117    1
  123   117   118    1
  124   117   119    1
  125   119   120    1
  126   106   121    1
  127   119   121    1
  128   119   122    1
  129   122   123    1
  130   122   124    1
  131   122   125    1
  132   125   126    1
  133   127   128    1
  134   127   129    1
  135   127   130    1
  136   130   131    1
  137   130   132    1
  138   130   133    1
  139   133   134    1
  140   133   135    1
  141   133   136    1
  142   136   137    1
  143   136   138    1
  144   136   139    1
  145   139   140    1
  146   139   141    1
  147   141   142    1
  148   141   143    1
  149   127   144    1
  150   141   144    1
  151   144   145    1
  152   144   146    1
  153   139   147    1
  154   147   148    1
@<TRIPOS>SUBSTRUCTURE
       1 MOL1            1 RESIDUE      1      MOL     
       2 MOL1          148 RESIDUE      1      MOL     
@<SCITEGIC>MOL_PROPERTY
feprocess Rank
SciTegic.value.IntegerValue
1

@<SCITEGIC>MOL_PROPERTY
Conf_Id
SciTegic.value.IntegerValue
1

@<SCITEGIC>MOL_PROPERTY
Probability
SciTegic.value.DoubleValue
100.00

@<SCITEGIC>MOL_PROPERTY
G
SciTegic.value.DoubleValue
578.665

@<SCITEGIC>MOL_PROPERTY
E
SciTegic.value.DoubleValue
384.747

@<SCITEGIC>MOL_PROPERTY
-TS
SciTegic.value.DoubleValue
193.917

@<SCITEGIC>MOL_PROPERTY
U+W
SciTegic.value.DoubleValue
254.188

@<SCITEGIC>MOL_PROPERTY
U
SciTegic.value.DoubleValue
293.200

@<SCITEGIC>MOL_PROPERTY
W
SciTegic.value.DoubleValue
-39.012

@<SCITEGIC>MOL_PROPERTY
W(PB)
SciTegic.value.DoubleValue
-44.951

@<SCITEGIC>MOL_PROPERTY
W(SA)
SciTegic.value.DoubleValue
5.938

@<SCITEGIC>MOL_PROPERTY
Valence
SciTegic.value.DoubleValue
162.156

@<SCITEGIC>MOL_PROPERTY
Coulomb
SciTegic.value.DoubleValue
158.827

@<SCITEGIC>MOL_PROPERTY
VdW
SciTegic.value.DoubleValue
-27.783

@<SCITEGIC>MOL_PROPERTY
VdW6
SciTegic.value.DoubleValue
-183.282

@<SCITEGIC>MOL_PROPERTY
VdW12
SciTegic.value.DoubleValue
155.499

@<SCITEGIC>MOL_PROPERTY
Bond
SciTegic.value.DoubleValue
4.668

@<SCITEGIC>MOL_PROPERTY
Angle
SciTegic.value.DoubleValue
14.042

@<SCITEGIC>MOL_PROPERTY
Pdih
SciTegic.value.DoubleValue
143.446

@<SCITEGIC>MOL_PROPERTY
Idih
SciTegic.value.DoubleValue
0.000

@<SCITEGIC>MOL_PROPERTY
Tether
SciTegic.value.DoubleValue
0.000

