@<TRIPOS>MOLECULE
CD_guest-s21_fast_vm2_single.mol2 : feprocess host+ligand conformer 1
         148         153           2
SMALL
USER_CHARGES
 
@<TRIPOS>ATOM
       1    C1      16.237795   15.219355   21.878530 C.3        1 MOL1         0.2972
       2    H1      15.181314   15.040856   22.115619 H          1 MOL1         0.0751
       3    O1      16.496376   16.609042   21.598331 O.3        1 MOL1        -0.3740
       4    C2      17.132391   14.776316   23.063980 C.3        1 MOL1         0.1003
       5    H2      16.979418   13.698091   23.202770 H          1 MOL1         0.0783
       6    O2      16.774947   15.456950   24.276907 O.3        1 MOL1        -0.5519
       7    H3      16.283561   16.276905   24.020551 H          1 MOL1         0.3769
       8    C3      18.626437   15.002708   22.739410 C.3        1 MOL1         0.1053
       9    H4      18.796013   16.083635   22.652275 H          1 MOL1         0.0783
      10    O3      19.417636   14.473185   23.807431 O.3        1 MOL1        -0.5519
      11    H5      18.976852   14.796803   24.625227 H          1 MOL1         0.3769
      12    C4      19.013706   14.333870   21.395721 C.3        1 MOL1         0.1018
      13    H6      19.068287   13.247316   21.545210 H          1 MOL1         0.0783
      14    C5      17.998596   14.666856   20.264194 C.3        1 MOL1         0.1043
      15    H7      18.125334   15.724237   20.000147 H          1 MOL1         0.0783
      16    O4      16.636269   14.454888   20.720802 O.3        1 MOL1        -0.3740
      17    C6      18.218767   13.843862   18.972821 C.3        1 MOL1         0.0138
      18    H8      19.141888   14.193657   18.490783 H          1 MOL1         0.0794
      19    H9      17.391272   14.050018   18.280850 H          1 MOL1         0.0794
      20    O5      18.310674   12.438191   19.237025 O.3        1 MOL1        -0.5486
      21    H10     18.370795   11.975857   18.372810 H          1 MOL1         0.3769
      22    C7      14.733812   20.332439   21.181622 C.3        1 MOL1         0.2972
      23    H11     14.056951   21.184683   21.039298 H          1 MOL1         0.0751
      24    O6      16.108790   20.750854   21.271143 O.3        1 MOL1        -0.3740
      25    C8      14.384765   19.597965   22.497028 C.3        1 MOL1         0.1003
      26    H12     13.357417   19.221879   22.406134 H          1 MOL1         0.0783
      27    O7      14.463977   20.500046   23.612135 O.3        1 MOL1        -0.5519
      28    H13     15.126083   21.194380   23.372112 H          1 MOL1         0.3769
      29    C9      15.323156   18.387438   22.710003 C.3        1 MOL1         0.1053
      30    H14     16.339579   18.768244   22.879638 H          1 MOL1         0.0783
      31    O8      14.884021   17.650678   23.854126 O.3        1 MOL1        -0.5519
      32    H15     14.689548   18.334619   24.534218 H          1 MOL1         0.3769
      33    C10     15.350105   17.470673   21.460962 C.3        1 MOL1         0.1018
      34    H16     14.410185   16.906096   21.414132 H          1 MOL1         0.0783
      35    C11     15.534639   18.269694   20.139344 C.3        1 MOL1         0.1043
      36    H17     16.558845   18.655982   20.116399 H          1 MOL1         0.0783
      37    O9      14.615778   19.391795   20.091743 O.3        1 MOL1        -0.3740
      38    C12     15.351458   17.414101   18.861521 C.3        1 MOL1         0.0138
      39    H18     16.228164   16.763188   18.747218 H          1 MOL1         0.0794
      40    H19     15.330961   18.085152   17.992497 H          1 MOL1         0.0794
      41    O10     14.163627   16.614685   18.894601 O.3        1 MOL1        -0.5486
      42    H20     14.360332   15.820621   19.436750 H          1 MOL1         0.3769
      43    C13     18.657370   23.924201   20.398468 C.3        1 MOL1         0.2972
      44    H21     19.114802   24.847479   20.020400 H          1 MOL1         0.0751
      45    O11     19.643846   23.048637   20.982046 O.3        1 MOL1        -0.3740
      46    C14     17.543311   24.229258   21.438932 C.3        1 MOL1         0.1003
      47    H22     16.769379   24.807110   20.917200 H          1 MOL1         0.0783
      48    O12     18.030399   25.008915   22.540867 O.3        1 MOL1        -0.5519
      49    H23     18.709993   24.458179   23.006063 H          1 MOL1         0.3769
      50    C15     16.892721   22.915190   21.939697 C.3        1 MOL1         0.1053
      51    H24     17.649050   22.342803   22.496154 H          1 MOL1         0.0783
      52    O13     15.785496   23.218321   22.795319 O.3        1 MOL1        -0.5519
      53    H25     16.113750   23.917689   23.403065 H          1 MOL1         0.3769
      54    C16     16.410416   22.054556   20.745710 C.3        1 MOL1         0.1018
      55    H26     15.530981   22.536593   20.298920 H          1 MOL1         0.0783
      56    C17     17.510346   21.890448   19.662535 C.3        1 MOL1         0.1043
      57    H27     18.313568   21.284376   20.093715 H          1 MOL1         0.0783
      58    O14     18.033117   23.198182   19.314110 O.3        1 MOL1        -0.3740
      59    C18     17.053962   21.167133   18.368273 C.3        1 MOL1         0.0138
      60    H28     17.221682   20.090137   18.494422 H          1 MOL1         0.0794
      61    H29     17.699551   21.491046   17.541131 H          1 MOL1         0.0794
      62    O15     15.679072   21.400891   18.041028 O.3        1 MOL1        -0.5486
      63    H30     15.142409   20.819691   18.628355 H          1 MOL1         0.3769
      64    C19     23.436324   22.657759   22.499002 C.3        1 MOL1         0.2972
      65    H31     24.445603   22.758662   22.918630 H          1 MOL1         0.0751
      66    O16     23.165032   21.298148   22.101127 O.3        1 MOL1        -0.3740
      67    C20     22.384784   23.113757   23.541431 C.3        1 MOL1         0.1003
      68    H32     22.538885   24.187177   23.709827 H          1 MOL1         0.0783
      69    O17     22.560624   22.425173   24.789276 O.3        1 MOL1        -0.5519
      70    H33     22.237062   21.491037   24.672882 H          1 MOL1         0.3769
      71    C21     20.961003   22.923496   22.969647 C.3        1 MOL1         0.1053
      72    H34     20.819555   21.854341   22.789099 H          1 MOL1         0.0783
      73    O18     19.970795   23.379111   23.898219 O.3        1 MOL1        -0.5519
      74    H35     19.810273   22.600634   24.497091 H          1 MOL1         0.3769
      75    C22     20.798340   23.644267   21.608104 C.3        1 MOL1         0.1018
      76    H36     20.671470   24.720817   21.782439 H          1 MOL1         0.0783
      77    C23     21.995228   23.383366   20.647382 C.3        1 MOL1         0.1043
      78    H37     21.884009   22.359292   20.274111 H          1 MOL1         0.0783
      79    O19     23.273722   23.493892   21.331590 O.3        1 MOL1        -0.3740
      80    C24     22.012536   24.316535   19.413639 C.3        1 MOL1         0.0138
      81    H38     21.175505   24.041971   18.757493 H          1 MOL1         0.0794
      82    H39     22.938967   24.139098   18.850935 H          1 MOL1         0.0794
      83    O20     21.909105   25.697260   19.781849 O.3        1 MOL1        -0.5486
      84    H40     22.006203   26.232300   18.964008 H          1 MOL1         0.3769
      85    C25     25.103317   17.682890   21.362350 C.3        1 MOL1         0.2972
      86    H41     25.838679   16.914015   21.093506 H          1 MOL1         0.0751
      87    O21     23.819247   17.098525   21.657839 O.3        1 MOL1        -0.3740
      88    C26     25.578892   18.430777   22.631378 C.3        1 MOL1         0.1003
      89    H42     26.568180   18.852175   22.410430 H          1 MOL1         0.0783
      90    O22     25.690203   17.510317   23.728687 O.3        1 MOL1        -0.5519
      91    H43     24.931301   16.884414   23.643558 H          1 MOL1         0.3769
      92    C27     24.635978   19.603964   23.000951 C.3        1 MOL1         0.1053
      93    H44     23.691219   19.187504   23.379295 H          1 MOL1         0.0783
      94    O23     25.270181   20.390738   24.014528 O.3        1 MOL1        -0.5519
      95    H45     25.459649   19.766392   24.747667 H          1 MOL1         0.3769
      96    C28     24.313025   20.491861   21.771022 C.3        1 MOL1         0.1018
      97    H46     25.191582   21.108638   21.540886 H          1 MOL1         0.0783
      98    C29     23.939410   19.651999   20.518364 C.3        1 MOL1         0.1043
      99    H47     22.980996   19.157039   20.714234 H          1 MOL1         0.0783
     100    O24     24.954025   18.642775   20.294690 O.3        1 MOL1        -0.3740
     101    C30     23.766706   20.478223   19.215956 C.3        1 MOL1         0.0138
     102    H48     22.711846   20.764488   19.124141 H          1 MOL1         0.0794
     103    H49     23.990499   19.832645   18.356507 H          1 MOL1         0.0794
     104    O25     24.591960   21.649584   19.172376 O.3        1 MOL1        -0.5486
     105    H50     24.283569   22.255075   19.885822 H          1 MOL1         0.3769
     106    C31     21.298439   13.971221   20.543503 C.3        1 MOL1         0.2972
     107    H51     20.855850   13.051336   20.140427 H          1 MOL1         0.0751
     108    O26     20.285397   14.888065   21.004179 O.3        1 MOL1        -0.3740
     109    C32     22.278579   13.662698   21.706046 C.3        1 MOL1         0.1003
     110    H52     23.083156   13.040713   21.292678 H          1 MOL1         0.0783
     111    O27     21.636847   12.942020   22.768667 O.3        1 MOL1        -0.5519
     112    H53     20.892902   13.508951   23.095507 H          1 MOL1         0.3769
     113    C33     22.916305   14.969500   22.239498 C.3        1 MOL1         0.1053
     114    H54     22.123454   15.575518   22.700558 H          1 MOL1         0.0783
     115    O28     23.912723   14.648336   23.216827 O.3        1 MOL1        -0.5519
     116    H55     23.493158   13.979251   23.801736 H          1 MOL1         0.3769
     117    C34     23.554646   15.796826   21.093969 C.3        1 MOL1         0.1018
     118    H56     24.477006   15.289174   20.783146 H          1 MOL1         0.0783
     119    C35     22.596543   15.942240   19.873932 C.3        1 MOL1         0.1043
     120    H57     21.773880   16.598976   20.171784 H          1 MOL1         0.0783
     121    O29     22.063116   14.641416   19.518808 O.3        1 MOL1        -0.3740
     122    C36     23.217102   16.561818   18.596556 C.3        1 MOL1         0.0138
     123    H58     23.106936   17.651052   18.648331 H          1 MOL1         0.0794
     124    H59     22.630040   16.229669   17.729802 H          1 MOL1         0.0794
     125    O30     24.596087   16.224119   18.413241 O.3        1 MOL1        -0.5486
     126    H60     25.116733   16.922352   18.869516 H          1 MOL1         0.3769
     127    C1      20.221290   19.894270   24.457066 C.2        1 MOL1         0.6145
     128    O1      21.407168   19.867885   24.722655 O.co2      1 MOL1        -0.6735
     129    O2      19.465877   20.758716   24.858982 O.co2      1 MOL1        -0.6735
     130    C2      19.709190   18.919454   23.402943 C.3        1 MOL1        -0.1985
     131    H1      18.630685   18.788139   23.545796 H          1 MOL1         0.0740
     132    H2      20.184967   17.949138   23.588063 H          1 MOL1         0.0740
     133    C3      20.011099   19.397999   21.961726 C.3        1 MOL1        -0.1882
     134    H3      19.499376   20.351221   21.782909 H          1 MOL1         0.0742
     135    H4      21.087325   19.586230   21.871269 H          1 MOL1         0.0742
     136    C4      19.573700   18.370270   20.904109 C.3        1 MOL1        -0.1880
     137    H5      18.487762   18.250815   20.950595 H          1 MOL1         0.0742
     138    H6      20.006036   17.398393   21.156406 H          1 MOL1         0.0742
     139    C5      20.008248   18.772662   19.478627 C.3        1 MOL1        -0.1880
     140    H7      19.631566   19.772754   19.238786 H          1 MOL1         0.0742
     141    H8      21.101171   18.834943   19.434687 H          1 MOL1         0.0742
     142    C6      19.511027   17.767881   18.420763 C.3        1 MOL1        -0.1856
     143    H9      18.416661   17.702019   18.459733 H          1 MOL1         0.0742
     144    H10     19.901052   16.766176   18.645650 H          1 MOL1         0.0742
     145    C7      19.946378   18.180853   17.001744 C.3        1 MOL1        -0.2871
     146    H11     19.535843   19.163660   16.736111 H          1 MOL1         0.0754
     147    H12     19.590043   17.453230   16.261340 H          1 MOL1         0.0754
     148    H13     21.039822   18.234657   16.925218 H          1 MOL1         0.0754
@<TRIPOS>BOND
    1     1     2    1
    2     1     3    1
    3     1     4    1
    4     4     5    1
    5     4     6    1
    6     6     7    1
    7     4     8    1
    8     8     9    1
    9     8    10    1
   10    10    11    1
   11     8    12    1
   12    12    13    1
   13    12    14    1
   14    14    15    1
   15     1    16    1
   16    14    16    1
   17    14    17    1
   18    17    18    1
   19    17    19    1
   20    17    20    1
   21    20    21    1
   22    22    23    1
   23    22    24    1
   24    22    25    1
   25    25    26    1
   26    25    27    1
   27    27    28    1
   28    25    29    1
   29    29    30    1
   30    29    31    1
   31    31    32    1
   32     3    33    1
   33    29    33    1
   34    33    34    1
   35    33    35    1
   36    35    36    1
   37    22    37    1
   38    35    37    1
   39    35    38    1
   40    38    39    1
   41    38    40    1
   42    38    41    1
   43    41    42    1
   44    43    44    1
   45    43    45    1
   46    43    46    1
   47    46    47    1
   48    46    48    1
   49    48    49    1
   50    46    50    1
   51    50    51    1
   52    50    52    1
   53    52    53    1
   54    24    54    1
   55    50    54    1
   56    54    55    1
   57    54    56    1
   58    56    57    1
   59    43    58    1
   60    56    58    1
   61    56    59    1
   62    59    60    1
   63    59    61    1
   64    59    62    1
   65    62    63    1
   66    64    65    1
   67    64    66    1
   68    64    67    1
   69    67    68    1
   70    67    69    1
   71    69    70    1
   72    67    71    1
   73    71    72    1
   74    71    73    1
   75    73    74    1
   76    45    75    1
   77    71    75    1
   78    75    76    1
   79    75    77    1
   80    77    78    1
   81    64    79    1
   82    77    79    1
   83    77    80    1
   84    80    81    1
   85    80    82    1
   86    80    83    1
   87    83    84    1
   88    85    86    1
   89    85    87    1
   90    85    88    1
   91    88    89    1
   92    88    90    1
   93    90    91    1
   94    88    92    1
   95    92    93    1
   96    92    94    1
   97    94    95    1
   98    66    96    1
   99    92    96    1
  100    96    97    1
  101    96    98    1
  102    98    99    1
  103    85   100    1
  104    98   100    1
  105    98   101    1
  106   101   102    1
  107   101   103    1
  108   101   104    1
  109   104   105    1
  110   106   107    1
  111    12   108    1
  112   106   108    1
  113   106   109    1
  114   109   110    1
  115   109   111    1
  116   111   112    1
  117   109   113    1
  118   113   114    1
  119   113   115    1
  120   115   116    1
  121    87   117    1
  122   113   117    1
  123   117   118    1
  124   117   119    1
  125   119   120    1
  126   106   121    1
  127   119   121    1
  128   119   122    1
  129   122   123    1
  130   122   124    1
  131   122   125    1
  132   125   126    1
  133   127   128    1
  134   127   129    2
  135   127   130    1
  136   130   131    1
  137   130   132    1
  138   130   133    1
  139   133   134    1
  140   133   135    1
  141   133   136    1
  142   136   137    1
  143   136   138    1
  144   136   139    1
  145   139   140    1
  146   139   141    1
  147   139   142    1
  148   142   143    1
  149   142   144    1
  150   142   145    1
  151   145   146    1
  152   145   147    1
  153   145   148    1
@<TRIPOS>SUBSTRUCTURE
       1 MOL1            1 RESIDUE      1      MOL     
       2 MOL1          148 RESIDUE      1      MOL     
@<SCITEGIC>MOL_PROPERTY
feprocess Rank
SciTegic.value.IntegerValue
1

@<SCITEGIC>MOL_PROPERTY
Conf_Id
SciTegic.value.IntegerValue
1

@<SCITEGIC>MOL_PROPERTY
Probability
SciTegic.value.DoubleValue
100.00

@<SCITEGIC>MOL_PROPERTY
G
SciTegic.value.DoubleValue
509.803

@<SCITEGIC>MOL_PROPERTY
E
SciTegic.value.DoubleValue
316.831

@<SCITEGIC>MOL_PROPERTY
-TS
SciTegic.value.DoubleValue
192.972

@<SCITEGIC>MOL_PROPERTY
U+W
SciTegic.value.DoubleValue
186.271

@<SCITEGIC>MOL_PROPERTY
U
SciTegic.value.DoubleValue
258.956

@<SCITEGIC>MOL_PROPERTY
W
SciTegic.value.DoubleValue
-72.684

@<SCITEGIC>MOL_PROPERTY
W(PB)
SciTegic.value.DoubleValue
-78.667

@<SCITEGIC>MOL_PROPERTY
W(SA)
SciTegic.value.DoubleValue
5.984

@<SCITEGIC>MOL_PROPERTY
Valence
SciTegic.value.DoubleValue
155.125

@<SCITEGIC>MOL_PROPERTY
Coulomb
SciTegic.value.DoubleValue
132.353

@<SCITEGIC>MOL_PROPERTY
VdW
SciTegic.value.DoubleValue
-28.522

@<SCITEGIC>MOL_PROPERTY
VdW6
SciTegic.value.DoubleValue
-189.704

@<SCITEGIC>MOL_PROPERTY
VdW12
SciTegic.value.DoubleValue
161.181

@<SCITEGIC>MOL_PROPERTY
Bond
SciTegic.value.DoubleValue
4.979

@<SCITEGIC>MOL_PROPERTY
Angle
SciTegic.value.DoubleValue
14.403

@<SCITEGIC>MOL_PROPERTY
Pdih
SciTegic.value.DoubleValue
135.681

@<SCITEGIC>MOL_PROPERTY
Idih
SciTegic.value.DoubleValue
0.061

@<SCITEGIC>MOL_PROPERTY
Tether
SciTegic.value.DoubleValue
0.000

