@<TRIPOS>MOLECULE
CD_guest-s15_fast_vm2_single.mol2 : feprocess host+ligand conformer 1
         155         160           2
SMALL
USER_CHARGES
 
@<TRIPOS>ATOM
       1    C1      16.221086   15.156018   21.118020 C.3        1 MOL1         0.2972
       2    H1      15.161857   14.956962   20.911568 H          1 MOL1         0.0751
       3    O1      16.452035   16.544951   21.423239 O.3        1 MOL1        -0.3740
       4    C2      16.676656   14.333204   22.349554 C.3        1 MOL1         0.1003
       5    H2      16.500710   13.273058   22.125433 H          1 MOL1         0.0783
       6    O2      15.915404   14.708960   23.509199 O.3        1 MOL1        -0.5519
       7    H3      15.669732   15.661111   23.399046 H          1 MOL1         0.3769
       8    C3      18.188921   14.523535   22.615142 C.3        1 MOL1         0.1053
       9    H4      18.350356   15.559854   22.936077 H          1 MOL1         0.0783
      10    O3      18.615533   13.628950   23.647584 O.3        1 MOL1        -0.5519
      11    H5      17.931399   13.704766   24.349665 H          1 MOL1         0.3769
      12    C4      19.011979   14.277949   21.328814 C.3        1 MOL1         0.1018
      13    H6      18.975523   13.205525   21.096027 H          1 MOL1         0.0783
      14    C5      18.453575   15.082986   20.124216 C.3        1 MOL1         0.1043
      15    H7      18.583625   16.148100   20.340050 H          1 MOL1         0.0783
      16    O4      17.039361   14.797834   19.981680 O.3        1 MOL1        -0.3740
      17    C6      19.160628   14.814464   18.770995 C.3        1 MOL1         0.0138
      18    H8      20.036745   15.471868   18.699725 H          1 MOL1         0.0794
      19    H9      18.480210   15.099515   17.957678 H          1 MOL1         0.0794
      20    O5      19.573486   13.453567   18.609992 O.3        1 MOL1        -0.5486
      21    H10     20.467062   13.378740   19.016111 H          1 MOL1         0.3769
      22    C7      14.838737   20.335887   20.774483 C.3        1 MOL1         0.2972
      23    H11     14.194070   21.179990   20.497935 H          1 MOL1         0.0751
      24    O6      16.168273   20.777143   21.119702 O.3        1 MOL1        -0.3740
      25    C8      14.240613   19.540347   21.967979 C.3        1 MOL1         0.1003
      26    H12     13.261500   19.160411   21.648474 H          1 MOL1         0.0783
      27    O7      14.064681   20.367272   23.128982 O.3        1 MOL1        -0.5519
      28    H13     14.952664   20.732301   23.368566 H          1 MOL1         0.3769
      29    C9      15.137392   18.326242   22.306735 C.3        1 MOL1         0.1053
      30    H14     16.098965   18.710780   22.663548 H          1 MOL1         0.0783
      31    O8      14.528150   17.532597   23.330237 O.3        1 MOL1        -0.5519
      32    H15     14.171314   18.178317   23.980121 H          1 MOL1         0.3769
      33    C10     15.404818   17.460394   21.053205 C.3        1 MOL1         0.1018
      34    H16     14.473605   16.942032   20.789429 H          1 MOL1         0.0783
      35    C11     15.886350   18.320315   19.850493 C.3        1 MOL1         0.1043
      36    H17     16.878805   18.719966   20.088472 H          1 MOL1         0.0783
      37    O9      14.963640   19.422298   19.660780 O.3        1 MOL1        -0.3740
      38    C12     16.028900   17.557831   18.509049 C.3        1 MOL1         0.0138
      39    H18     17.022985   17.094580   18.475729 H          1 MOL1         0.0794
      40    H19     15.989973   18.286599   17.688449 H          1 MOL1         0.0794
      41    O10     15.027330   16.552643   18.321121 O.3        1 MOL1        -0.5486
      42    H20     15.388915   15.720352   18.699887 H          1 MOL1         0.3769
      43    C13     18.503370   24.051665   21.924428 C.3        1 MOL1         0.2972
      44    H21     18.963582   25.016615   22.173443 H          1 MOL1         0.0751
      45    O11     19.453609   23.131478   21.350468 O.3        1 MOL1        -0.3740
      46    C14     17.887289   23.398509   23.186310 C.3        1 MOL1         0.1003
      47    H22     17.071788   24.047509   23.531522 H          1 MOL1         0.0783
      48    O12     18.855710   23.251456   24.237035 O.3        1 MOL1        -0.5519
      49    H23     19.709200   23.621299   23.902194 H          1 MOL1         0.3769
      50    C15     17.294613   22.020731   22.823037 C.3        1 MOL1         0.1053
      51    H24     18.132950   21.385702   22.516924 H          1 MOL1         0.0783
      52    O13     16.661130   21.454382   23.975750 O.3        1 MOL1        -0.5519
      53    H25     17.175536   21.823314   24.731929 H          1 MOL1         0.3769
      54    C16     16.300807   22.116236   21.636767 C.3        1 MOL1         0.1018
      55    H26     15.347167   22.512096   22.010328 H          1 MOL1         0.0783
      56    C17     16.829566   23.003678   20.469787 C.3        1 MOL1         0.1043
      57    H27     17.593939   22.427737   19.932933 H          1 MOL1         0.0783
      58    O14     17.431986   24.225141   20.973774 O.3        1 MOL1        -0.3740
      59    C18     15.743311   23.384726   19.435693 C.3        1 MOL1         0.0138
      60    H28     15.482280   22.488389   18.857068 H          1 MOL1         0.0794
      61    H29     16.169676   24.112781   18.732552 H          1 MOL1         0.0794
      62    O15     14.569100   23.921392   20.057322 O.3        1 MOL1        -0.5486
      63    H30     13.964236   24.221168   19.343844 H          1 MOL1         0.3769
      64    C19     23.504310   22.690225   20.614936 C.3        1 MOL1         0.2972
      65    H31     24.549999   22.803660   20.301421 H          1 MOL1         0.0751
      66    O16     23.208670   21.322315   20.973271 O.3        1 MOL1        -0.3740
      67    C20     23.168092   23.637618   21.800297 C.3        1 MOL1         0.1003
      68    H32     23.306888   24.664181   21.436701 H          1 MOL1         0.0783
      69    O17     24.034382   23.429976   22.925166 O.3        1 MOL1        -0.5519
      70    H33     23.869250   22.508865   23.249648 H          1 MOL1         0.3769
      71    C21     21.685781   23.482156   22.219740 C.3        1 MOL1         0.1053
      72    H34     21.547294   22.466785   22.617011 H          1 MOL1         0.0783
      73    O18     21.377042   24.445424   23.232359 O.3        1 MOL1        -0.5519
      74    H35     22.165589   24.457678   23.821256 H          1 MOL1         0.3769
      75    C22     20.743291   23.660309   21.000036 C.3        1 MOL1         0.1018
      76    H36     20.690093   24.722819   20.730127 H          1 MOL1         0.0783
      77    C23     21.212385   22.837750   19.771147 C.3        1 MOL1         0.1043
      78    H37     21.043322   21.782007   20.004907 H          1 MOL1         0.0783
      79    O19     22.624410   23.052885   19.529180 O.3        1 MOL1        -0.3740
      80    C24     20.427265   23.136329   18.469921 C.3        1 MOL1         0.0138
      81    H38     19.447011   22.646465   18.533123 H          1 MOL1         0.0794
      82    H39     20.962508   22.677428   17.627962 H          1 MOL1         0.0794
      83    O20     20.250627   24.538260   18.235354 O.3        1 MOL1        -0.5486
      84    H40     19.571100   24.859431   18.866629 H          1 MOL1         0.3769
      85    C25     24.907049   17.706685   22.074709 C.3        1 MOL1         0.2972
      86    H41     25.565267   16.893629   22.407015 H          1 MOL1         0.0751
      87    O21     23.671785   17.198444   21.525595 O.3        1 MOL1        -0.3740
      88    C26     24.602973   18.669231   23.253922 C.3        1 MOL1         0.1003
      89    H42     25.563083   19.088530   23.582177 H          1 MOL1         0.0783
      90    O22     23.984257   17.996445   24.361530 O.3        1 MOL1        -0.5519
      91    H43     24.099896   17.026002   24.219092 H          1 MOL1         0.3769
      92    C27     23.704784   19.835701   22.790240 C.3        1 MOL1         0.1053
      93    H44     22.731501   19.415161   22.519048 H          1 MOL1         0.0783
      94    O23     23.543125   20.756827   23.872016 O.3        1 MOL1        -0.5519
      95    H45     23.372223   20.185450   24.654946 H          1 MOL1         0.3769
      96    C28     24.284669   20.548266   21.543515 C.3        1 MOL1         0.1018
      97    H46     25.126247   21.179458   21.858368 H          1 MOL1         0.0783
      98    C29     24.756001   19.542111   20.453920 C.3        1 MOL1         0.1043
      99    H47     23.865011   19.097170   19.994787 H          1 MOL1         0.0783
     100    O24     25.554985   18.485242   21.046080 O.3        1 MOL1        -0.3740
     101    C30     25.572474   20.199800   19.316022 C.3        1 MOL1         0.0138
     102    H48     24.891139   20.807616   18.705295 H          1 MOL1         0.0794
     103    H49     25.972205   19.407707   18.668720 H          1 MOL1         0.0794
     104    O25     26.636217   21.018698   19.817159 O.3        1 MOL1        -0.5486
     105    H50     27.159332   21.332683   19.047566 H          1 MOL1         0.3769
     106    C31     21.392836   13.760599   21.390144 C.3        1 MOL1         0.2972
     107    H51     20.991347   12.744663   21.285578 H          1 MOL1         0.0751
     108    O26     20.349779   14.732413   21.604552 O.3        1 MOL1        -0.3740
     109    C32     22.356245   13.816208   22.596508 C.3        1 MOL1         0.1003
     110    H52     23.175954   13.113806   22.396335 H          1 MOL1         0.0783
     111    O27     21.678762   13.424282   23.801330 O.3        1 MOL1        -0.5519
     112    H53     20.732376   13.699472   23.707614 H          1 MOL1         0.3769
     113    C33     22.964697   15.227971   22.756184 C.3        1 MOL1         0.1053
     114    H54     22.160497   15.905152   23.069184 H          1 MOL1         0.0783
     115    O28     23.976936   15.171986   23.766404 O.3        1 MOL1        -0.5519
     116    H55     23.593598   14.604144   24.473606 H          1 MOL1         0.3769
     117    C34     23.554629   15.762988   21.422372 C.3        1 MOL1         0.1018
     118    H56     24.529290   15.290734   21.245906 H          1 MOL1         0.0783
     119    C35     22.634066   15.495553   20.197542 C.3        1 MOL1         0.1043
     120    H57     21.784639   16.187169   20.257089 H          1 MOL1         0.0783
     121    O29     22.130871   14.136565   20.211375 O.3        1 MOL1        -0.3740
     122    C36     23.336825   15.742620   18.839006 C.3        1 MOL1         0.0138
     123    H58     23.561525   16.812965   18.744850 H          1 MOL1         0.0794
     124    H59     22.637425   15.483757   18.033048 H          1 MOL1         0.0794
     125    O30     24.545740   14.987336   18.697900 O.3        1 MOL1        -0.5486
     126    H60     25.231995   15.412498   19.254600 H          1 MOL1         0.3769
     127    C1      21.984988   19.279394   16.455382 C.3        1 MOL1        -0.2426
     128    H1      22.578090   20.169489   16.703531 H          1 MOL1         0.0959
     129    H2      22.627885   18.396814   16.568246 H          1 MOL1         0.0959
     130    H3      21.695026   19.351907   15.399149 H          1 MOL1         0.0959
     131    C2      20.736693   19.177036   17.356338 C.3        1 MOL1        -0.1410
     132    H4      20.145226   18.297683   17.065577 H          1 MOL1         0.0948
     133    H5      20.098553   20.057070   17.195770 H          1 MOL1         0.0948
     134    C3      21.125585   19.077941   18.845425 C.3        1 MOL1        -0.1435
     135    H6      21.749078   18.191002   18.999688 H          1 MOL1         0.0948
     136    H7      21.745106   19.940597   19.117583 H          1 MOL1         0.0948
     137    C4      19.889514   18.997711   19.766761 C.3        1 MOL1        -0.1435
     138    H8      19.310916   18.101658   19.512707 H          1 MOL1         0.0948
     139    H9      19.232983   19.860928   19.588141 H          1 MOL1         0.0948
     140    C5      20.290427   18.961026   21.258031 C.3        1 MOL1        -0.1435
     141    H10     21.055520   18.189643   21.414814 H          1 MOL1         0.0948
     142    H11     20.740758   19.925383   21.530665 H          1 MOL1         0.0948
     143    C6      19.079991   18.679708   22.176028 C.3        1 MOL1        -0.1500
     144    H12     18.737224   17.651373   22.025264 H          1 MOL1         0.0948
     145    H13     18.252932   19.327169   21.870362 H          1 MOL1         0.0948
     146    C7      19.369203   18.911187   23.674791 C.3        1 MOL1         0.1162
     147    H14     19.801727   19.909957   23.792720 H          1 MOL1         0.0910
     148    C8      20.366405   17.880480   24.228412 C.3        1 MOL1        -0.2491
     149    H15     19.999012   16.855069   24.099744 H          1 MOL1         0.0959
     150    H16     21.335108   17.962186   23.725636 H          1 MOL1         0.0959
     151    H17     20.543950   18.047367   25.297798 H          1 MOL1         0.0959
     152    N1      18.102546   18.901918   24.484882 N.4        1 MOL1        -0.5987
     153    H18     17.472018   19.666591   24.199456 H          1 MOL1         0.3605
     154    H19     18.301833   19.034187   25.480446 H          1 MOL1         0.3605
     155    H20     17.595629   18.017705   24.384743 H          1 MOL1         0.3605
@<TRIPOS>BOND
    1     1     2    1
    2     1     3    1
    3     1     4    1
    4     4     5    1
    5     4     6    1
    6     6     7    1
    7     4     8    1
    8     8     9    1
    9     8    10    1
   10    10    11    1
   11     8    12    1
   12    12    13    1
   13    12    14    1
   14    14    15    1
   15     1    16    1
   16    14    16    1
   17    14    17    1
   18    17    18    1
   19    17    19    1
   20    17    20    1
   21    20    21    1
   22    22    23    1
   23    22    24    1
   24    22    25    1
   25    25    26    1
   26    25    27    1
   27    27    28    1
   28    25    29    1
   29    29    30    1
   30    29    31    1
   31    31    32    1
   32     3    33    1
   33    29    33    1
   34    33    34    1
   35    33    35    1
   36    35    36    1
   37    22    37    1
   38    35    37    1
   39    35    38    1
   40    38    39    1
   41    38    40    1
   42    38    41    1
   43    41    42    1
   44    43    44    1
   45    43    45    1
   46    43    46    1
   47    46    47    1
   48    46    48    1
   49    48    49    1
   50    46    50    1
   51    50    51    1
   52    50    52    1
   53    52    53    1
   54    24    54    1
   55    50    54    1
   56    54    55    1
   57    54    56    1
   58    56    57    1
   59    43    58    1
   60    56    58    1
   61    56    59    1
   62    59    60    1
   63    59    61    1
   64    59    62    1
   65    62    63    1
   66    64    65    1
   67    64    66    1
   68    64    67    1
   69    67    68    1
   70    67    69    1
   71    69    70    1
   72    67    71    1
   73    71    72    1
   74    71    73    1
   75    73    74    1
   76    45    75    1
   77    71    75    1
   78    75    76    1
   79    75    77    1
   80    77    78    1
   81    64    79    1
   82    77    79    1
   83    77    80    1
   84    80    81    1
   85    80    82    1
   86    80    83    1
   87    83    84    1
   88    85    86    1
   89    85    87    1
   90    85    88    1
   91    88    89    1
   92    88    90    1
   93    90    91    1
   94    88    92    1
   95    92    93    1
   96    92    94    1
   97    94    95    1
   98    66    96    1
   99    92    96    1
  100    96    97    1
  101    96    98    1
  102    98    99    1
  103    85   100    1
  104    98   100    1
  105    98   101    1
  106   101   102    1
  107   101   103    1
  108   101   104    1
  109   104   105    1
  110   106   107    1
  111    12   108    1
  112   106   108    1
  113   106   109    1
  114   109   110    1
  115   109   111    1
  116   111   112    1
  117   109   113    1
  118   113   114    1
  119   113   115    1
  120   115   116    1
  121    87   117    1
  122   113   117    1
  123   117   118    1
  124   117   119    1
  125   119   120    1
  126   106   121    1
  127   119   121    1
  128   119   122    1
  129   122   123    1
  130   122   124    1
  131   122   125    1
  132   125   126    1
  133   127   128    1
  134   127   129    1
  135   127   130    1
  136   127   131    1
  137   131   132    1
  138   131   133    1
  139   131   134    1
  140   134   135    1
  141   134   136    1
  142   134   137    1
  143   137   138    1
  144   137   139    1
  145   137   140    1
  146   140   141    1
  147   140   142    1
  148   140   143    1
  149   143   144    1
  150   143   145    1
  151   143   146    1
  152   146   147    1
  153   146   148    1
  154   148   149    1
  155   148   150    1
  156   148   151    1
  157   146   152    1
  158   152   153    1
  159   152   154    1
  160   152   155    1
@<TRIPOS>SUBSTRUCTURE
       1 MOL1            1 RESIDUE      1      MOL     
       2 MOL1          155 RESIDUE      1      MOL     
@<SCITEGIC>MOL_PROPERTY
feprocess Rank
SciTegic.value.IntegerValue
1

@<SCITEGIC>MOL_PROPERTY
Conf_Id
SciTegic.value.IntegerValue
1

@<SCITEGIC>MOL_PROPERTY
Probability
SciTegic.value.DoubleValue
100.00

@<SCITEGIC>MOL_PROPERTY
G
SciTegic.value.DoubleValue
568.882

@<SCITEGIC>MOL_PROPERTY
E
SciTegic.value.DoubleValue
360.270

@<SCITEGIC>MOL_PROPERTY
-TS
SciTegic.value.DoubleValue
208.611

@<SCITEGIC>MOL_PROPERTY
U+W
SciTegic.value.DoubleValue
223.451

@<SCITEGIC>MOL_PROPERTY
U
SciTegic.value.DoubleValue
305.911

@<SCITEGIC>MOL_PROPERTY
W
SciTegic.value.DoubleValue
-82.460

@<SCITEGIC>MOL_PROPERTY
W(PB)
SciTegic.value.DoubleValue
-88.534

@<SCITEGIC>MOL_PROPERTY
W(SA)
SciTegic.value.DoubleValue
6.073

@<SCITEGIC>MOL_PROPERTY
Valence
SciTegic.value.DoubleValue
151.270

@<SCITEGIC>MOL_PROPERTY
Coulomb
SciTegic.value.DoubleValue
183.680

@<SCITEGIC>MOL_PROPERTY
VdW
SciTegic.value.DoubleValue
-29.038

@<SCITEGIC>MOL_PROPERTY
VdW6
SciTegic.value.DoubleValue
-188.798

@<SCITEGIC>MOL_PROPERTY
VdW12
SciTegic.value.DoubleValue
159.760

@<SCITEGIC>MOL_PROPERTY
Bond
SciTegic.value.DoubleValue
4.659

@<SCITEGIC>MOL_PROPERTY
Angle
SciTegic.value.DoubleValue
12.500

@<SCITEGIC>MOL_PROPERTY
Pdih
SciTegic.value.DoubleValue
134.111

@<SCITEGIC>MOL_PROPERTY
Idih
SciTegic.value.DoubleValue
0.000

@<SCITEGIC>MOL_PROPERTY
Tether
SciTegic.value.DoubleValue
0.000

