@<TRIPOS>MOLECULE
CD_guest-1_fast_vm2_single.mol2 : feprocess host+ligand conformer 1
         143         148           2
SMALL
USER_CHARGES
 
@<TRIPOS>ATOM
       1    C1      16.557259   15.243557   22.172444 C.3        1 MOL1         0.2972
       2    H1      15.555743   15.218833   22.620970 H          1 MOL1         0.0751
       3    O1      16.847796   16.530539   21.594388 O.3        1 MOL1        -0.3740
       4    C2      17.624970   14.927471   23.245879 C.3        1 MOL1         0.1003
       5    H2      17.393189   13.933383   23.650261 H          1 MOL1         0.0783
       6    O2      17.606875   15.898601   24.308102 O.3        1 MOL1        -0.5519
       7    H3      16.724780   16.346037   24.272799 H          1 MOL1         0.3769
       8    C3      19.040629   14.889971   22.635282 C.3        1 MOL1         0.1053
       9    H4      19.313073   15.919706   22.391864 H          1 MOL1         0.0783
      10    O3      19.939432   14.390127   23.628777 O.3        1 MOL1        -0.5519
      11    H5      19.592115   14.724671   24.485249 H          1 MOL1         0.3769
      12    C4      19.142361   14.076580   21.316174 C.3        1 MOL1         0.1018
      13    H6      19.291748   13.014748   21.551010 H          1 MOL1         0.0783
      14    C5      17.908104   14.254021   20.383546 C.3        1 MOL1         0.1043
      15    H7      18.008509   15.223244   19.878686 H          1 MOL1         0.0783
      16    O4      16.667623   14.249825   21.133931 O.3        1 MOL1        -0.3740
      17    C6      17.819296   13.178217   19.275340 C.3        1 MOL1         0.0138
      18    H8      18.644084   13.338824   18.567953 H          1 MOL1         0.0794
      19    H9      16.881608   13.321516   18.721692 H          1 MOL1         0.0794
      20    O5      17.886483   11.848858   19.805915 O.3        1 MOL1        -0.5486
      21    H10     17.754452   11.222993   19.060396 H          1 MOL1         0.3769
      22    C7      14.883759   20.214725   21.178634 C.3        1 MOL1         0.2972
      23    H11     14.109150   20.969224   20.993269 H          1 MOL1         0.0751
      24    O6      16.183149   20.812868   21.355409 O.3        1 MOL1        -0.3740
      25    C8      14.550557   19.420073   22.468745 C.3        1 MOL1         0.1003
      26    H12     13.567645   18.954180   22.320223 H          1 MOL1         0.0783
      27    O7      14.486651   20.292671   23.608219 O.3        1 MOL1        -0.5519
      28    H13     15.132101   21.028137   23.456046 H          1 MOL1         0.3769
      29    C9      15.578373   18.287258   22.711170 C.3        1 MOL1         0.1053
      30    H14     16.553112   18.744744   22.927322 H          1 MOL1         0.0783
      31    O8      15.151530   17.500508   23.828986 O.3        1 MOL1        -0.5519
      32    H15     14.844656   18.158007   24.494095 H          1 MOL1         0.3769
      33    C10     15.720320   17.411153   21.439711 C.3        1 MOL1         0.1018
      34    H16     14.789926   16.848369   21.286724 H          1 MOL1         0.0783
      35    C11     15.993911   18.278309   20.183332 C.3        1 MOL1         0.1043
      36    H17     16.966423   18.769670   20.307989 H          1 MOL1         0.0783
      37    O9      14.961101   19.287699   20.072511 O.3        1 MOL1        -0.3740
      38    C12     16.060403   17.468507   18.862994 C.3        1 MOL1         0.0138
      39    H18     17.074500   17.061260   18.758555 H          1 MOL1         0.0794
      40    H19     15.901575   18.154518   18.020376 H          1 MOL1         0.0794
      41    O10     15.110535   16.396641   18.814882 O.3        1 MOL1        -0.5486
      42    H20     15.389315   15.729443   19.481011 H          1 MOL1         0.3769
      43    C13     18.419766   24.237725   20.849073 C.3        1 MOL1         0.2972
      44    H21     18.823460   25.235189   20.632917 H          1 MOL1         0.0751
      45    O11     19.463649   23.286444   21.158846 O.3        1 MOL1        -0.3740
      46    C14     17.435792   24.286118   22.044781 C.3        1 MOL1         0.1003
      47    H22     16.585202   24.912176   21.744954 H          1 MOL1         0.0783
      48    O12     18.045139   24.858503   23.211503 O.3        1 MOL1        -0.5519
      49    H23     18.936669   24.440120   23.320337 H          1 MOL1         0.3769
      50    C15     16.899319   22.866452   22.344409 C.3        1 MOL1         0.1053
      51    H24     17.740213   22.244088   22.679493 H          1 MOL1         0.0783
      52    O13     15.911838   22.932966   23.377318 O.3        1 MOL1        -0.5519
      53    H25     16.287285   23.545555   24.049140 H          1 MOL1         0.3769
      54    C16     16.286855   22.222572   21.074942 C.3        1 MOL1         0.1018
      55    H26     15.307027   22.685148   20.900279 H          1 MOL1         0.0783
      56    C17     17.177502   22.394466   19.808324 C.3        1 MOL1         0.1043
      57    H27     18.036783   21.724318   19.892875 H          1 MOL1         0.0783
      58    O14     17.671895   23.752343   19.712896 O.3        1 MOL1        -0.3740
      59    C18     16.465669   22.031099   18.482222 C.3        1 MOL1         0.0138
      60    H28     16.355478   20.939818   18.428145 H          1 MOL1         0.0794
      61    H29     17.114903   22.330829   17.648889 H          1 MOL1         0.0794
      62    O15     15.183491   22.656486   18.351349 O.3        1 MOL1        -0.5486
      63    H30     14.520920   22.064234   18.766054 H          1 MOL1         0.3769
      64    C19     23.567712   22.813436   21.471448 C.3        1 MOL1         0.2972
      65    H31     24.659312   22.925308   21.496896 H          1 MOL1         0.0751
      66    O16     23.182121   21.422453   21.414855 O.3        1 MOL1        -0.3740
      67    C20     22.905381   23.494341   22.698703 C.3        1 MOL1         0.1003
      68    H32     23.121558   24.568212   22.624538 H          1 MOL1         0.0783
      69    O17     23.432759   23.006315   23.940859 O.3        1 MOL1        -0.5519
      70    H33     23.206624   22.043702   23.992836 H          1 MOL1         0.3769
      71    C21     21.368806   23.316890   22.646256 C.3        1 MOL1         0.1053
      72    H34     21.141532   22.248420   22.749656 H          1 MOL1         0.0783
      73    O18     20.776296   24.039384   23.728539 O.3        1 MOL1        -0.5519
      74    H35     21.343765   23.843729   24.507830 H          1 MOL1         0.3769
      75    C22     20.798298   23.818332   21.293486 C.3        1 MOL1         0.1018
      76    H36     20.803929   24.916201   21.308293 H          1 MOL1         0.0783
      77    C23     21.612968   23.308565   20.070376 C.3        1 MOL1         0.1043
      78    H37     21.393737   22.242488   19.932326 H          1 MOL1         0.0783
      79    O19     23.035951   23.468410   20.300079 O.3        1 MOL1        -0.3740
      80    C24     21.243432   24.027622   18.750773 C.3        1 MOL1         0.0138
      81    H38     20.232229   23.715746   18.455996 H          1 MOL1         0.0794
      82    H39     21.931708   23.692073   17.963542 H          1 MOL1         0.0794
      83    O20     21.291582   25.454286   18.880844 O.3        1 MOL1        -0.5486
      84    H40     21.096409   25.840254   17.999090 H          1 MOL1         0.3769
      85    C25     24.521069   17.550675   22.085309 C.3        1 MOL1         0.2972
      86    H41     25.096651   16.668086   22.388012 H          1 MOL1         0.0751
      87    O21     23.462096   17.207068   21.166053 O.3        1 MOL1        -0.3740
      88    C26     23.896411   18.240707   23.327202 C.3        1 MOL1         0.1003
      89    H42     24.720581   18.489275   24.008537 H          1 MOL1         0.0783
      90    O22     22.959123   17.377159   24.001993 O.3        1 MOL1        -0.5519
      91    H43     23.308798   16.458739   23.904537 H          1 MOL1         0.3769
      92    C27     23.185897   19.551654   22.925154 C.3        1 MOL1         0.1053
      93    H44     22.320392   19.274160   22.320844 H          1 MOL1         0.0783
      94    O23     22.758401   20.224954   24.111980 O.3        1 MOL1        -0.5519
      95    H45     22.456055   19.503901   24.707930 H          1 MOL1         0.3769
      96    C28     24.068507   20.474987   22.050428 C.3        1 MOL1         0.1018
      97    H46     24.812766   20.966442   22.691085 H          1 MOL1         0.0783
      98    C29     24.777636   19.691838   20.911556 C.3        1 MOL1         0.1043
      99    H47     24.020088   19.404163   20.170625 H          1 MOL1         0.0783
     100    O24     25.400050   18.495439   21.438744 O.3        1 MOL1        -0.3740
     101    C30     25.855071   20.520858   20.171797 C.3        1 MOL1         0.0138
     102    H48     25.350349   21.286066   19.566530 H          1 MOL1         0.0794
     103    H49     26.391978   19.858968   19.479136 H          1 MOL1         0.0794
     104    O25     26.773632   21.146514   21.076910 O.3        1 MOL1        -0.5486
     105    H50     27.469560   21.584420   20.539604 H          1 MOL1         0.3769
     106    C31     21.335269   13.781510   20.173921 C.3        1 MOL1         0.2972
     107    H51     20.958084   12.824417   19.791552 H          1 MOL1         0.0751
     108    O26     20.255251   14.645450   20.592560 O.3        1 MOL1        -0.3740
     109    C32     22.356020   13.571207   21.323086 C.3        1 MOL1         0.1003
     110    H52     23.232448   13.079297   20.880854 H          1 MOL1         0.0783
     111    O27     21.849322   12.726801   22.366015 O.3        1 MOL1        -0.5519
     112    H53     21.138138   13.238159   22.825944 H          1 MOL1         0.3769
     113    C33     22.818655   14.940326   21.878956 C.3        1 MOL1         0.1053
     114    H54     21.946441   15.456323   22.299581 H          1 MOL1         0.0783
     115    O28     23.785972   14.710138   22.909864 O.3        1 MOL1        -0.5519
     116    H55     23.467545   13.907540   23.382714 H          1 MOL1         0.3769
     117    C34     23.396587   15.828671   20.736855 C.3        1 MOL1         0.1018
     118    H56     24.391820   15.454379   20.466069 H          1 MOL1         0.0783
     119    C35     22.486411   15.829862   19.473264 C.3        1 MOL1         0.1043
     120    H57     21.600392   16.438165   19.697616 H          1 MOL1         0.0783
     121    O29     22.058458   14.482790   19.138927 O.3        1 MOL1        -0.3740
     122    C36     23.156640   16.462356   18.228672 C.3        1 MOL1         0.0138
     123    H58     23.242387   17.545480   18.389462 H          1 MOL1         0.0794
     124    H59     22.494761   16.314636   17.365037 H          1 MOL1         0.0794
     125    O30     24.450185   15.909646   17.955498 O.3        1 MOL1        -0.5486
     126    H60     25.072069   16.264077   18.626583 H          1 MOL1         0.3769
     127    N1      19.952095   17.749798   24.432879 N.4        1 MOL1        -0.5891
     128    H1      20.887096   17.343659   24.267974 H          1 MOL1         0.3726
     129    H2      19.243981   17.007448   24.313048 H          1 MOL1         0.3726
     130    H3      19.919129   18.027043   25.418289 H          1 MOL1         0.3726
     131    C1      19.690641   18.924762   23.513788 C.3        1 MOL1         0.0314
     132    H4      20.437372   19.690798   23.736734 H          1 MOL1         0.0999
     133    H5      18.703753   19.333172   23.747750 H          1 MOL1         0.0999
     134    C2      19.764351   18.557722   22.020929 C.3        1 MOL1        -0.1308
     135    H6      20.655281   17.945676   21.826344 H          1 MOL1         0.1025
     136    H7      18.896719   17.949535   21.751630 H          1 MOL1         0.1025
     137    C3      19.787465   19.816535   21.135927 C.3        1 MOL1        -0.1243
     138    H8      20.612717   20.472981   21.437022 H          1 MOL1         0.1025
     139    H9      18.864346   20.380992   21.307251 H          1 MOL1         0.1025
     140    C4      19.939334   19.467116   19.640183 C.3        1 MOL1        -0.2258
     141    H10     20.892994   18.955621   19.455339 H          1 MOL1         0.1036
     142    H11     19.922571   20.375530   19.024750 H          1 MOL1         0.1036
     143    H12     19.129472   18.810756   19.298787 H          1 MOL1         0.1036
@<TRIPOS>BOND
    1     1     2    1
    2     1     3    1
    3     1     4    1
    4     4     5    1
    5     4     6    1
    6     6     7    1
    7     4     8    1
    8     8     9    1
    9     8    10    1
   10    10    11    1
   11     8    12    1
   12    12    13    1
   13    12    14    1
   14    14    15    1
   15     1    16    1
   16    14    16    1
   17    14    17    1
   18    17    18    1
   19    17    19    1
   20    17    20    1
   21    20    21    1
   22    22    23    1
   23    22    24    1
   24    22    25    1
   25    25    26    1
   26    25    27    1
   27    27    28    1
   28    25    29    1
   29    29    30    1
   30    29    31    1
   31    31    32    1
   32     3    33    1
   33    29    33    1
   34    33    34    1
   35    33    35    1
   36    35    36    1
   37    22    37    1
   38    35    37    1
   39    35    38    1
   40    38    39    1
   41    38    40    1
   42    38    41    1
   43    41    42    1
   44    43    44    1
   45    43    45    1
   46    43    46    1
   47    46    47    1
   48    46    48    1
   49    48    49    1
   50    46    50    1
   51    50    51    1
   52    50    52    1
   53    52    53    1
   54    24    54    1
   55    50    54    1
   56    54    55    1
   57    54    56    1
   58    56    57    1
   59    43    58    1
   60    56    58    1
   61    56    59    1
   62    59    60    1
   63    59    61    1
   64    59    62    1
   65    62    63    1
   66    64    65    1
   67    64    66    1
   68    64    67    1
   69    67    68    1
   70    67    69    1
   71    69    70    1
   72    67    71    1
   73    71    72    1
   74    71    73    1
   75    73    74    1
   76    45    75    1
   77    71    75    1
   78    75    76    1
   79    75    77    1
   80    77    78    1
   81    64    79    1
   82    77    79    1
   83    77    80    1
   84    80    81    1
   85    80    82    1
   86    80    83    1
   87    83    84    1
   88    85    86    1
   89    85    87    1
   90    85    88    1
   91    88    89    1
   92    88    90    1
   93    90    91    1
   94    88    92    1
   95    92    93    1
   96    92    94    1
   97    94    95    1
   98    66    96    1
   99    92    96    1
  100    96    97    1
  101    96    98    1
  102    98    99    1
  103    85   100    1
  104    98   100    1
  105    98   101    1
  106   101   102    1
  107   101   103    1
  108   101   104    1
  109   104   105    1
  110   106   107    1
  111    12   108    1
  112   106   108    1
  113   106   109    1
  114   109   110    1
  115   109   111    1
  116   111   112    1
  117   109   113    1
  118   113   114    1
  119   113   115    1
  120   115   116    1
  121    87   117    1
  122   113   117    1
  123   117   118    1
  124   117   119    1
  125   119   120    1
  126   106   121    1
  127   119   121    1
  128   119   122    1
  129   122   123    1
  130   122   124    1
  131   122   125    1
  132   125   126    1
  133   127   128    1
  134   127   129    1
  135   127   130    1
  136   127   131    1
  137   131   132    1
  138   131   133    1
  139   131   134    1
  140   134   135    1
  141   134   136    1
  142   134   137    1
  143   137   138    1
  144   137   139    1
  145   137   140    1
  146   140   141    1
  147   140   142    1
  148   140   143    1
@<TRIPOS>SUBSTRUCTURE
       1 MOL1            1 RESIDUE      1      MOL     
       2 MOL1          143 RESIDUE      1      MOL     
@<SCITEGIC>MOL_PROPERTY
feprocess Rank
SciTegic.value.IntegerValue
1

@<SCITEGIC>MOL_PROPERTY
Conf_Id
SciTegic.value.IntegerValue
1

@<SCITEGIC>MOL_PROPERTY
Probability
SciTegic.value.DoubleValue
100.00

@<SCITEGIC>MOL_PROPERTY
G
SciTegic.value.DoubleValue
552.762

@<SCITEGIC>MOL_PROPERTY
E
SciTegic.value.DoubleValue
364.360

@<SCITEGIC>MOL_PROPERTY
-TS
SciTegic.value.DoubleValue
188.401

@<SCITEGIC>MOL_PROPERTY
U+W
SciTegic.value.DoubleValue
238.272

@<SCITEGIC>MOL_PROPERTY
U
SciTegic.value.DoubleValue
327.459

@<SCITEGIC>MOL_PROPERTY
W
SciTegic.value.DoubleValue
-89.187

@<SCITEGIC>MOL_PROPERTY
W(PB)
SciTegic.value.DoubleValue
-95.246

@<SCITEGIC>MOL_PROPERTY
W(SA)
SciTegic.value.DoubleValue
6.059

@<SCITEGIC>MOL_PROPERTY
Valence
SciTegic.value.DoubleValue
147.156

@<SCITEGIC>MOL_PROPERTY
Coulomb
SciTegic.value.DoubleValue
200.869

@<SCITEGIC>MOL_PROPERTY
VdW
SciTegic.value.DoubleValue
-20.566

@<SCITEGIC>MOL_PROPERTY
VdW6
SciTegic.value.DoubleValue
-173.563

@<SCITEGIC>MOL_PROPERTY
VdW12
SciTegic.value.DoubleValue
152.997

@<SCITEGIC>MOL_PROPERTY
Bond
SciTegic.value.DoubleValue
4.834

@<SCITEGIC>MOL_PROPERTY
Angle
SciTegic.value.DoubleValue
13.026

@<SCITEGIC>MOL_PROPERTY
Pdih
SciTegic.value.DoubleValue
129.296

@<SCITEGIC>MOL_PROPERTY
Idih
SciTegic.value.DoubleValue
0.000

@<SCITEGIC>MOL_PROPERTY
Tether
SciTegic.value.DoubleValue
0.000

