@<TRIPOS>MOLECULE
guest-6_vm2.mol2 : vm2 ligand conformer 1
          13          12           1
SMALL
USER_CHARGES
 
@<TRIPOS>ATOM
       1    C1      20.072621   19.240319   23.932603 C.2        1 MOL1         0.6021
       2    O1      20.642153   20.227866   24.351824 O.co2      1 MOL1        -0.6904
       3    O2      19.946477   18.215916   24.572951 O.co2      1 MOL1        -0.6904
       4    C2      19.501660   19.282397   22.519191 C.3        1 MOL1        -0.2102
       5    H1      19.179000   20.309963   22.311785 H          1 MOL1         0.0687
       6    H2      18.605289   18.650803   22.494149 H          1 MOL1         0.0687
       7    C3      20.513021   18.814595   21.444873 C.3        1 MOL1        -0.1974
       8    H3      21.410364   19.447773   21.485898 H          1 MOL1         0.0689
       9    H4      20.836440   17.788272   21.668224 H          1 MOL1         0.0689
      10    C4      19.906068   18.868906   20.028558 C.3        1 MOL1        -0.2987
      11    H5      20.637318   18.533897   19.281362 H          1 MOL1         0.0700
      12    H6      19.023721   18.219684   19.954202 H          1 MOL1         0.0700
      13    H7      19.602090   19.891915   19.770474 H          1 MOL1         0.0700
@<TRIPOS>BOND
    1     1     2    1
    2     1     3    2
    3     1     4    1
    4     4     5    1
    5     4     6    1
    6     4     7    1
    7     7     8    1
    8     7     9    1
    9     7    10    1
   10    10    11    1
   11    10    12    1
   12    10    13    1
@<TRIPOS>SUBSTRUCTURE
       1 MOL1            1 RESIDUE      1      MOL     
@<SCITEGIC>MOL_PROPERTY
VM2 Rank
SciTegic.value.IntegerValue
1

@<SCITEGIC>MOL_PROPERTY
Conf_Id
SciTegic.value.IntegerValue
1

@<SCITEGIC>MOL_PROPERTY
Probability
SciTegic.value.DoubleValue
88.65

@<SCITEGIC>MOL_PROPERTY
Sum Probability
SciTegic.value.DoubleValue
88.65

@<SCITEGIC>MOL_PROPERTY
Delta G
SciTegic.value.DoubleValue
0.000

@<SCITEGIC>MOL_PROPERTY
G
SciTegic.value.DoubleValue
-44.757

@<SCITEGIC>MOL_PROPERTY
E
SciTegic.value.DoubleValue
-49.835

@<SCITEGIC>MOL_PROPERTY
-TS
SciTegic.value.DoubleValue
5.078

@<SCITEGIC>MOL_PROPERTY
U+W
SciTegic.value.DoubleValue
-59.672

@<SCITEGIC>MOL_PROPERTY
U
SciTegic.value.DoubleValue
7.389

@<SCITEGIC>MOL_PROPERTY
W
SciTegic.value.DoubleValue
-67.060

@<SCITEGIC>MOL_PROPERTY
W(PB)
SciTegic.value.DoubleValue
-68.767

@<SCITEGIC>MOL_PROPERTY
W(SA)
SciTegic.value.DoubleValue
1.707

@<SCITEGIC>MOL_PROPERTY
Valence
SciTegic.value.DoubleValue
5.822

@<SCITEGIC>MOL_PROPERTY
Coulomb
SciTegic.value.DoubleValue
1.255

@<SCITEGIC>MOL_PROPERTY
VdW
SciTegic.value.DoubleValue
0.312

@<SCITEGIC>MOL_PROPERTY
VdW6
SciTegic.value.DoubleValue
-3.061

@<SCITEGIC>MOL_PROPERTY
VdW12
SciTegic.value.DoubleValue
3.372

@<SCITEGIC>MOL_PROPERTY
Bond
SciTegic.value.DoubleValue
0.059

@<SCITEGIC>MOL_PROPERTY
Angle
SciTegic.value.DoubleValue
2.241

@<SCITEGIC>MOL_PROPERTY
Pdih
SciTegic.value.DoubleValue
3.522

@<SCITEGIC>MOL_PROPERTY
Idih
SciTegic.value.DoubleValue
0.000

@<SCITEGIC>MOL_PROPERTY
Tether
SciTegic.value.DoubleValue
0.000

@<TRIPOS>MOLECULE
guest-6_vm2.mol2 : vm2 ligand conformer 2
          13          12           1
SMALL
USER_CHARGES
 
@<TRIPOS>ATOM
       1    C1      20.095533   19.116526   23.948988 C.2        1 MOL1         0.6021
       2    O1      20.805772   20.093268   24.086343 O.co2      1 MOL1        -0.6904
       3    O2      19.637192   18.495020   24.886245 O.co2      1 MOL1        -0.6904
       4    C2      19.744999   18.622396   22.544124 C.3        1 MOL1        -0.2102
       5    H1      18.651583   18.617002   22.461953 H          1 MOL1         0.0687
       6    H2      20.076747   17.579824   22.471157 H          1 MOL1         0.0687
       7    C3      20.352422   19.446713   21.379008 C.3        1 MOL1        -0.1974
       8    H3      20.021096   20.491751   21.455643 H          1 MOL1         0.0689
       9    H4      21.448019   19.453363   21.464900 H          1 MOL1         0.0689
      10    C4      19.946083   18.876077   20.005292 C.3        1 MOL1        -0.2987
      11    H5      18.855102   18.887487   19.882197 H          1 MOL1         0.0700
      12    H6      20.384880   19.471771   19.194204 H          1 MOL1         0.0700
      13    H7      20.293444   17.840737   19.891561 H          1 MOL1         0.0700
@<TRIPOS>BOND
    1     1     2    1
    2     1     3    2
    3     1     4    1
    4     4     5    1
    5     4     6    1
    6     4     7    1
    7     7     8    1
    8     7     9    1
    9     7    10    1
   10    10    11    1
   11    10    12    1
   12    10    13    1
@<TRIPOS>SUBSTRUCTURE
       1 MOL1            1 RESIDUE      1      MOL     
@<SCITEGIC>MOL_PROPERTY
VM2 Rank
SciTegic.value.IntegerValue
2

@<SCITEGIC>MOL_PROPERTY
Conf_Id
SciTegic.value.IntegerValue
0

@<SCITEGIC>MOL_PROPERTY
Probability
SciTegic.value.DoubleValue
4.01

@<SCITEGIC>MOL_PROPERTY
Sum Probability
SciTegic.value.DoubleValue
92.66

@<SCITEGIC>MOL_PROPERTY
Delta G
SciTegic.value.DoubleValue
1.846

@<SCITEGIC>MOL_PROPERTY
G
SciTegic.value.DoubleValue
-42.911

@<SCITEGIC>MOL_PROPERTY
E
SciTegic.value.DoubleValue
-48.495

@<SCITEGIC>MOL_PROPERTY
-TS
SciTegic.value.DoubleValue
5.584

@<SCITEGIC>MOL_PROPERTY
U+W
SciTegic.value.DoubleValue
-58.332

@<SCITEGIC>MOL_PROPERTY
U
SciTegic.value.DoubleValue
8.390

@<SCITEGIC>MOL_PROPERTY
W
SciTegic.value.DoubleValue
-66.722

@<SCITEGIC>MOL_PROPERTY
W(PB)
SciTegic.value.DoubleValue
-68.455

@<SCITEGIC>MOL_PROPERTY
W(SA)
SciTegic.value.DoubleValue
1.733

@<SCITEGIC>MOL_PROPERTY
Valence
SciTegic.value.DoubleValue
6.333

@<SCITEGIC>MOL_PROPERTY
Coulomb
SciTegic.value.DoubleValue
1.215

@<SCITEGIC>MOL_PROPERTY
VdW
SciTegic.value.DoubleValue
0.842

@<SCITEGIC>MOL_PROPERTY
VdW6
SciTegic.value.DoubleValue
-3.344

@<SCITEGIC>MOL_PROPERTY
VdW12
SciTegic.value.DoubleValue
4.186

@<SCITEGIC>MOL_PROPERTY
Bond
SciTegic.value.DoubleValue
0.091

@<SCITEGIC>MOL_PROPERTY
Angle
SciTegic.value.DoubleValue
2.713

@<SCITEGIC>MOL_PROPERTY
Pdih
SciTegic.value.DoubleValue
3.529

@<SCITEGIC>MOL_PROPERTY
Idih
SciTegic.value.DoubleValue
0.000

@<SCITEGIC>MOL_PROPERTY
Tether
SciTegic.value.DoubleValue
0.000

@<TRIPOS>MOLECULE
guest-6_vm2.mol2 : vm2 ligand conformer 3
          13          12           1
SMALL
USER_CHARGES
 
@<TRIPOS>ATOM
       1    C1      20.147079   19.236360   23.771933 C.2        1 MOL1         0.6021
       2    O1      20.011669   20.416240   24.027775 O.co2      1 MOL1        -0.6904
       3    O2      19.623386   18.347613   24.413784 O.co2      1 MOL1        -0.6904
       4    C2      21.050887   18.845841   22.605164 C.3        1 MOL1        -0.2102
       5    H1      21.723611   18.057040   22.962405 H          1 MOL1         0.0687
       6    H2      21.680683   19.705598   22.345430 H          1 MOL1         0.0687
       7    C3      20.288380   18.344625   21.351887 C.3        1 MOL1        -0.1974
       8    H3      21.010887   17.946810   20.626215 H          1 MOL1         0.0689
       9    H4      19.629706   17.510389   21.631389 H          1 MOL1         0.0689
      10    C4      19.460601   19.459321   20.679457 C.3        1 MOL1        -0.2987
      11    H5      18.950215   19.076731   19.786021 H          1 MOL1         0.0700
      12    H6      18.696325   19.850839   21.363871 H          1 MOL1         0.0700
      13    H7      20.103606   20.294381   20.371872 H          1 MOL1         0.0700
@<TRIPOS>BOND
    1     1     2    1
    2     1     3    2
    3     1     4    1
    4     4     5    1
    5     4     6    1
    6     4     7    1
    7     7     8    1
    8     7     9    1
    9     7    10    1
   10    10    11    1
   11    10    12    1
   12    10    13    1
@<TRIPOS>SUBSTRUCTURE
       1 MOL1            1 RESIDUE      1      MOL     
@<SCITEGIC>MOL_PROPERTY
VM2 Rank
SciTegic.value.IntegerValue
3

@<SCITEGIC>MOL_PROPERTY
Conf_Id
SciTegic.value.IntegerValue
85

@<SCITEGIC>MOL_PROPERTY
Probability
SciTegic.value.DoubleValue
3.70

@<SCITEGIC>MOL_PROPERTY
Sum Probability
SciTegic.value.DoubleValue
96.36

@<SCITEGIC>MOL_PROPERTY
Delta G
SciTegic.value.DoubleValue
1.893

@<SCITEGIC>MOL_PROPERTY
G
SciTegic.value.DoubleValue
-42.864

@<SCITEGIC>MOL_PROPERTY
E
SciTegic.value.DoubleValue
-48.226

@<SCITEGIC>MOL_PROPERTY
-TS
SciTegic.value.DoubleValue
5.362

@<SCITEGIC>MOL_PROPERTY
U+W
SciTegic.value.DoubleValue
-58.062

@<SCITEGIC>MOL_PROPERTY
U
SciTegic.value.DoubleValue
9.781

@<SCITEGIC>MOL_PROPERTY
W
SciTegic.value.DoubleValue
-67.843

@<SCITEGIC>MOL_PROPERTY
W(PB)
SciTegic.value.DoubleValue
-69.539

@<SCITEGIC>MOL_PROPERTY
W(SA)
SciTegic.value.DoubleValue
1.696

@<SCITEGIC>MOL_PROPERTY
Valence
SciTegic.value.DoubleValue
6.123

@<SCITEGIC>MOL_PROPERTY
Coulomb
SciTegic.value.DoubleValue
3.449

@<SCITEGIC>MOL_PROPERTY
VdW
SciTegic.value.DoubleValue
0.209

@<SCITEGIC>MOL_PROPERTY
VdW6
SciTegic.value.DoubleValue
-3.762

@<SCITEGIC>MOL_PROPERTY
VdW12
SciTegic.value.DoubleValue
3.972

@<SCITEGIC>MOL_PROPERTY
Bond
SciTegic.value.DoubleValue
0.078

@<SCITEGIC>MOL_PROPERTY
Angle
SciTegic.value.DoubleValue
2.428

@<SCITEGIC>MOL_PROPERTY
Pdih
SciTegic.value.DoubleValue
3.616

@<SCITEGIC>MOL_PROPERTY
Idih
SciTegic.value.DoubleValue
0.002

@<SCITEGIC>MOL_PROPERTY
Tether
SciTegic.value.DoubleValue
0.000

@<TRIPOS>MOLECULE
guest-6_vm2.mol2 : vm2 ligand conformer 4
          13          12           1
SMALL
USER_CHARGES
 
@<TRIPOS>ATOM
       1    C1      20.122975   19.166666   23.779589 C.2        1 MOL1         0.6021
       2    O1      20.296196   20.293294   24.200068 O.co2      1 MOL1        -0.6904
       3    O2      19.312304   18.393703   24.249955 O.co2      1 MOL1        -0.6904
       4    C2      20.996138   18.687480   22.622569 C.3        1 MOL1        -0.2102
       5    H1      20.950153   17.592419   22.577687 H          1 MOL1         0.0687
       6    H2      22.032715   18.951185   22.864134 H          1 MOL1         0.0687
       7    C3      20.616781   19.294564   21.247478 C.3        1 MOL1        -0.1974
       8    H3      20.625741   20.391523   21.314725 H          1 MOL1         0.0689
       9    H4      21.381010   19.017424   20.508545 H          1 MOL1         0.0689
      10    C4      19.237606   18.814293   20.750340 C.3        1 MOL1        -0.2987
      11    H5      18.441508   19.113725   21.444886 H          1 MOL1         0.0700
      12    H6      19.008789   19.246238   19.767404 H          1 MOL1         0.0700
      13    H7      19.213917   17.720822   20.654667 H          1 MOL1         0.0700
@<TRIPOS>BOND
    1     1     2    1
    2     1     3    2
    3     1     4    1
    4     4     5    1
    5     4     6    1
    6     4     7    1
    7     7     8    1
    8     7     9    1
    9     7    10    1
   10    10    11    1
   11    10    12    1
   12    10    13    1
@<TRIPOS>SUBSTRUCTURE
       1 MOL1            1 RESIDUE      1      MOL     
@<SCITEGIC>MOL_PROPERTY
VM2 Rank
SciTegic.value.IntegerValue
4

@<SCITEGIC>MOL_PROPERTY
Conf_Id
SciTegic.value.IntegerValue
4

@<SCITEGIC>MOL_PROPERTY
Probability
SciTegic.value.DoubleValue
3.64

@<SCITEGIC>MOL_PROPERTY
Sum Probability
SciTegic.value.DoubleValue
100.00

@<SCITEGIC>MOL_PROPERTY
Delta G
SciTegic.value.DoubleValue
1.904

@<SCITEGIC>MOL_PROPERTY
G
SciTegic.value.DoubleValue
-42.853

@<SCITEGIC>MOL_PROPERTY
E
SciTegic.value.DoubleValue
-48.214

@<SCITEGIC>MOL_PROPERTY
-TS
SciTegic.value.DoubleValue
5.362

@<SCITEGIC>MOL_PROPERTY
U+W
SciTegic.value.DoubleValue
-58.051

@<SCITEGIC>MOL_PROPERTY
U
SciTegic.value.DoubleValue
9.781

@<SCITEGIC>MOL_PROPERTY
W
SciTegic.value.DoubleValue
-67.832

@<SCITEGIC>MOL_PROPERTY
W(PB)
SciTegic.value.DoubleValue
-69.535

@<SCITEGIC>MOL_PROPERTY
W(SA)
SciTegic.value.DoubleValue
1.703

@<SCITEGIC>MOL_PROPERTY
Valence
SciTegic.value.DoubleValue
6.123

@<SCITEGIC>MOL_PROPERTY
Coulomb
SciTegic.value.DoubleValue
3.449

@<SCITEGIC>MOL_PROPERTY
VdW
SciTegic.value.DoubleValue
0.209

@<SCITEGIC>MOL_PROPERTY
VdW6
SciTegic.value.DoubleValue
-3.762

@<SCITEGIC>MOL_PROPERTY
VdW12
SciTegic.value.DoubleValue
3.972

@<SCITEGIC>MOL_PROPERTY
Bond
SciTegic.value.DoubleValue
0.078

@<SCITEGIC>MOL_PROPERTY
Angle
SciTegic.value.DoubleValue
2.428

@<SCITEGIC>MOL_PROPERTY
Pdih
SciTegic.value.DoubleValue
3.616

@<SCITEGIC>MOL_PROPERTY
Idih
SciTegic.value.DoubleValue
0.002

@<SCITEGIC>MOL_PROPERTY
Tether
SciTegic.value.DoubleValue
0.000

